#	Name: ASD03080222
#	Creating user name:	WinNT
#	Creation time:	15. 06. 2019 20:26

#	Modifying user name:	WinNT
#	Modification time:	15. 06. 2019 20:26

#	Program:	/corina/corina34_cracker 3.40 0067  02.08.2006

@<TRIPOS>MOLECULE
ASD03080222
  54   53    0    0    0
SMALL
NO_CHARGES


@<TRIPOS>ATOM
   1 C1            -0.0167     1.3823     0.0096 C.ar    
   2 C2             0.0021    -0.0041     0.0020 C.ar    
   3 C3             1.2303    -0.6473    -0.0132 C.ar    
   4 C4             2.3867     0.1094    -0.0201 C.ar    
   5 N5             2.3308     1.4269    -0.0121 N.ar    
   6 C6             1.1808     2.0721     0.0019 C.ar    
   7 C7            -1.2819    -0.7930     0.0105 C.3     
   8 C8            -2.1063    -0.4388    -1.2287 C.3     
   9 C9            -0.9613    -2.2890    -0.0007 C.3     
  10 C10           -2.0815    -0.4522     1.2696 C.3     
  11 C11            3.5790     2.1939    -0.0194 C.3     
  12 C12            4.0000     2.4691    -1.4644 C.3     
  13 N13            5.2482     3.2361    -1.4717 N.ar    
  14 C14            5.1923     4.5535    -1.4582 C.ar    
  15 C15            6.3981     2.5908    -1.4862 C.ar    
  16 C16            7.5957     3.2806    -1.4930 C.ar    
  17 C17            7.5769     4.6670    -1.4844 C.ar    
  18 C18            6.3488     5.3102    -1.4645 C.ar    
  19 C19            8.8609     5.4559    -1.4915 C.3     
  20 C20            9.6615     5.1160    -2.7502 C.3     
  21 C21            8.5403     6.9519    -1.4795 C.3     
  22 C22            9.6844     5.1009    -0.2519 C.3     
  23 H23           -0.9554     1.9164     0.0170 H       
  24 H24            1.2826    -1.7260    -0.0191 H       
  25 H25            3.3473    -0.3840    -0.0320 H       
  26 H26            1.1748     3.1521     0.0074 H       
  27 H27           -1.5366    -0.6816    -2.1257 H       
  28 H28           -3.0350    -1.0095    -1.2225 H       
  29 H29           -2.3347     0.6269    -1.2207 H       
  30 H30           -0.3739    -2.5414     0.8822 H       
  31 H31           -1.8900    -2.8597     0.0055 H       
  32 H32           -0.3916    -2.5318    -0.8977 H       
  33 H33           -2.3099     0.6135     1.2776 H       
  34 H34           -3.0102    -1.0229     1.2758 H       
  35 H35           -1.4942    -0.7046     2.1525 H       
  36 H36            3.4275     3.1394     0.5013 H       
  37 H37            4.3592     1.6229     0.4839 H       
  38 H38            4.1515     1.5235    -1.9851 H       
  39 H39            3.2197     3.0401    -1.9677 H       
  40 H40            4.2317     5.0469    -1.4424 H       
  41 H41            6.4042     1.5109    -1.4924 H       
  42 H42            8.5343     2.7466    -1.5045 H       
  43 H43            6.2965     6.3889    -1.4541 H       
  44 H44            9.0748     5.3689    -3.6333 H       
  45 H45           10.5901     5.6866    -2.7553 H       
  46 H46            9.8899     4.0502    -2.7587 H       
  47 H47            7.9699     7.1941    -0.5827 H       
  48 H48            9.4690     7.5226    -1.4846 H       
  49 H49            7.9536     7.2049    -2.3626 H       
  50 H50            9.9128     4.0351    -0.2604 H       
  51 H51           10.6131     5.6715    -0.2569 H       
  52 H52            9.1141     5.3431     0.6449 H       
  53 I53           15.6131    12.5226     7.1525 I       
  54 I54           20.6131    17.5226    12.1525 I       
@<TRIPOS>BOND
   1    1    2 ar
   2    1    6 ar
   3    1   23 1
   4    2    3 ar
   5    2    7 1
   6    3    4 ar
   7    3   24 1
   8    4    5 ar
   9    4   25 1
  10    5    6 ar
  11    5   11 1
  12    6   26 1
  13    7    8 1
  14    7    9 1
  15    7   10 1
  16    8   27 1
  17    8   28 1
  18    8   29 1
  19    9   30 1
  20    9   31 1
  21    9   32 1
  22   10   33 1
  23   10   34 1
  24   10   35 1
  25   11   12 1
  26   11   36 1
  27   11   37 1
  28   12   13 1
  29   12   38 1
  30   12   39 1
  31   13   15 ar
  32   13   14 ar
  33   14   18 ar
  34   14   40 1
  35   15   16 ar
  36   15   41 1
  37   16   17 ar
  38   16   42 1
  39   17   18 ar
  40   17   19 1
  41   18   43 1
  42   19   20 1
  43   19   21 1
  44   19   22 1
  45   20   44 1
  46   20   45 1
  47   20   46 1
  48   21   47 1
  49   21   48 1
  50   21   49 1
  51   22   50 1
  52   22   51 1
  53   22   52 1

#	End of record

