#	Name: ASD01000021
#	Creating user name:	WinNT
#	Creation time:	15. 06. 2019 18:54

#	Modifying user name:	WinNT
#	Modification time:	15. 06. 2019 18:54

#	Program:	/corina/corina34_cracker 3.40 0067  02.08.2006

@<TRIPOS>MOLECULE
ASD01000021
  48   49    0    0    0
SMALL
NO_CHARGES


@<TRIPOS>ATOM
   1 C1             1.2493     1.0153    -0.1268 C.ar    
   2 C2             0.9904    -0.3457    -0.0602 C.ar    
   3 C3            -0.2752    -0.8219    -0.3439 C.ar    
   4 C4            -1.2836     0.0576    -0.6946 C.ar    
   5 C5            -1.0273     1.4156    -0.7621 C.ar    
   6 C6             0.2349     1.8964    -0.4732 C.ar    
   7 C7            -0.5571    -2.3005    -0.2717 C.3     
   8 N8             0.6547    -3.0155    -0.7066 N.am    
   9 C9            -1.0749    -2.6101     1.1183 C.2     
  10 C10           -0.3936    -3.5138     1.8561 C.2     
  11 N11            0.7226    -4.1262     1.3651 N.am    
  12 C12            1.2235    -3.8908     0.1459 C.2     
  13 C13           -2.2315    -1.9744     1.6261 C.2     
  14 O14           -3.4203    -2.6123     1.5960 O.3     
  15 S15            2.6324    -4.7296    -0.3466 S.2     
  16 O16           -2.1548    -0.8522     2.0903 O.2     
  17 O17            2.4934     1.4858     0.1524 O.3     
  18 Br18          -3.0146    -0.5970    -1.0830 Br      
  19 C19           -4.5617    -1.8790     2.0452 C.3     
  20 C20           -5.8241    -2.7147     1.8241 C.3     
  21 C21           -0.5632    -3.3714     5.6765 C.3     
  22 C22           -0.1765    -2.9431     4.2595 C.3     
  23 C23           -0.8739    -3.8507     3.2442 C.3     
  24 C24            0.9136    -6.5058     1.8965 C.3     
  25 C25            1.4118    -5.0958     2.2201 C.3     
  26 H26            1.7776    -1.0328     0.2129 H       
  27 H27           -1.8158     2.1006    -1.0368 H       
  28 H28            0.4345     2.9565    -0.5256 H       
  29 H29           -1.3522    -2.5232    -0.9833 H       
  30 H30            1.0342    -2.8604    -1.5857 H       
  31 H31            3.0761     1.5380    -0.6176 H       
  32 H32           -4.4552    -1.6555     3.1067 H       
  33 H33           -4.6393    -0.9479     1.4838 H       
  34 H34           -5.8840    -3.0125     0.7773 H       
  35 H35           -5.7860    -3.6039     2.4532 H       
  36 H36           -6.7017    -2.1229     2.0843 H       
  37 H37           -1.6433    -3.2904     5.7986 H       
  38 H38           -0.2554    -4.4040     5.8407 H       
  39 H39           -0.0663    -2.7248     6.3998 H       
  40 H40           -0.4843    -1.9104     4.0953 H       
  41 H41            0.9036    -3.0241     4.1375 H       
  42 H42           -1.9519    -3.6998     3.3023 H       
  43 H43           -0.6402    -4.8918     3.4669 H       
  44 H44           -0.1411    -6.5877     2.1592 H       
  45 H45            1.0388    -6.6998     0.8312 H       
  46 H46            1.4882    -7.2344     2.4684 H       
  47 H47            2.4855    -5.0398     2.0407 H       
  48 H48            1.2058    -4.8689     3.2661 H       
@<TRIPOS>BOND
   1    1    2 ar
   2    1   17 1
   3    1    6 ar
   4    2    3 ar
   5    2   26 1
   6    3    4 ar
   7    3    7 1
   8    4    5 ar
   9    4   18 1
  10    5    6 ar
  11    5   27 1
  12    6   28 1
  13    7    8 1
  14    7    9 1
  15    7   29 1
  16    8   12 am
  17    8   30 1
  18    9   10 2
  19    9   13 1
  20   10   23 1
  21   10   11 1
  22   11   25 1
  23   11   12 am
  24   12   15 2
  25   13   14 1
  26   13   16 2
  27   14   19 1
  28   17   31 1
  29   19   20 1
  30   19   32 1
  31   19   33 1
  32   20   34 1
  33   20   35 1
  34   20   36 1
  35   21   22 1
  36   21   37 1
  37   21   38 1
  38   21   39 1
  39   22   23 1
  40   22   40 1
  41   22   41 1
  42   23   42 1
  43   23   43 1
  44   24   25 1
  45   24   44 1
  46   24   45 1
  47   24   46 1
  48   25   47 1
  49   25   48 1

#	End of record

