#	Name: ASD03093005
#	Creating user name:	WinNT
#	Creation time:	15. 06. 2019 20:33

#	Modifying user name:	WinNT
#	Modification time:	15. 06. 2019 20:33

#	Program:	/corina/corina34_cracker 3.40 0067  02.08.2006

@<TRIPOS>MOLECULE
ASD03093005
  67   71    0    0    0
SMALL
NO_CHARGES


@<TRIPOS>ATOM
   1 C1            -0.0167     1.3768     0.0096 C.ar    
   2 C2             0.0021    -0.0041     0.0020 C.ar    
   3 C3             1.2094    -0.6776    -0.0133 C.ar    
   4 C4             2.3942     0.0319    -0.0209 C.ar    
   5 C5             2.3775     1.4167    -0.0132 C.ar    
   6 C6             1.1705     2.0900     0.0021 C.ar    
   7 C7             3.5184     2.4115    -0.0183 C.3     
   8 C8             2.8834     3.7521    -0.4447 C.3     
   9 C9             1.4177     3.5834     0.0084 C.3     
  10 N10            3.5180     4.8738     0.2519 N.am    
  11 C11            3.4997     6.1049    -0.2964 C.2     
  12 C12            4.1525     7.2587     0.4202 C.3     
  13 O13            2.9578     6.2840    -1.3666 O.2     
  14 N14            3.9968     8.4788    -0.3757 N.am    
  15 N15            4.8958     8.7802    -1.2413 N.2     
  16 C16            4.8216     9.8497    -1.9838 C.2     
  17 C17            3.7326    10.7283    -1.8604 C.2     
  18 C18            2.7612    10.4318    -0.9469 C.2     
  19 C19            2.9116     9.2531    -0.1848 C.2     
  20 O20            2.0713     8.9436     0.6447 O.2     
  21 C21            1.5657    11.3306    -0.7626 C.3     
  22 C22            0.4204    10.8211    -1.5991 C.ar    
  23 C23            5.9121    10.1453    -2.9810 C.3     
  24 C24            7.0326     9.1141    -2.8322 C.3     
  25 C25            8.1398     9.4142    -3.8446 C.3     
  26 C26            7.5675     9.3445    -5.2618 C.3     
  27 C27            6.4470    10.3757    -5.4107 C.3     
  28 C28            5.3399    10.0756    -4.3983 C.3     
  29 C29           -0.4806     9.9065    -1.0721 C.ar    
  30 C30           -1.5184     9.4647    -1.8745 C.ar    
  31 C31           -1.6223     9.9486    -3.1721 C.ar    
  32 N32           -0.7435    10.8201    -3.6388 N.ar    
  33 C33            0.2530    11.2636    -2.8965 C.ar    
  34 O34           -2.6347     9.5230    -3.9688 O.3     
  35 C35           -2.6870    10.0578    -5.2929 C.3     
  36 H36           -0.9602     1.9023     0.0169 H       
  37 H37           -0.9255    -0.5573     0.0084 H       
  38 H38            1.2259    -1.7574    -0.0189 H       
  39 H39            3.3369    -0.4950    -0.0326 H       
  40 H40            3.9496     2.4976     0.9791 H       
  41 H41            4.2809     2.1089    -0.7360 H       
  42 H42            2.9424     3.8824    -1.5253 H       
  43 H43            0.7459     4.0809    -0.6911 H       
  44 H44            1.2838     3.9847     1.0130 H       
  45 H45            3.9514     4.7305     1.1078 H       
  46 H46            3.6799     7.3966     1.3927 H       
  47 H47            5.2129     7.0477     0.5581 H       
  48 H48            3.6651    11.6158    -2.4720 H       
  49 H49            1.2740    11.3364     0.2877 H       
  50 H50            1.8210    12.3434    -1.0744 H       
  51 H51            6.3104    11.1434    -2.7987 H       
  52 H52            7.4403     9.1638    -1.8225 H       
  53 H53            6.6343     8.1160    -3.0145 H       
  54 H54            8.5380    10.4124    -3.6623 H       
  55 H55            8.9380     8.6796    -3.7385 H       
  56 H56            8.3562     9.5583    -5.9831 H       
  57 H57            7.1692     8.3464    -5.4441 H       
  58 H58            6.8453    11.3738    -5.2284 H       
  59 H59            6.0393    10.3260    -6.4204 H       
  60 H60            4.9416     9.0774    -4.5806 H       
  61 H61            4.5416    10.8102    -4.5043 H       
  62 H62           -0.3743     9.5474    -0.0591 H       
  63 H63           -2.2374     8.7529    -1.4966 H       
  64 H64            0.9514    11.9751    -3.3115 H       
  65 H65           -2.7893    11.1418    -5.2431 H       
  66 H66           -1.7697     9.8035    -5.8239 H       
  67 H67           -3.5417     9.6360    -5.8216 H       
@<TRIPOS>BOND
   1    1    2 ar
   2    1    6 ar
   3    1   36 1
   4    2    3 ar
   5    2   37 1
   6    3    4 ar
   7    3   38 1
   8    4    5 ar
   9    4   39 1
  10    5    6 ar
  11    5    7 1
  12    6    9 1
  13    7    8 1
  14    7   40 1
  15    7   41 1
  16    8    9 1
  17    8   10 1
  18    8   42 1
  19    9   43 1
  20    9   44 1
  21   10   11 am
  22   10   45 1
  23   11   12 1
  24   11   13 2
  25   12   14 1
  26   12   46 1
  27   12   47 1
  28   14   15 1
  29   14   19 am
  30   15   16 2
  31   16   17 1
  32   16   23 1
  33   17   18 2
  34   17   48 1
  35   18   19 1
  36   18   21 1
  37   19   20 2
  38   21   22 1
  39   21   49 1
  40   21   50 1
  41   22   29 ar
  42   22   33 ar
  43   23   24 1
  44   23   28 1
  45   23   51 1
  46   24   25 1
  47   24   52 1
  48   24   53 1
  49   25   26 1
  50   25   54 1
  51   25   55 1
  52   26   27 1
  53   26   56 1
  54   26   57 1
  55   27   28 1
  56   27   58 1
  57   27   59 1
  58   28   60 1
  59   28   61 1
  60   29   30 ar
  61   29   62 1
  62   30   31 ar
  63   30   63 1
  64   31   32 ar
  65   31   34 1
  66   32   33 ar
  67   33   64 1
  68   34   35 1
  69   35   65 1
  70   35   66 1
  71   35   67 1

#	End of record

