#	Name: ASD01914165
#	Creating user name:	WinNT
#	Creation time:	15. 06. 2019 20:03

#	Modifying user name:	WinNT
#	Modification time:	15. 06. 2019 20:03

#	Program:	/corina/corina34_cracker 3.40 0067  02.08.2006

@<TRIPOS>MOLECULE
ASD01914165
  53   56    0    0    0
SMALL
NO_CHARGES


@<TRIPOS>ATOM
   1 C1             1.9088     0.6836     0.5959 C.2     
   2 C2             1.5910    -0.7495     0.5512 C.2     
   3 N3             0.3939    -1.2905     0.3781 N.2     
   4 C4             0.5918    -2.6166     0.4082 C.2     
   5 N5             1.8628    -2.8226     0.5929 N.2     
   6 O6             2.4582    -1.7689     0.6722 O.3     
   7 C7            -0.4678    -3.6773     0.2556 C.3     
   8 C8            -0.1451    -4.5505    -0.9592 C.3     
   9 C9            -1.2379    -5.6075    -1.1344 C.3     
  10 C10           -1.2801    -6.5034     0.1075 C.3     
  11 N11           -1.4453    -5.6561     1.2964 N.am    
  12 C12           -0.5012    -4.5513     1.5133 C.3     
  13 C13           -2.4438    -5.8878     2.1715 C.2     
  14 C14           -2.5250    -5.1083     3.4215 C.ar    
  15 O15           -3.2777    -6.7393     1.9308 O.2     
  16 C16           -1.4744    -4.2285     5.3965 C.ar    
  17 C17           -3.8011    -3.7891     4.9886 C.ar    
  18 C18           -3.7363    -4.5217     3.8075 C.ar    
  19 C19           -1.3946    -4.9565     4.2293 C.ar    
  20 C20            0.0271    -7.2909     0.2165 C.3     
  21 C21           -2.6712    -3.6437     5.7758 C.ar    
  22 O22           -4.8417    -4.6665     3.0330 O.3     
  23 C23            3.1584     1.2346     0.7766 C.2     
  24 C24            3.0028     2.6266     0.7526 C.2     
  25 C25            1.6895     2.8937     0.5617 C.2     
  26 N26            1.0139     1.7184     0.4589 N.pl3   
  27 Cl27           4.2688     3.8003     0.9356 Cl      
  28 O28           -4.9740    -3.2159     5.3699 O.3     
  29 C29           -5.0611    -3.6785     2.0242 C.3     
  30 C30           -4.9679    -2.4783     6.5938 C.3     
  31 H31           -1.4393    -3.2035     0.1152 H       
  32 H32           -0.0964    -3.9271    -1.8519 H       
  33 H33            0.8154    -5.0430    -0.8075 H       
  34 H34           -2.2024    -5.1160    -1.2614 H       
  35 H35           -1.0197    -6.2142    -2.0133 H       
  36 H36           -2.1199    -7.1941     0.0315 H       
  37 H37            0.4936    -4.9532     1.7056 H       
  38 H38           -0.8272    -3.9540     2.3647 H       
  39 H39           -0.5982    -4.1099     6.0166 H       
  40 H40           -0.4585    -5.4101     3.9388 H       
  41 H41            0.8636    -6.5969     0.2987 H       
  42 H42           -0.0049    -7.9276     1.1007 H       
  43 H43            0.1540    -7.9093    -0.6721 H       
  44 H44           -2.7246    -3.0752     6.6925 H       
  45 H45            4.0839     0.6949     0.9120 H       
  46 H46            1.2511     3.8786     0.4971 H       
  47 H47            0.0586     1.6254     0.3187 H       
  48 H48           -4.2182    -3.6715     1.3331 H       
  49 H49           -5.9757    -3.9124     1.4793 H       
  50 H50           -5.1567    -2.6980     2.4906 H       
  51 H51           -4.6839    -3.1376     7.4140 H       
  52 H52           -4.2519    -1.6597     6.5211 H       
  53 H53           -5.9633    -2.0750     6.7799 H       
@<TRIPOS>BOND
   1    1    2 1
   2    1   23 2
   3    1   26 1
   4    2    3 2
   5    2    6 1
   6    3    4 1
   7    4    5 2
   8    4    7 1
   9    5    6 1
  10    7    8 1
  11    7   12 1
  12    7   31 1
  13    8    9 1
  14    8   32 1
  15    8   33 1
  16    9   10 1
  17    9   34 1
  18    9   35 1
  19   10   11 1
  20   10   20 1
  21   10   36 1
  22   11   12 1
  23   11   13 am
  24   12   37 1
  25   12   38 1
  26   13   14 1
  27   13   15 2
  28   14   19 ar
  29   14   18 ar
  30   16   21 ar
  31   16   19 ar
  32   16   39 1
  33   17   18 ar
  34   17   28 1
  35   17   21 ar
  36   18   22 1
  37   19   40 1
  38   20   41 1
  39   20   42 1
  40   20   43 1
  41   21   44 1
  42   22   29 1
  43   23   24 1
  44   23   45 1
  45   24   25 2
  46   24   27 1
  47   25   26 1
  48   25   46 1
  49   26   47 1
  50   28   30 1
  51   29   48 1
  52   29   49 1
  53   29   50 1
  54   30   51 1
  55   30   52 1
  56   30   53 1

#	End of record

