#	Name: ASD01180081
#	Creating user name:	WinNT
#	Creation time:	15. 06. 2019 19:06

#	Modifying user name:	WinNT
#	Modification time:	15. 06. 2019 19:06

#	Program:	/corina/corina34_cracker 3.40 0067  02.08.2006

@<TRIPOS>MOLECULE
ASD01180081
  61   64    0    0    0
SMALL
NO_CHARGES


@<TRIPOS>ATOM
   1 C1             0.9397     1.6197     0.8839 C.2     
   2 C2             0.8015     0.1254     0.7462 C.3     
   3 C3             2.1908    -0.5090     0.6549 C.3     
   4 O4             2.0368     2.1254     0.9066 O.2     
   5 O5            -0.1561     2.3895     0.9756 O.3     
   6 C6             3.1567    -2.7340     0.4234 C.2     
   7 C7             3.0211    -4.2000     0.2884 C.ar    
   8 C8             4.1584    -5.0027     0.1869 C.ar    
   9 C9             4.0250    -6.3701     0.0616 C.ar    
  10 C10            2.7672    -6.9460     0.0359 C.ar    
  11 C11            1.6357    -6.1560     0.1360 C.ar    
  12 C12            1.7554    -4.7879     0.2676 C.ar    
  13 O13            4.2604    -2.2253     0.4463 O.2     
  14 N14            2.0565    -1.9617     0.5211 N.am    
  15 C15            2.6290    -8.4403    -0.1022 C.3     
  16 C16            2.3652    -9.0573     1.2728 C.3     
  17 C17            2.2450   -10.5902     1.2473 C.3     
  18 C18            3.0427   -10.5960     2.5620 C.3     
  19 C19            3.6368    -9.2495     2.1160 C.3     
  20 C20            2.1656   -10.4951     3.8116 C.3     
  21 C21            4.0743   -11.7226     2.6480 C.3     
  22 N22            1.5107    -8.7466    -0.9976 N.pl3   
  23 N23            3.1729    -8.4573    -4.2119 N.ar    
  24 C24            2.9504    -8.4221    -2.9216 C.ar    
  25 C25            1.7148    -8.7948    -2.3792 C.ar    
  26 C26            0.6984    -9.2111    -3.2175 C.ar    
  27 C27            0.9533    -9.2427    -4.6005 C.ar    
  28 C28           -0.0316    -9.6542    -5.5133 C.ar    
  29 C29            0.2502    -9.6719    -6.8467 C.ar    
  30 C30            1.5084    -9.2853    -7.3167 C.ar    
  31 C31            2.4851    -8.8811    -6.4569 C.ar    
  32 C32            2.2302    -8.8501    -5.0748 C.ar    
  33 F33            1.7602    -9.3131    -8.6437 F       
  34 F34           -0.6974   -10.0682    -7.7242 F       
  35 H35            0.2768    -0.2725     1.6148 H       
  36 H36            0.2366    -0.1056    -0.1569 H       
  37 H37            2.7156    -0.1111    -0.2136 H       
  38 H38            2.7558    -0.2780     1.5580 H       
  39 H39           -0.0172     3.3425     1.0625 H       
  40 H40            5.1408    -4.5543     0.2062 H       
  41 H41            4.9042    -6.9923    -0.0169 H       
  42 H42            0.6568    -6.6117     0.1153 H       
  43 H43            0.8715    -4.1728     0.3501 H       
  44 H44            1.1757    -2.3676     0.5029 H       
  45 H45            3.5490    -8.8536    -0.5154 H       
  46 H46            1.5543    -8.5646     1.8093 H       
  47 H47            1.2218   -10.9498     1.3558 H       
  48 H48            2.7723   -11.0557     0.4146 H       
  49 H49            4.5445    -9.3485     1.5207 H       
  50 H50            3.7371    -8.5269     2.9258 H       
  51 H51            1.4798   -11.3417     3.8434 H       
  52 H52            2.7967   -10.5050     4.7002 H       
  53 H53            1.5954    -9.5666     3.7812 H       
  54 H54            4.7912   -11.6219     1.8331 H       
  55 H55            4.5982   -11.6636     3.6020 H       
  56 H56            3.5686   -12.6851     2.5701 H       
  57 H57            0.6285    -8.9159    -0.6315 H       
  58 H58            3.7401    -8.0986    -2.2597 H       
  59 H59           -0.2633    -9.5038    -2.8226 H       
  60 H60           -1.0070    -9.9553    -5.1605 H       
  61 H61            3.4522    -8.5858    -6.8360 H       
@<TRIPOS>BOND
   1    1    2 1
   2    1    4 2
   3    1    5 1
   4    2    3 1
   5    2   35 1
   6    2   36 1
   7    3   14 1
   8    3   37 1
   9    3   38 1
  10    5   39 1
  11    6    7 1
  12    6   13 2
  13    6   14 am
  14    7    8 ar
  15    7   12 ar
  16    8    9 ar
  17    8   40 1
  18    9   10 ar
  19    9   41 1
  20   10   11 ar
  21   10   15 1
  22   11   12 ar
  23   11   42 1
  24   12   43 1
  25   14   44 1
  26   15   16 1
  27   15   22 1
  28   15   45 1
  29   16   17 1
  30   16   19 1
  31   16   46 1
  32   17   18 1
  33   17   47 1
  34   17   48 1
  35   18   19 1
  36   18   20 1
  37   18   21 1
  38   19   49 1
  39   19   50 1
  40   20   51 1
  41   20   52 1
  42   20   53 1
  43   21   54 1
  44   21   55 1
  45   21   56 1
  46   22   25 1
  47   22   57 1
  48   23   24 ar
  49   23   32 ar
  50   24   25 ar
  51   24   58 1
  52   25   26 ar
  53   26   27 ar
  54   26   59 1
  55   27   28 ar
  56   27   32 ar
  57   28   29 ar
  58   28   60 1
  59   29   30 ar
  60   29   34 1
  61   30   31 ar
  62   30   33 1
  63   31   32 ar
  64   31   61 1

#	End of record

