#	Name: ASD05513041
#	Creating user name:	WinNT
#	Creation time:	15. 06. 2019 21:01

#	Modifying user name:	WinNT
#	Modification time:	15. 06. 2019 21:01

#	Program:	/corina/corina34_cracker 3.40 0067  02.08.2006

@<TRIPOS>MOLECULE
ASD05513041
  29   31    0    0    0
SMALL
NO_CHARGES


@<TRIPOS>ATOM
   1 C1            -0.2088     1.1025    -0.9406 C.2     
   2 C2             0.0021    -0.0041     0.0020 C.2     
   3 C3             1.1412    -0.7444    -0.0622 C.2     
   4 C4             2.5216    -0.2570    -0.2597 C.ar    
   5 C5             3.3488    -1.3900    -0.2549 C.ar    
   6 N6             2.5723    -2.5295    -0.0691 N.am    
   7 C7             1.2702    -2.2211     0.0574 C.2     
   8 C8             3.0687     1.0136    -0.4310 C.ar    
   9 C9             4.4329     1.1544    -0.5967 C.ar    
  10 C10            5.2511     0.0375    -0.5923 C.ar    
  11 C11            4.7184    -1.2258    -0.4228 C.ar    
  12 O12            0.3608    -3.0082     0.2298 O.2     
  13 O13            0.5599     1.2653    -1.8691 O.2     
  14 C14           -1.3583     2.0144    -0.7643 C.ar    
  15 C15           -2.2516     1.8350     0.2943 C.ar    
  16 N16           -3.2756     2.6477     0.4509 N.ar    
  17 C17           -3.4997     3.6534    -0.3733 C.ar    
  18 C18           -2.6609     3.8989    -1.4465 C.ar    
  19 C19           -1.5675     3.0775    -1.6532 C.ar    
  20 Br20           1.9487     2.5372    -0.4372 Br      
  21 H21           -0.7474    -0.2298     0.7461 H       
  22 H22            2.9262    -3.4318    -0.0315 H       
  23 H23            4.8616     2.1367    -0.7302 H       
  24 H24            6.3168     0.1551    -0.7224 H       
  25 H25            5.3683    -2.0884    -0.4210 H       
  26 H26           -2.1013     1.0227     0.9899 H       
  27 H27           -4.3521     4.2956    -0.2080 H       
  28 H28           -2.8560     4.7257    -2.1134 H       
  29 H29           -0.8968     3.2463    -2.4826 H       
@<TRIPOS>BOND
   1    1    2 1
   2    1   13 2
   3    1   14 1
   4    2    3 2
   5    2   21 1
   6    3    4 1
   7    3    7 1
   8    4    5 ar
   9    4    8 ar
  10    5    6 1
  11    5   11 ar
  12    6    7 am
  13    6   22 1
  14    7   12 2
  15    8    9 ar
  16    8   20 1
  17    9   10 ar
  18    9   23 1
  19   10   11 ar
  20   10   24 1
  21   11   25 1
  22   14   15 ar
  23   14   19 ar
  24   15   16 ar
  25   15   26 1
  26   16   17 ar
  27   17   18 ar
  28   17   27 1
  29   18   19 ar
  30   18   28 1
  31   19   29 1

#	End of record

