#	Name: ASD03082260
#	Creating user name:	WinNT
#	Creation time:	15. 06. 2019 20:27

#	Modifying user name:	WinNT
#	Modification time:	15. 06. 2019 20:27

#	Program:	/corina/corina34_cracker 3.40 0067  02.08.2006

@<TRIPOS>MOLECULE
ASD03082260
  49   51    0    0    0
SMALL
NO_CHARGES


@<TRIPOS>ATOM
   1 N1             0.1710     1.4063    -0.5589 N.am    
   2 N2             0.0633     0.0151    -0.3988 N.2     
   3 C3             1.1340    -0.3806     0.2488 C.2     
   4 N4             1.9099     0.6760     0.5067 N.2     
   5 C5             1.3505     1.7669     0.0292 C.2     
   6 N6             1.4171    -1.6963     0.6106 N.pl3   
   7 C7             0.4705    -2.7005     0.3907 C.ar    
   8 C8            -0.8812    -2.3825     0.3346 C.ar    
   9 C9            -1.8165    -3.3751     0.1174 C.ar    
  10 C10           -1.4114    -4.6867    -0.0443 C.ar    
  11 C11           -0.0631    -5.0104     0.0112 C.ar    
  12 C12            0.8794    -4.0162     0.2224 C.ar    
  13 C13           -3.2817    -3.0277     0.0570 C.3     
  14 F14           -3.6360    -2.7288    -1.2630 F       
  15 F15           -4.0378    -4.1150     0.5079 F       
  16 F16           -3.5315    -1.9169     0.8699 F       
  17 C17            1.6235     5.5025     0.4117 C.ar    
  18 C18            1.0639     4.2331     0.3398 C.ar    
  19 C19            1.9004     3.1379     0.1132 C.ar    
  20 C20            3.2739     3.3720    -0.0320 C.ar    
  21 C21            3.7480     4.6636     0.0531 C.ar    
  22 N22            2.9287     5.6756     0.2682 N.ar    
  23 C23           -0.7091     2.2209    -1.1739 C.2     
  24 C24           -1.9254     1.6428    -1.8502 C.3     
  25 N25            0.8038     6.6039     0.6310 N.pl3   
  26 C26           -0.6417     6.4222     0.7849 C.3     
  27 O27           -0.5229     3.4147    -1.1831 O.2     
  28 C28           -2.7525     2.7734    -2.4655 C.3     
  29 O29            0.3335    -6.3005    -0.1475 O.3     
  30 C30            1.7368    -6.5610    -0.0786 C.3     
  31 H31            2.2712    -1.9150     1.0151 H       
  32 H32           -1.2005    -1.3585     0.4614 H       
  33 H33           -2.1453    -5.4608    -0.2137 H       
  34 H34            1.9296    -4.2655     0.2608 H       
  35 H35           -0.0007     4.0953     0.4576 H       
  36 H36            3.9529     2.5508    -0.2080 H       
  37 H37            4.8060     4.8502    -0.0577 H       
  38 H38           -1.6120     0.9537    -2.6344 H       
  39 H39           -2.5293     1.1084    -1.1169 H       
  40 H40            1.1890     7.4927     0.6822 H       
  41 H41           -1.0487     5.9666    -0.1178 H       
  42 H42           -0.8375     5.7739     1.6390 H       
  43 H43           -1.1144     7.3907     0.9479 H       
  44 H44           -3.6323     2.3553    -2.9546 H       
  45 H45           -3.0659     3.4626    -1.6813 H       
  46 H46           -2.1486     3.3078    -3.1988 H       
  47 H47            2.2495    -5.9989    -0.8592 H       
  48 H48            2.1155    -6.2561     0.8970 H       
  49 H49            1.9160    -7.6267    -0.2210 H       
@<TRIPOS>BOND
   1    1    2 1
   2    1    5 1
   3    1   23 am
   4    2    3 2
   5    3    4 1
   6    3    6 1
   7    4    5 2
   8    5   19 1
   9    6    7 1
  10    6   31 1
  11    7    8 ar
  12    7   12 ar
  13    8    9 ar
  14    8   32 1
  15    9   10 ar
  16    9   13 1
  17   10   11 ar
  18   10   33 1
  19   11   12 ar
  20   11   29 1
  21   12   34 1
  22   13   14 1
  23   13   15 1
  24   13   16 1
  25   17   18 ar
  26   17   22 ar
  27   17   25 1
  28   18   19 ar
  29   18   35 1
  30   19   20 ar
  31   20   21 ar
  32   20   36 1
  33   21   22 ar
  34   21   37 1
  35   23   24 1
  36   23   27 2
  37   24   28 1
  38   24   38 1
  39   24   39 1
  40   25   26 1
  41   25   40 1
  42   26   41 1
  43   26   42 1
  44   26   43 1
  45   28   44 1
  46   28   45 1
  47   28   46 1
  48   29   30 1
  49   30   47 1
  50   30   48 1
  51   30   49 1

#	End of record

