#	Name: ASD01811846
#	Creating user name:	WinNT
#	Creation time:	15. 06. 2019 19:27

#	Modifying user name:	WinNT
#	Modification time:	15. 06. 2019 19:27

#	Program:	/corina/corina34_cracker 3.40 0067  02.08.2006

@<TRIPOS>MOLECULE
ASD01811846
  67   71    0    0    0
SMALL
NO_CHARGES


@<TRIPOS>ATOM
   1 C1             0.3712     2.1429     0.1791 C.3     
   2 C2             0.2378     0.6641    -0.0709 C.2     
   3 C3             0.8865    -0.1982     0.7075 C.2     
   4 C4             1.7491     0.3458     1.7780 C.ar    
   5 C5             2.1232     1.6906     1.7179 C.ar    
   6 N6             1.7179     2.4768     0.6450 N.3     
   7 C7             1.8235     3.9056     0.9698 C.3     
   8 C8             2.1819    -0.4684     2.8296 C.ar    
   9 C9             2.9658     0.0432     3.8234 C.ar    
  10 C10            3.3378     1.3886     3.7969 C.ar    
  11 C11            2.9136     2.2269     2.7419 C.ar    
  12 C12            4.1742     1.9800     4.8513 C.2     
  13 N13            4.4786     3.2939     4.7432 N.am    
  14 C14            4.0207     4.0269     3.6935 C.2     
  15 N15            3.2833     3.5318     2.7467 N.2     
  16 O16            4.5773     1.3129     5.7866 O.2     
  17 C17            5.3091     3.9330     5.7670 C.3     
  18 C18            4.5259     5.0735     6.4201 C.3     
  19 C19            5.3931     5.7409     7.4894 C.3     
  20 C20            6.6620     6.2990     6.8417 C.3     
  21 C21            7.4452     5.1584     6.1885 C.3     
  22 C22            6.5779     4.4911     5.1193 C.3     
  23 O23            3.3408     4.5523     7.0251 O.3     
  24 C24            1.7797    -1.9202     2.8664 C.3     
  25 C25            0.4403    -2.0534     3.5442 C.ar    
  26 C26           -0.7242    -2.1092     2.7916 C.ar    
  27 C27           -1.9335    -2.2317     3.4546 C.ar    
  28 C28           -1.9402    -2.2943     4.8415 C.ar    
  29 N29           -0.8089    -2.2375     5.5243 N.ar    
  30 C30            0.3590    -2.1271     4.9210 C.ar    
  31 O31           -3.1194    -2.4144     5.5032 O.3     
  32 C32           -3.0632    -2.4703     6.8480 C.2     
  33 N33           -4.1978    -2.5895     7.5655 N.am    
  34 O34           -1.9895    -2.4131     7.4140 O.2     
  35 C35           -4.1366    -2.6502     9.0280 C.3     
  36 C36           -5.4923    -2.6583     6.8831 C.3     
  37 H37            0.1686     2.6821    -0.7463 H       
  38 H38           -0.3541     2.4452     0.9346 H       
  39 H39           -0.3824     0.3047    -0.8787 H       
  40 H40            0.7856    -1.2635     0.5620 H       
  41 H41            2.8741     4.1942     1.0020 H       
  42 H42            1.3091     4.4905     0.2073 H       
  43 H43            1.3655     4.0921     1.9412 H       
  44 H44            3.2980    -0.5929     4.6305 H       
  45 H45            4.2833     5.0734     3.6451 H       
  46 H46            5.5810     3.1983     6.5249 H       
  47 H47            4.2539     5.8082     5.6622 H       
  48 H48            4.8352     6.5535     7.9547 H       
  49 H49            5.6651     5.0063     8.2473 H       
  50 H50            6.3900     7.0337     6.0838 H       
  51 H51            7.2798     6.7745     7.6034 H       
  52 H52            8.3491     5.5560     5.7271 H       
  53 H53            7.7171     4.4238     6.9464 H       
  54 H54            7.1359     3.6785     4.6540 H       
  55 H55            6.3060     5.2257     4.3614 H       
  56 H56            2.7940     5.2213     7.4594 H       
  57 H57            1.7115    -2.3042     1.8485 H       
  58 H58            2.5256    -2.4900     3.4205 H       
  59 H59           -0.6881    -2.0578     1.7135 H       
  60 H60           -2.8592    -2.2776     2.9002 H       
  61 H61            1.2622    -2.0839     5.5115 H       
  62 H62           -3.0977    -2.5849     9.3512 H       
  63 H63           -4.7014    -1.8190     9.4501 H       
  64 H64           -4.5653    -3.5919     9.3708 H       
  65 H65           -5.7347    -3.6990     6.6680 H       
  66 H66           -6.2637    -2.2303     7.5232 H       
  67 H67           -5.4415    -2.0968     5.9502 H       
@<TRIPOS>BOND
   1    1    2 1
   2    1    6 1
   3    1   37 1
   4    1   38 1
   5    2    3 2
   6    2   39 1
   7    3    4 1
   8    3   40 1
   9    4    5 ar
  10    4    8 ar
  11    5    6 1
  12    5   11 ar
  13    6    7 1
  14    7   41 1
  15    7   42 1
  16    7   43 1
  17    8    9 ar
  18    8   24 1
  19    9   10 ar
  20    9   44 1
  21   10   11 ar
  22   10   12 1
  23   11   15 1
  24   12   13 am
  25   12   16 2
  26   13   14 1
  27   13   17 1
  28   14   15 2
  29   14   45 1
  30   17   18 1
  31   17   22 1
  32   17   46 1
  33   18   19 1
  34   18   23 1
  35   18   47 1
  36   19   20 1
  37   19   48 1
  38   19   49 1
  39   20   21 1
  40   20   50 1
  41   20   51 1
  42   21   22 1
  43   21   52 1
  44   21   53 1
  45   22   54 1
  46   22   55 1
  47   23   56 1
  48   24   25 1
  49   24   57 1
  50   24   58 1
  51   25   26 ar
  52   25   30 ar
  53   26   27 ar
  54   26   59 1
  55   27   28 ar
  56   27   60 1
  57   28   29 ar
  58   28   31 1
  59   29   30 ar
  60   30   61 1
  61   31   32 1
  62   32   33 am
  63   32   34 2
  64   33   35 1
  65   33   36 1
  66   35   62 1
  67   35   63 1
  68   35   64 1
  69   36   65 1
  70   36   66 1
  71   36   67 1

#	End of record

