#	Name: ASD01810274
#	Creating user name:	WinNT
#	Creation time:	15. 06. 2019 19:24

#	Modifying user name:	WinNT
#	Modification time:	15. 06. 2019 19:24

#	Program:	/corina/corina34_cracker 3.40 0067  02.08.2006

@<TRIPOS>MOLECULE
ASD01810274
  47   50    0    0    0
SMALL
NO_CHARGES


@<TRIPOS>ATOM
   1 C1             1.1608     2.2507    -0.5162 C.ar    
   2 C2             0.7836     0.9167    -0.5008 C.ar    
   3 C3             1.7249    -0.0809    -0.3479 C.ar    
   4 C4             3.0719     0.2478    -0.2072 C.ar    
   5 C5             3.4529     1.6004    -0.2235 C.ar    
   6 C6             2.4893     2.6001    -0.3786 C.ar    
   7 N7             4.0216    -0.7402    -0.0528 N.pl3   
   8 C8             5.3268    -0.4761     0.0869 C.2     
   9 C9             5.8203     0.8129     0.0870 C.2     
  10 C10            4.8804     1.9344    -0.0738 C.2     
  11 O11            5.2662     3.0903    -0.0809 O.2     
  12 C12            3.5837    -2.1382    -0.0406 C.3     
  13 C13            3.4403    -2.6321    -1.4571 C.ar    
  14 C14            4.5235    -2.5810    -2.3190 C.ar    
  15 C15            4.3962    -3.0335    -3.6193 C.ar    
  16 C16            3.1763    -3.5408    -4.0605 C.ar    
  17 C17            2.0905    -3.5893    -3.1881 C.ar    
  18 C18            2.2291    -3.1401    -1.8906 C.ar    
  19 C19            3.0332    -4.0275    -5.4549 C.ar    
  20 C20            7.2602     1.0616     0.2441 C.2     
  21 O21            7.7301     2.3251     0.2425 O.3     
  22 O22            8.0275     0.1279     0.3754 O.2     
  23 C23            1.8117    -4.5385    -5.9060 C.ar    
  24 C24            1.7267    -4.9794    -7.2129 C.ar    
  25 C25            2.8482    -4.9014    -8.0299 C.ar    
  26 N26            3.9894    -4.4126    -7.5723 N.ar    
  27 C27            4.1111    -3.9768    -6.3345 C.ar    
  28 F28            1.3405    -1.3760    -0.3342 F       
  29 F29            5.7055    -2.0880    -1.8887 F       
  30 F30            2.8553     3.9004    -0.3946 F       
  31 O31            2.7721    -5.3328    -9.3138 O.3     
  32 C32            3.9574    -5.2275   -10.1050 C.3     
  33 H33            0.4128     3.0196    -0.6408 H       
  34 H34           -0.2586     0.6552    -0.6093 H       
  35 H35            6.0163    -1.2991     0.2038 H       
  36 H36            4.3219    -2.7456     0.4830 H       
  37 H37            2.6233    -2.2137     0.4695 H       
  38 H38            5.2406    -2.9933    -4.2914 H       
  39 H39            1.1427    -3.9819    -3.5259 H       
  40 H40            1.3877    -3.1777    -1.2146 H       
  41 H41            8.6845     2.4387     0.3489 H       
  42 H42            0.9561    -4.5876    -5.2489 H       
  43 H43            0.7995    -5.3802    -7.5949 H       
  44 H44            5.0587    -3.5841    -5.9968 H       
  45 H45            4.2627    -4.1829   -10.1646 H       
  46 H46            4.7538    -5.8132    -9.6460 H       
  47 H47            3.7596    -5.6061   -11.1078 H       
@<TRIPOS>BOND
   1    1    2 ar
   2    1    6 ar
   3    1   33 1
   4    2    3 ar
   5    2   34 1
   6    3    4 ar
   7    3   28 1
   8    4    5 ar
   9    4    7 1
  10    5    6 ar
  11    5   10 1
  12    6   30 1
  13    7    8 1
  14    7   12 1
  15    8    9 2
  16    8   35 1
  17    9   10 1
  18    9   20 1
  19   10   11 2
  20   12   13 1
  21   12   36 1
  22   12   37 1
  23   13   14 ar
  24   13   18 ar
  25   14   15 ar
  26   14   29 1
  27   15   16 ar
  28   15   38 1
  29   16   17 ar
  30   16   19 1
  31   17   18 ar
  32   17   39 1
  33   18   40 1
  34   19   23 ar
  35   19   27 ar
  36   20   21 1
  37   20   22 2
  38   21   41 1
  39   23   24 ar
  40   23   42 1
  41   24   25 ar
  42   24   43 1
  43   25   26 ar
  44   25   31 1
  45   26   27 ar
  46   27   44 1
  47   31   32 1
  48   32   45 1
  49   32   46 1
  50   32   47 1

#	End of record

