#	Name: ASD01940578
#	Creating user name:	WinNT
#	Creation time:	15. 06. 2019 20:12

#	Modifying user name:	WinNT
#	Modification time:	15. 06. 2019 20:12

#	Program:	/corina/corina34_cracker 3.40 0067  02.08.2006

@<TRIPOS>MOLECULE
ASD01940578
  45   47    0    0    0
SMALL
NO_CHARGES


@<TRIPOS>ATOM
   1 C1             0.8129     1.9773     2.9539 C.ar    
   2 C2             0.7277     0.6611     3.3872 C.ar    
   3 C3             0.7038    -0.3733     2.4600 C.ar    
   4 C4             0.7652    -0.0924     1.1086 C.ar    
   5 C5             0.8501     1.2169     0.6755 C.ar    
   6 C6             0.8739     2.2549     1.5973 C.ar    
   7 N7             0.6665     0.3772     4.7533 N.am    
   8 S8            -0.4280    -0.7282     5.3211 S.o2    
   9 *9             0.0312    -2.3385     4.6340 Du      
  10 O10           -0.2187    -0.8161     6.7239 O.2     
  11 O11           -1.6800    -0.3871     4.7420 O.2     
  12 O12            0.9569     3.5419     1.1698 O.3     
  13 C13            2.1920     4.0534     0.9202 C.ar    
  14 C14            3.3086     3.2325     0.9809 C.ar    
  15 C15            4.5665     3.7512     0.7272 C.ar    
  16 C16            4.7162     5.0908     0.4118 C.ar    
  17 C17            3.6041     5.9189     0.3494 C.ar    
  18 C18            2.3362     5.3983     0.5982 C.ar    
  19 N19            3.7558     7.2740     0.0312 N.pl3   
  20 C20            4.9963     7.7570    -0.3976 C.ar    
  21 C21            5.7191     7.0625    -1.3586 C.ar    
  22 C22            6.9441     7.5418    -1.7803 C.ar    
  23 C23            7.4522     8.7125    -1.2465 C.ar    
  24 C24            6.7361     9.4078    -0.2886 C.ar    
  25 C25            5.5062     8.9372     0.1333 C.ar    
  26 F26            4.8040     9.6192     1.0644 F       
  27 F27            5.6512     2.9481     0.7879 F       
  28 I28            9.3110     9.4339    -1.8898 I       
  29 N29            1.2074     6.2308     0.5297 N.am    
  30 S30            0.3051     6.5158     1.8887 S.o2    
  31 *31            1.3594     7.4155     3.0529 Du      
  32 O32           -0.7263     7.4146     1.5043 O.2     
  33 O33            0.0514     5.2467     2.4753 O.2     
  34 H34            0.8272     2.7836     3.6724 H       
  35 H35            0.6375    -1.3976     2.7958 H       
  36 H36            0.7472    -0.8978     0.3893 H       
  37 H37            0.8983     1.4332    -0.3815 H       
  38 H38            1.2652     0.8275     5.3696 H       
  39 H39            3.1963     2.1869     1.2270 H       
  40 H40            5.6994     5.4919     0.2144 H       
  41 H41            3.0005     7.8777     0.1083 H       
  42 H42            5.3240     6.1480    -1.7757 H       
  43 H43            7.5061     7.0016    -2.5277 H       
  44 H44            7.1359    10.3210     0.1268 H       
  45 H45            0.9562     6.6389    -0.3137 H       
@<TRIPOS>BOND
   1    1    2 ar
   2    1    6 ar
   3    1   34 1
   4    2    3 ar
   5    2    7 1
   6    3    4 ar
   7    3   35 1
   8    4    5 ar
   9    4   36 1
  10    5    6 ar
  11    5   37 1
  12    6   12 1
  13    7    8 am
  14    7   38 1
  15    8    9 1
  16    8   10 2
  17    8   11 2
  18   12   13 1
  19   13   14 ar
  20   13   18 ar
  21   14   15 ar
  22   14   39 1
  23   15   16 ar
  24   15   27 1
  25   16   17 ar
  26   16   40 1
  27   17   18 ar
  28   17   19 1
  29   18   29 1
  30   19   20 1
  31   19   41 1
  32   20   21 ar
  33   20   25 ar
  34   21   22 ar
  35   21   42 1
  36   22   23 ar
  37   22   43 1
  38   23   24 ar
  39   23   28 1
  40   24   25 ar
  41   24   44 1
  42   25   26 1
  43   29   30 am
  44   29   45 1
  45   30   31 1
  46   30   32 2
  47   30   33 2

#	End of record

