#	Name: ASD01680015
#	Creating user name:	WinNT
#	Creation time:	15. 06. 2019 19:22

#	Modifying user name:	WinNT
#	Modification time:	15. 06. 2019 19:22

#	Program:	/corina/corina34_cracker 3.40 0067  02.08.2006

@<TRIPOS>MOLECULE
ASD01680015
  95   97    0    0    0
SMALL
NO_CHARGES


@<TRIPOS>ATOM
   1 C1            -0.0820     1.2540     0.5125 C.ar    
   2 C2             0.0053     0.0161    -0.1085 C.ar    
   3 C3            -1.1147    -0.5491    -0.6901 C.ar    
   4 C4            -2.3266     0.1146    -0.6572 C.ar    
   5 C5            -2.4258     1.3535    -0.0388 C.ar    
   6 C6            -1.3023     1.9251     0.5538 C.ar    
   7 N7             1.0528     1.8249     1.1015 N.pl3   
   8 S8            -1.4207     3.4972     1.3405 S.3     
   9 C9            -1.8494     3.0669     3.0498 C.3     
  10 C10           -1.9906     4.3459     3.8776 C.3     
  11 N11           -2.3378     3.9974     5.2618 N.3     
  12 N12           -3.6547     2.0252    -0.0062 N.am    
  13 C13           -4.8057     1.3286    -0.0873 C.2     
  14 C14           -6.1026     2.0261     0.0443 C.ar    
  15 O15           -4.7774     0.1269    -0.2686 O.2     
  16 C16           -7.2931     1.3070    -0.0394 C.ar    
  17 C17           -8.5127     1.9690     0.0852 C.ar    
  18 C18           -8.5374     3.3495     0.2933 C.ar    
  19 C19           -7.3512     4.0610     0.3755 C.ar    
  20 C20           -6.1360     3.4054     0.2583 C.ar    
  21 C21           -9.7789     1.2110    -0.0033 C.2     
  22 N22          -10.9581     1.8523     0.1174 N.am    
  23 O23           -9.7564     0.0091    -0.1849 O.2     
  24 C24          -12.1574     1.1570    -0.0842 C.ar    
  25 C25          -12.1760     0.0178    -0.8774 C.ar    
  26 C26          -13.3586    -0.6691    -1.0771 C.ar    
  27 C27          -14.5293    -0.2263    -0.4892 C.ar    
  28 C28          -14.5227     0.9111     0.3055 C.ar    
  29 C29          -13.3324     1.6041     0.5154 C.ar    
  30 S30          -13.3163     3.0489     1.5239 S.3     
  31 C31          -12.9833     2.3870     3.1797 C.3     
  32 C32          -12.9372     3.5364     4.1886 C.3     
  33 N33          -12.6676     3.0004     5.5295 N.3     
  34 N34          -15.7091     1.3585     0.8997 N.pl3   
  35 C35           -1.0134    -1.8938    -1.3630 C.3     
  36 C36            0.4240    -2.4082    -1.2609 C.3     
  37 C37           -1.9584    -2.8809    -0.6749 C.3     
  38 C38           -1.4028    -1.7575    -2.8363 C.3     
  39 C39          -13.3723    -1.9051    -1.9391 C.3     
  40 C40          -12.4302    -2.9531    -1.3432 C.3     
  41 C41          -14.7928    -2.4706    -1.9973 C.3     
  42 C42          -12.9079    -1.5465    -3.3522 C.3     
  43 O43           -7.3796     5.4049     0.5773 O.3     
  44 C44           -6.1204     6.0764     0.6520 C.3     
  45 C45           -6.3525     7.5713     0.8806 C.3     
  46 N46           -6.9797     7.7744     2.1933 N.3     
  47 H47            0.9499    -0.5067    -0.1378 H       
  48 H48           -3.1979    -0.3313    -1.1138 H       
  49 H49            1.9010     1.3550     1.0757 H       
  50 H50            0.9907     2.6902     1.5353 H       
  51 H51           -2.7925     2.5206     3.0613 H       
  52 H52           -1.0632     2.4435     3.4756 H       
  53 H53           -1.0475     4.8922     3.8661 H       
  54 H54           -2.7768     4.9693     3.4517 H       
  55 H55           -1.6566     3.3672     5.6577 H       
  56 H56           -2.4368     4.8258     5.8292 H       
  57 H57           -3.6773     2.9915     0.0748 H       
  58 H58           -7.2705     0.2393    -0.2008 H       
  59 H59           -9.4823     3.8634     0.3900 H       
  60 H60           -5.2137     3.9636     0.3232 H       
  61 H61          -10.9764     2.7953     0.3438 H       
  62 H62          -11.2647    -0.3322    -1.3395 H       
  63 H63          -15.4507    -0.7666    -0.6493 H       
  64 H64          -13.7740     1.6904     3.4584 H       
  65 H65          -12.0252     1.8672     3.1773 H       
  66 H66          -12.1465     4.2330     3.9099 H       
  67 H67          -13.8953     4.0563     4.1910 H       
  68 H68          -11.8162     2.4590     5.5380 H       
  69 H69          -12.6323     3.7406     6.2143 H       
  70 H70          -16.5366     0.8733     0.7559 H       
  71 H71          -15.7034     2.1538     1.4551 H       
  72 H72            0.7014    -2.5052    -0.2112 H       
  73 H73            0.4973    -3.3807    -1.7475 H       
  74 H74            1.0972    -1.7049    -1.7511 H       
  75 H75           -2.9823    -2.5145    -0.7476 H       
  76 H76           -1.8851    -3.8535    -1.1615 H       
  77 H77           -1.6809    -2.9780     0.3747 H       
  78 H78           -0.7295    -1.0543    -3.3265 H       
  79 H79           -1.3295    -2.7301    -3.3229 H       
  80 H80           -2.4268    -1.3911    -2.9090 H       
  81 H81          -12.7610    -3.2085    -0.3365 H       
  82 H82          -12.4401    -3.8470    -1.9667 H       
  83 H83          -11.4182    -2.5502    -1.3018 H       
  84 H84          -15.4640    -1.7240    -2.4218 H       
  85 H85          -14.8027    -3.3646    -2.6208 H       
  86 H86          -15.1236    -2.7261    -0.9906 H       
  87 H87          -11.8959    -1.1437    -3.3108 H       
  88 H88          -12.9178    -2.4405    -3.9757 H       
  89 H89          -13.5791    -0.8000    -3.7767 H       
  90 H90           -5.5395     5.6683     1.4791 H       
  91 H91           -5.5756     5.9318    -0.2809 H       
  92 H92           -5.3977     8.0962     0.8490 H       
  93 H93           -7.0072     7.9608     0.1009 H       
  94 H94           -7.1435     8.7546     2.3681 H       
  95 H95           -7.8354     7.2454     2.2709 H       
@<TRIPOS>BOND
   1    1    2 ar
   2    1    7 1
   3    1    6 ar
   4    2    3 ar
   5    2   47 1
   6    3    4 ar
   7    3   35 1
   8    4    5 ar
   9    4   48 1
  10    5    6 ar
  11    5   12 1
  12    6    8 1
  13    7   49 1
  14    7   50 1
  15    8    9 1
  16    9   10 1
  17    9   51 1
  18    9   52 1
  19   10   11 1
  20   10   53 1
  21   10   54 1
  22   11   55 1
  23   11   56 1
  24   12   13 am
  25   12   57 1
  26   13   14 1
  27   13   15 2
  28   14   16 ar
  29   14   20 ar
  30   16   17 ar
  31   16   58 1
  32   17   18 ar
  33   17   21 1
  34   18   19 ar
  35   18   59 1
  36   19   20 ar
  37   19   43 1
  38   20   60 1
  39   21   22 am
  40   21   23 2
  41   22   24 1
  42   22   61 1
  43   24   25 ar
  44   24   29 ar
  45   25   26 ar
  46   25   62 1
  47   26   27 ar
  48   26   39 1
  49   27   28 ar
  50   27   63 1
  51   28   29 ar
  52   28   34 1
  53   29   30 1
  54   30   31 1
  55   31   32 1
  56   31   64 1
  57   31   65 1
  58   32   33 1
  59   32   66 1
  60   32   67 1
  61   33   68 1
  62   33   69 1
  63   34   70 1
  64   34   71 1
  65   35   36 1
  66   35   37 1
  67   35   38 1
  68   36   72 1
  69   36   73 1
  70   36   74 1
  71   37   75 1
  72   37   76 1
  73   37   77 1
  74   38   78 1
  75   38   79 1
  76   38   80 1
  77   39   40 1
  78   39   41 1
  79   39   42 1
  80   40   81 1
  81   40   82 1
  82   40   83 1
  83   41   84 1
  84   41   85 1
  85   41   86 1
  86   42   87 1
  87   42   88 1
  88   42   89 1
  89   43   44 1
  90   44   45 1
  91   44   90 1
  92   44   91 1
  93   45   46 1
  94   45   92 1
  95   45   93 1
  96   46   94 1
  97   46   95 1

#	End of record

