#	Name: ASD03320149
#	Creating user name:	WinNT
#	Creation time:	15. 06. 2019 20:36

#	Modifying user name:	WinNT
#	Modification time:	15. 06. 2019 20:36

#	Program:	/corina/corina34_cracker 3.40 0067  02.08.2006

@<TRIPOS>MOLECULE
ASD03320149
  56   59    0    0    0
SMALL
NO_CHARGES


@<TRIPOS>ATOM
   1 C1            -0.0181     1.4708     0.0148 C.2     
   2 C2             0.0015    -0.0045     0.0117 C.ar    
   3 C3             1.2199    -0.6985     0.0012 C.ar    
   4 C4             1.1859    -2.0873    -0.0008 C.ar    
   5 C5            -0.0581    -2.7384     0.0078 C.ar    
   6 N6            -1.1859    -2.0441     0.0171 N.ar    
   7 C7            -1.1925    -0.7273     0.0251 C.ar    
   8 O8             1.0268     2.0927     0.0082 O.2     
   9 N9            -1.1942     2.1291     0.0193 N.am    
  10 N10           -0.1063    -4.1216     0.0059 N.3     
  11 C11           -1.5003    -4.6017     0.0159 C.3     
  12 C12           -1.6789    -5.5128    -1.2168 C.3     
  13 C13           -0.2265    -5.9521    -1.5400 C.3     
  14 C14            0.5733    -4.6738    -1.1853 C.3     
  15 O15           -2.4894    -6.6449    -0.8951 O.3     
  16 N16            4.4393    -3.6072    -0.5437 N.pl3   
  17 N17            3.9639    -4.3677     0.5316 N.2     
  18 C18            2.7742    -3.9331     0.8535 C.2     
  19 C19            2.4466    -2.8717    -0.0122 C.2     
  20 C20            3.4977    -2.6958    -0.8639 C.2     
  21 C21            5.7375    -3.7692    -1.2029 C.3     
  22 C22            6.8537    -3.6773    -0.1605 C.3     
  23 O23            8.1201    -3.8352    -0.8036 O.3     
  24 C24           -1.2149     3.5248     0.1327 C.ar    
  25 C25           -2.1832     4.2617    -0.5363 C.ar    
  26 C26           -2.2033     5.6379    -0.4236 C.ar    
  27 C27           -1.2565     6.2841     0.3576 C.ar    
  28 C28           -0.2886     5.5486     1.0258 C.ar    
  29 C29           -0.2707     4.1720     0.9187 C.ar    
  30 O30           -1.2769     7.6392     0.4681 O.3     
  31 C31           -0.2723     8.2384     1.2889 C.3     
  32 F32           -0.3874     7.7529     2.5959 F       
  33 F33            0.9931     7.9215     0.7834 F       
  34 Cl34          -0.4874    10.0285     1.2916 Cl      
  35 H35            2.1601    -0.1673    -0.0055 H       
  36 H36           -2.1346    -0.1994     0.0378 H       
  37 H37           -2.0262     1.6362    -0.0560 H       
  38 H38           -1.6906    -5.1689     0.9270 H       
  39 H39           -2.1844    -3.7554    -0.0464 H       
  40 H40           -2.1071    -4.9550    -2.0495 H       
  41 H41            0.0771    -6.7895    -0.9117 H       
  42 H42           -0.1192    -6.1994    -2.5961 H       
  43 H43            0.5343    -3.9610    -2.0090 H       
  44 H44            1.6071    -4.9262    -0.9495 H       
  45 H45           -2.6324    -7.2495    -1.6361 H       
  46 H46            2.1505    -4.3208     1.6455 H       
  47 H47            3.5640    -1.9599    -1.6517 H       
  48 H48            5.7773    -4.7419    -1.6930 H       
  49 H49            5.8684    -2.9824    -1.9458 H       
  50 H50            6.8140    -2.7045     0.3296 H       
  51 H51            6.7228    -4.4641     0.5823 H       
  52 H52            8.8754    -3.7879    -0.2017 H       
  53 H53           -2.9202     3.7588    -1.1448 H       
  54 H54           -2.9562     6.2112    -0.9441 H       
  55 H55            0.4485     6.0524     1.6336 H       
  56 H56            0.4802     3.5991     1.4426 H       
@<TRIPOS>BOND
   1    1    2 1
   2    1    8 2
   3    1    9 am
   4    2    3 ar
   5    2    7 ar
   6    3    4 ar
   7    3   35 1
   8    4    5 ar
   9    4   19 1
  10    5    6 ar
  11    5   10 1
  12    6    7 ar
  13    7   36 1
  14    9   24 1
  15    9   37 1
  16   10   11 1
  17   10   14 1
  18   11   12 1
  19   11   38 1
  20   11   39 1
  21   12   13 1
  22   12   15 1
  23   12   40 1
  24   13   14 1
  25   13   41 1
  26   13   42 1
  27   14   43 1
  28   14   44 1
  29   15   45 1
  30   16   17 1
  31   16   20 1
  32   16   21 1
  33   17   18 2
  34   18   19 1
  35   18   46 1
  36   19   20 2
  37   20   47 1
  38   21   22 1
  39   21   48 1
  40   21   49 1
  41   22   23 1
  42   22   50 1
  43   22   51 1
  44   23   52 1
  45   24   25 ar
  46   24   29 ar
  47   25   26 ar
  48   25   53 1
  49   26   27 ar
  50   26   54 1
  51   27   28 ar
  52   27   30 1
  53   28   29 ar
  54   28   55 1
  55   29   56 1
  56   30   31 1
  57   31   32 1
  58   31   33 1
  59   31   34 1

#	End of record

