#	Name: ASD03091853
#	Creating user name:	WinNT
#	Creation time:	15. 06. 2019 20:31

#	Modifying user name:	WinNT
#	Modification time:	15. 06. 2019 20:31

#	Program:	/corina/corina34_cracker 3.40 0067  02.08.2006

@<TRIPOS>MOLECULE
ASD03091853
  45   49    0    0    0
SMALL
NO_CHARGES


@<TRIPOS>ATOM
   1 N1            -0.0481     1.3036    -0.4651 N.pl3   
   2 C2            -0.0046    -0.0165    -0.1104 C.2     
   3 C3             1.2626    -0.4610    -0.1583 C.2     
   4 C4             2.0952     0.6655    -0.5772 C.ar    
   5 C5             3.4736     0.8304    -0.8064 C.ar    
   6 C6             3.9543     2.0699    -1.2092 C.ar    
   7 C7             3.0832     3.1328    -1.3831 C.ar    
   8 C8             1.7309     2.9816    -1.1611 C.ar    
   9 C9             1.2214     1.7515    -0.7571 C.ar    
  10 C10            4.4034    -0.3069    -0.6195 C.ar    
  11 C11            5.7675    -0.1289    -0.8504 C.ar    
  12 C12            6.6253    -1.1984    -0.6724 C.ar    
  13 C13            6.0900    -2.4187    -0.2672 C.ar    
  14 C14            4.7224    -2.5233    -0.0559 C.ar    
  15 N15            3.9314    -1.4843    -0.2287 N.ar    
  16 O16            6.8981    -3.4954    -0.0811 O.3     
  17 C17           10.5640    -4.1826     0.3561 C.3     
  18 C18            9.0563    -4.3327     0.6149 C.3     
  19 C19            8.3053    -3.2795    -0.2048 C.3     
  20 C20            8.7095    -3.3862    -1.6780 C.3     
  21 C21           10.2407    -3.3003    -1.7814 C.3     
  22 C22           10.7059    -2.1008    -0.9240 C.3     
  23 C23           10.9196    -2.6838     0.4884 C.3     
  24 N24           10.7971    -4.4881    -1.0805 N.3     
  25 H25           -0.8532     1.8429    -0.5086 H       
  26 H26           -0.8613    -0.6129     0.1669 H       
  27 H27            1.6018    -1.4607     0.0699 H       
  28 H28            5.0109     2.2055    -1.3870 H       
  29 H29            3.4682     4.0921    -1.6961 H       
  30 H30            1.0652     3.8204    -1.3012 H       
  31 H31            6.1485     0.8317    -1.1644 H       
  32 H32            7.6860    -1.0902    -0.8441 H       
  33 H33            4.3019    -3.4671     0.2584 H       
  34 H34           11.1590    -4.8077     1.0219 H       
  35 H35            8.7316    -5.3288     0.3144 H       
  36 H36            8.8513    -4.1844     1.6752 H       
  37 H37            8.5537    -2.2855     0.1674 H       
  38 H38            8.3693    -4.3398    -2.0817 H       
  39 H39            8.2591    -2.5683    -2.2403 H       
  40 H40           10.5787    -3.2240    -2.8148 H       
  41 H41           11.6405    -1.6964    -1.3128 H       
  42 H42            9.9371    -1.3285    -0.9032 H       
  43 H43           10.2558    -2.1981     1.2037 H       
  44 H44           11.9592    -2.5662     0.7941 H       
  45 H45           11.7821    -4.5928    -1.2727 H       
@<TRIPOS>BOND
   1    1    2 1
   2    1    9 1
   3    1   25 1
   4    2    3 2
   5    2   26 1
   6    3    4 1
   7    3   27 1
   8    4    5 ar
   9    4    9 ar
  10    5    6 ar
  11    5   10 1
  12    6    7 ar
  13    6   28 1
  14    7    8 ar
  15    7   29 1
  16    8    9 ar
  17    8   30 1
  18   10   11 ar
  19   10   15 ar
  20   11   12 ar
  21   11   31 1
  22   12   13 ar
  23   12   32 1
  24   13   14 ar
  25   13   16 1
  26   14   15 ar
  27   14   33 1
  28   16   19 1
  29   17   18 1
  30   17   23 1
  31   17   24 1
  32   17   34 1
  33   18   19 1
  34   18   35 1
  35   18   36 1
  36   19   20 1
  37   19   37 1
  38   20   21 1
  39   20   38 1
  40   20   39 1
  41   21   22 1
  42   21   24 1
  43   21   40 1
  44   22   23 1
  45   22   41 1
  46   22   42 1
  47   23   43 1
  48   23   44 1
  49   24   45 1

#	End of record

