#	Name: ASD05720230
#	Creating user name:	WinNT
#	Creation time:	15. 06. 2019 21:02

#	Modifying user name:	WinNT
#	Modification time:	15. 06. 2019 21:02

#	Program:	/corina/corina34_cracker 3.40 0067  02.08.2006

@<TRIPOS>MOLECULE
ASD05720230
  43   47    0    0    0
SMALL
NO_CHARGES


@<TRIPOS>ATOM
   1 O1            -0.0161     1.3334     0.0094 O.3     
   2 C2             0.0021    -0.0041     0.0020 C.2     
   3 N3             1.2348    -0.5293    -0.0126 N.am    
   4 C4             2.2183     0.5645    -0.0161 C.3     
   5 C5             1.3508     1.8379    -0.0010 C.3     
   6 O6            -1.0069    -0.6808     0.0087 O.2     
   7 C7             1.6043     2.6745    -1.2567 C.3     
   8 C8             3.0997    -3.5829    -0.0460 C.2     
   9 N9             2.7934    -2.2820    -0.0360 N.2     
  10 C10            1.5348    -1.8851    -0.0223 C.2     
  11 C11            0.4949    -2.8369    -0.0171 C.2     
  12 C12            0.8013    -4.1541    -0.0267 C.2     
  13 N13            2.1145    -4.5344    -0.0412 N.pl3   
  14 N14            2.7295    -5.7913    -0.0540 N.2     
  15 C15            4.0305    -5.6367    -0.0661 C.2     
  16 C16            4.3229    -4.2670    -0.0674 C.2     
  17 C17            5.6705    -3.6565    -0.0859 C.ar    
  18 C18            6.6415    -4.0801     0.8242 C.ar    
  19 C19            7.8949    -3.5125     0.8072 C.ar    
  20 C20            8.1963    -2.5127    -0.1209 C.ar    
  21 C21            7.2249    -2.0894    -1.0316 C.ar    
  22 C22            5.9732    -2.6607    -1.0174 C.ar    
  23 C23            9.5419    -1.9027    -0.1391 C.2     
  24 N24           10.5386    -2.2119     0.6614 N.2     
  25 C25           11.6008    -1.4576     0.3554 C.2     
  26 C26           11.2666    -0.6472    -0.6690 C.2     
  27 N27            9.9652    -0.9260    -0.9933 N.pl3   
  28 H28            2.8457     0.5180     0.8740 H       
  29 H29            2.8286     0.5277    -0.9184 H       
  30 H30            1.5485     2.4243     0.8964 H       
  31 H31            0.9328     3.5331    -1.2629 H       
  32 H32            2.6376     3.0213    -1.2597 H       
  33 H33            1.4229     2.0651    -2.1420 H       
  34 H34           -0.5366    -2.5172    -0.0052 H       
  35 H35            0.0176    -4.8972    -0.0225 H       
  36 H36            4.7582    -6.4346    -0.0775 H       
  37 H37            6.4084    -4.8530     1.5417 H       
  38 H38            8.6455    -3.8396     1.5115 H       
  39 H39            7.4577    -1.3165    -1.7491 H       
  40 H40            5.2234    -2.3362    -1.7237 H       
  41 H41           12.5624    -1.4920     0.8459 H       
  42 H42           11.9055     0.0809    -1.1465 H       
  43 H43            9.4431    -0.5075    -1.6955 H       
@<TRIPOS>BOND
   1    1    2 1
   2    1    5 1
   3    2    3 am
   4    2    6 2
   5    3    4 1
   6    3   10 1
   7    4    5 1
   8    4   28 1
   9    4   29 1
  10    5    7 1
  11    5   30 1
  12    7   31 1
  13    7   32 1
  14    7   33 1
  15    8    9 1
  16    8   13 1
  17    8   16 2
  18    9   10 2
  19   10   11 1
  20   11   12 2
  21   11   34 1
  22   12   13 1
  23   12   35 1
  24   13   14 1
  25   14   15 2
  26   15   16 1
  27   15   36 1
  28   16   17 1
  29   17   18 ar
  30   17   22 ar
  31   18   19 ar
  32   18   37 1
  33   19   20 ar
  34   19   38 1
  35   20   21 ar
  36   20   23 1
  37   21   22 ar
  38   21   39 1
  39   22   40 1
  40   23   24 2
  41   23   27 1
  42   24   25 1
  43   25   26 2
  44   25   41 1
  45   26   27 1
  46   26   42 1
  47   27   43 1

#	End of record

