#	Name: ASD09116099
#	Creating user name:	WinNT
#	Creation time:	15. 06. 2019 21:20

#	Modifying user name:	WinNT
#	Modification time:	15. 06. 2019 21:20

#	Program:	/corina/corina34_cracker 3.40 0067  02.08.2006

@<TRIPOS>MOLECULE
ASD09116099
  50   54    0    0    0
SMALL
NO_CHARGES


@<TRIPOS>ATOM
   1 C1             5.7209    -1.2018     1.3103 C.ar    
   2 N2             4.7086    -2.1291     1.0738 N.pl3   
   3 N3             3.4497    -1.8749     0.5058 N.2     
   4 C4             2.8097    -3.0186     0.4648 C.2     
   5 N5             3.5917    -3.9779     0.9736 N.2     
   6 C6             4.7447    -3.4618     1.3416 C.2     
   7 N7             5.8004    -4.1497     1.9083 N.pl3   
   8 N8             1.5189    -3.2054    -0.0297 N.pl3   
   9 C9             5.5433     0.1483     0.9749 C.ar    
  10 N10            6.8668    -1.5805     1.8616 N.ar    
  11 C11            7.8305    -0.7047     2.0886 C.ar    
  12 N12            7.7135     0.5658     1.7882 N.ar    
  13 C13            6.5822     1.0494     1.2279 C.ar    
  14 C14            0.9865    -4.4943    -0.1243 C.ar    
  15 C15           -0.3845    -4.6874    -0.0023 C.ar    
  16 C16           -0.9154    -5.9609    -0.1047 C.ar    
  17 C17           -0.0865    -7.0376    -0.3271 C.ar    
  18 C18            1.2947    -6.8624    -0.4331 C.ar    
  19 C19            1.8273    -5.5740    -0.3451 C.ar    
  20 C20            6.2636     2.3594     0.8370 C.2     
  21 C21            5.0608     2.5267     0.3103 C.2     
  22 S22            4.1892     1.0038     0.2515 S.3     
  23 C23            7.2298     3.5033     1.0067 C.3     
  24 C24           -0.6626    -8.4263    -0.4857 C.3     
  25 C25           -0.9968    -8.9955     0.8937 C.3     
  26 C26            0.1963    -9.7614     1.4550 C.3     
  27 C27            1.4323    -8.8641     1.5212 C.3     
  28 N28            2.2166    -9.0281     0.2824 N.am    
  29 C29            2.1896    -8.0165    -0.6125 C.2     
  30 O30            2.9181    -8.0607    -1.5845 O.2     
  31 Cl31           9.3078    -1.2584     2.8130 Cl      
  32 H32            5.7277    -5.1037     2.0680 H       
  33 H33            6.6142    -3.6786     2.1464 H       
  34 H34            0.9908    -2.4408    -0.3080 H       
  35 H35           -1.0353    -3.8435     0.1727 H       
  36 H36           -1.9807    -6.1106    -0.0097 H       
  37 H37            2.8921    -5.4205    -0.4403 H       
  38 H38            4.6696     3.4712    -0.0379 H       
  39 H39            7.8468     3.5935     0.1127 H       
  40 H40            6.6742     4.4286     1.1596 H       
  41 H41            7.8673     3.3153     1.8706 H       
  42 H42           -1.5694    -8.3774    -1.0886 H       
  43 H43            0.0676    -9.0692    -0.9774 H       
  44 H44           -1.2510    -8.1785     1.5690 H       
  45 H45           -1.8500    -9.6685     0.8091 H       
  46 H46           -0.0440   -10.1158     2.4574 H       
  47 H47            0.4077   -10.6169     0.8135 H       
  48 H48            1.1224    -7.8239     1.6211 H       
  49 H49            2.0425    -9.1473     2.3788 H       
  50 H50            2.7323    -9.8327     0.1165 H       
@<TRIPOS>BOND
   1    1    2 1
   2    1    9 ar
   3    1   10 ar
   4    2    3 1
   5    2    6 1
   6    3    4 2
   7    4    5 1
   8    4    8 1
   9    5    6 2
  10    6    7 1
  11    7   32 1
  12    7   33 1
  13    8   14 1
  14    8   34 1
  15    9   13 ar
  16    9   22 1
  17   10   11 ar
  18   11   12 ar
  19   11   31 1
  20   12   13 ar
  21   13   20 1
  22   14   15 ar
  23   14   19 ar
  24   15   16 ar
  25   15   35 1
  26   16   17 ar
  27   16   36 1
  28   17   18 ar
  29   17   24 1
  30   18   19 ar
  31   18   29 1
  32   19   37 1
  33   20   21 2
  34   20   23 1
  35   21   22 1
  36   21   38 1
  37   23   39 1
  38   23   40 1
  39   23   41 1
  40   24   25 1
  41   24   42 1
  42   24   43 1
  43   25   26 1
  44   25   44 1
  45   25   45 1
  46   26   27 1
  47   26   46 1
  48   26   47 1
  49   27   28 1
  50   27   48 1
  51   27   49 1
  52   28   29 am
  53   28   50 1
  54   29   30 2

#	End of record

