#	Name: ASD03130002
#	Creating user name:	WinNT
#	Creation time:	15. 06. 2019 20:33

#	Modifying user name:	WinNT
#	Modification time:	15. 06. 2019 20:33

#	Program:	/corina/corina34_cracker 3.40 0067  02.08.2006

@<TRIPOS>MOLECULE
ASD03130002
 339  340    0    0    0
SMALL
NO_CHARGES


@<TRIPOS>ATOM
   1 C1            21.6708    10.7227    15.3625 C.3     
   2 C2            42.2754     5.4406    43.0875 C.3     
   3 C3             7.8934     8.7532    23.1354 C.3     
   4 C4             8.0333     7.7826    21.9609 C.3     
   5 C5             6.6919     7.1678    21.6548 C.2     
   6 N6             8.5184     8.5072    20.7837 N.am    
   7 O7             6.1320     7.4232    20.6098 O.2     
   8 C8             9.2759     9.2729    23.5349 C.3     
   9 C9             7.0062     9.9292    22.7222 C.3     
  10 C10            1.5133     0.4539    26.9687 C.3     
  11 C11            2.6075     1.4866    27.2465 C.3     
  12 C12            2.2166     2.8087    26.6382 C.2     
  13 N13            2.7740     1.6452    28.6974 N.3     
  14 O14            1.5933     3.6125    27.2896 O.2     
  15 C15            1.4585     0.1601    25.4681 C.3     
  16 C16            2.7633    -0.5091    25.0315 C.3     
  17 C17            0.2829    -0.7739    25.1739 C.3     
  18 C18            3.1579     0.1023    31.4625 C.3     
  19 C19            4.0653     1.0094    30.6290 C.3     
  20 C20            5.5069     0.7079    30.9483 C.2     
  21 N21            3.8195     0.7691    29.2009 N.3     
  22 O22            6.2558     0.3300    30.0723 O.2     
  23 O23            3.5169    -1.2631    31.2416 O.3     
  24 C24            8.2228     1.7959    32.2158 C.3     
  25 C25            7.3655     0.5651    32.5176 C.3     
  26 C26            7.4932     0.2094    33.9764 C.2     
  27 N27            5.9640     0.8582    32.2072 N.am    
  28 O28            6.5103     0.2015    34.6869 O.2     
  29 C29            8.1924     2.0826    30.7132 C.3     
  30 C30            9.0369     3.2949    30.4159 C.2     
  31 O31            9.6069     3.8726    31.3172 O.2     
  32 N32            9.1586     3.7370    29.1486 N.am    
  33 C33            8.5241    -1.9339    36.0999 C.3     
  34 C34            8.8237    -0.4457    35.9097 C.3     
  35 C35           10.2257    -0.1516    36.3776 C.2     
  36 N36            8.6996    -0.0999    34.4915 N.am    
  37 O37           11.0746     0.1811    35.5779 O.2     
  38 C38            7.0668    -2.2126    35.7265 C.3     
  39 C39            9.4476    -2.7589    35.2013 C.3     
  40 C40           11.8897     1.6395    38.4243 C.3     
  41 C41           11.8669     0.1334    38.1560 C.3     
  42 C42           12.1880    -0.6084    39.4278 C.2     
  43 N43           10.5362    -0.2585    37.6848 N.am    
  44 O44           11.3845    -1.3877    39.8947 O.2     
  45 C45           11.6872     2.3950    37.1094 C.3     
  46 C46           11.7098     3.8784    37.3737 C.2     
  47 O47           11.8712     4.2893    38.4984 O.2     
  48 O48           11.5505     4.7434    36.3596 O.3     
  49 C49           14.2628    -2.4994    40.9396 C.3     
  50 C50           13.6804    -1.1269    41.2829 C.3     
  51 C51           14.6863    -0.3402    42.0830 C.2     
  52 N52           13.3681    -0.4058    40.0465 N.am    
  53 O53           15.1015     0.7187    41.6618 O.2     
  54 C54           13.1983    -3.3438    40.2363 C.3     
  55 C55           13.7720    -4.6957    39.8982 C.2     
  56 O56           14.9194    -4.9580    40.1909 O.2     
  57 N57           13.0101    -5.6133    39.2705 N.am    
  58 C58           16.0378    -0.3711    45.4918 C.3     
  59 C59           16.1822    -0.1052    43.9920 C.3     
  60 C60           17.5278    -0.5949    43.5223 C.2     
  61 N61           15.1245    -0.8132    43.2665 N.am    
  62 O62           17.5966    -1.4509    42.6659 O.2     
  63 C63           14.7607     0.2533    45.9919 C.2     
  64 O64           14.0926     0.9369    45.2528 O.2     
  65 O65           14.3655     0.0502    47.2585 O.3     
  66 C66           19.9630    -0.5575    43.5973 C.3     
  67 C67           21.0510     0.1707    44.3436 C.2     
  68 N68           18.6549    -0.0815    44.0539 N.am    
  69 O69           20.7622     1.0052    45.1750 O.2     
  70 C70           23.6683    -0.1030    46.1439 C.3     
  71 C71           23.4028     0.6027    44.8126 C.3     
  72 C72           24.6629     0.6066    43.9860 C.2     
  73 N73           22.3451    -0.1053    44.0871 N.am    
  74 O74           24.6761     0.0708    42.8981 O.2     
  75 N75           21.5052    -0.6035    49.2158 N.pl3   
  76 C76           21.5084    -1.1677    50.4695 C.2     
  77 N77           22.5683    -1.7919    50.9006 N.2     
  78 N78           20.3935    -1.0735    51.2685 N.pl3   
  79 C79           22.4276     0.0018    47.0331 C.3     
  80 C80           22.6932    -0.7039    48.3644 C.3     
  81 C81           26.9614     2.3810    42.6692 C.3     
  82 C82           27.0000     1.2093    43.6523 C.3     
  83 C83           28.1951     1.3535    44.5590 C.2     
  84 N84           25.7751     1.2055    44.4558 N.am    
  85 O85           28.0403     1.6590    45.7224 O.2     
  86 O86           26.8430     3.6070    43.3937 O.3     
  87 C87           25.7606     2.2230    41.7343 C.3     
  88 C88           30.9423    -0.2158    45.4431 C.3     
  89 C89           30.5906     1.1984    44.9770 C.3     
  90 C90           31.7674     1.7943    44.2482 C.2     
  91 N91           29.4360     1.1430    44.0769 N.am    
  92 O92           31.6572     2.1250    43.0866 O.2     
  93 C93           29.8081    -0.7632    46.3119 C.3     
  94 C94           31.1341    -1.1214    44.2249 C.3     
  95 C95           32.3946    -0.6979    43.4680 C.3     
  96 C96           34.1174     2.4309    44.1500 C.3     
  97 C97           35.2926     2.5301    45.0881 C.2     
  98 N98           32.9424     1.9597    44.8874 N.am    
  99 O99           35.1617     2.2360    46.2574 O.2     
 100 C100          19.7279    11.9751    16.0829 C.3     
 101 C101          18.2220    11.9620    16.1406 C.2     
 102 N102          20.2038    10.7448    15.4365 N.3     
 103 O103          17.6060    11.0205    15.6879 O.2     
 104 C104          15.5319    12.9025    15.3316 C.3     
 105 C105          16.0960    12.9838    16.7515 C.3     
 106 C106          15.6341    11.7885    17.5447 C.2     
 107 N107          17.5599    12.9965    16.6954 N.am    
 108 O108          16.3775    10.8440    17.7065 O.2     
 109 N109          15.6814    15.3124    12.4099 N.pl3   
 110 C110          15.2792    15.4669    11.1044 C.2     
 111 N111          14.5874    14.5294    10.5202 N.2     
 112 N112          15.6068    16.6104    10.4150 N.pl3   
 113 C113          15.8964    14.1751    14.5644 C.3     
 114 C114          15.3323    14.0939    13.1445 C.3     
 115 C115          13.9459    10.6073    18.8454 C.3     
 116 C116          12.4418    10.5252    18.8001 C.2     
 117 N117          14.3949    11.7692    18.0743 N.am    
 118 O118          11.8074    11.3555    18.1845 O.2     
 119 C119          16.6387    11.8799    20.2516 C.ar    
 120 C120          18.0195    11.8421    20.3043 C.ar    
 121 C121          18.6724    10.6336    20.4600 C.ar    
 122 C122          17.9445     9.4630    20.5636 C.ar    
 123 C123          16.5637     9.5008    20.5104 C.ar    
 124 C124          15.9108    10.7092    20.3547 C.ar    
 125 C125          14.4054    10.7505    20.2977 C.3     
 126 C126           9.9070     8.7101    18.1321 C.3     
 127 C127          10.3395     9.4492    19.4000 C.3     
 128 C128           9.8405     8.7039    20.6109 C.2     
 129 N129          11.8017     9.5291    19.4439 N.am    
 130 O130          10.6286     8.2810    21.4300 O.2     
 131 C131          10.2987     9.5176    16.9215 C.2     
 132 N132          11.4396     9.3737    16.1790 N.pl3   
 133 C133          11.3917    10.2930    15.1909 C.2     
 134 N134          10.2848    10.9744    15.3066 N.2     
 135 C135           9.5909    10.5156    16.3588 C.2     
 136 C136          38.3128     1.6762    45.6498 C.3     
 137 C137          37.6318     3.0418    45.5395 C.3     
 138 C138          38.6153     4.0521    45.0076 C.2     
 139 N139          36.4892     2.9454    44.6276 N.am    
 140 O140          38.3846     4.6344    43.9690 O.2     
 141 C141          37.3143     0.6504    46.1899 C.3     
 142 C142          38.7992     1.2357    44.2677 C.3     
 143 C143          39.5886    -0.0686    44.3966 C.3     
 144 C144          41.5351     5.8547    46.3255 C.3     
 145 C145          40.7073     5.2908    45.1689 C.3     
 146 C146          41.6227     4.6252    44.1738 C.2     
 147 N147          39.7512     4.3087    45.6860 N.am    
 148 O148          41.8331     3.4383    44.2470 O.2     
 149 C149          42.4297     4.7530    46.8970 C.3     
 150 C150          42.4054     7.0055    45.8162 C.3     
 151 C151          43.1117     7.6724    46.9982 C.3     
 152 C152           5.1816     4.3692    21.4241 C.3     
 153 C153           4.8653     5.6498    22.1993 C.3     
 154 C154           4.1200     5.3015    23.4620 C.2     
 155 N155           6.1144     6.3340    22.5425 N.am    
 156 O156           4.5864     5.5959    24.5422 O.2     
 157 C157           5.8266     4.7301    20.0845 C.3     
 158 C158           6.1381     3.4688    19.3210 C.2     
 159 O159           5.8706     2.3876    19.8010 O.2     
 160 N160           6.7140     3.5422    18.1047 N.am    
 161 C161           0.6717     4.3415    24.2593 C.3     
 162 C162           2.1588     4.4218    24.6096 C.3     
 163 C163           2.5981     3.1237    25.2365 C.2     
 164 N164           2.9353     4.6629    23.3909 N.am    
 165 O165           3.2601     2.3392    24.6000 O.2     
 166 C166           0.1961     5.6872    23.7754 C.2     
 167 N167          -1.0568     5.8279    23.2993 N.am    
 168 O168           0.9410     6.6435    23.8145 O.2     
 169 H169          21.9964     9.8012    14.8797 H       
 170 H170          22.0184    11.5785    14.7838 H       
 171 H171          22.0862    10.7718    16.3690 H       
 172 H172          43.2494     5.7895    43.4306 H       
 173 H173          42.4030     4.8244    42.1976 H       
 174 H174          41.6458     6.2978    42.8487 H       
 175 H175           7.4409     8.2365    23.9818 H       
 176 H176           8.7422     6.9967    22.2215 H       
 177 H177           7.8880     8.8454    20.1286 H       
 178 H178           9.1762     9.9643    24.3716 H       
 179 H179           9.9079     8.4351    23.8292 H       
 180 H180           9.7283     9.7896    22.6884 H       
 181 H181           6.0508     9.5528    22.3568 H       
 182 H182           6.8367    10.5763    23.5828 H       
 183 H183           7.4992    10.4964    21.9327 H       
 184 H184           1.7350    -0.4652    27.5110 H       
 185 H185           0.5511     0.8467    27.2974 H       
 186 H186           3.5463     1.1482    26.8080 H       
 187 H187           2.9621     2.6072    28.9367 H       
 188 H188           1.3275     1.0930    24.9198 H       
 189 H189           2.6950    -0.7867    23.9797 H       
 190 H190           3.5921     0.1849    25.1711 H       
 191 H191           2.9323    -1.4025    25.6328 H       
 192 H192          -0.6466    -0.2971    25.4850 H       
 193 H193           0.2439    -0.9832    24.1049 H       
 194 H194           0.4140    -1.7068    25.7223 H       
 195 H195           3.2756     0.3426    32.5191 H       
 196 H196           2.1200     0.2573    31.1681 H       
 197 H197           3.8515     2.0521    30.8641 H       
 198 H198           3.5926    -0.1993    29.0310 H       
 199 H199           2.9816    -1.8961    31.7395 H       
 200 H200           7.8282     2.6554    32.7577 H       
 201 H201           9.2499     1.6090    32.5293 H       
 202 H202           7.7050    -0.2725    31.9083 H       
 203 H203           5.3651     1.1605    32.9078 H       
 204 H204           8.5870     1.2232    30.1712 H       
 205 H205           7.1653     2.2696    30.3997 H       
 206 H206           8.7027     3.2750    28.4278 H       
 207 H207           9.7022     4.5173    28.9573 H       
 208 H208           8.6911    -2.2079    37.1416 H       
 209 H209           8.1154     0.1447    36.4910 H       
 210 H210           9.4857    -0.0936    33.9233 H       
 211 H211           6.8534    -3.2729    35.8620 H       
 212 H212           6.4089    -1.6249    36.3667 H       
 213 H213           6.8999    -1.9386    34.6848 H       
 214 H214          10.4801    -2.6306    35.5260 H       
 215 H215           9.1738    -3.8119    35.2681 H       
 216 H216           9.3466    -2.4220    34.1696 H       
 217 H217          11.0896     1.8971    39.1183 H       
 218 H218          12.8504     1.9167    38.8584 H       
 219 H219          12.6083    -0.1114    37.3954 H       
 220 H220           9.8787    -0.5949    38.3135 H       
 221 H221          12.4874     2.1374    36.4154 H       
 222 H222          10.7266     2.1178    36.6753 H       
 223 H223          11.5723     5.6851    36.5783 H       
 224 H224          15.1219    -2.3750    40.2803 H       
 225 H225          14.5772    -3.0001    41.8553 H       
 226 H226          12.7701    -1.2547    41.8687 H       
 227 H227          14.0108     0.2175    39.6731 H       
 228 H228          12.3393    -3.4683    40.8956 H       
 229 H229          12.8839    -2.8432    39.3205 H       
 230 H230          12.0924    -5.4035    39.0364 H       
 231 H231          13.3794    -6.4834    39.0528 H       
 232 H232          16.0104    -1.4462    45.6692 H       
 233 H233          16.8861     0.0630    46.0210 H       
 234 H234          16.0987     0.9650    43.8030 H       
 235 H235          14.7395    -1.6223    43.6379 H       
 236 H236          13.5396     0.4712    47.5336 H       
 237 H237          20.0659    -0.3681    42.5289 H       
 238 H238          20.0465    -1.6277    43.7863 H       
 239 H239          18.5999     0.6031    44.7389 H       
 240 H240          23.8955    -1.1530    45.9596 H       
 241 H241          24.5142     0.3695    46.6432 H       
 242 H242          23.0891     1.6293    45.0018 H       
 243 H243          22.5761    -0.7726    43.4222 H       
 244 H244          20.7165    -0.1389    48.8950 H       
 245 H245          22.5705    -2.1900    51.7852 H       
 246 H246          19.6047    -0.6089    50.9477 H       
 247 H247          20.3957    -1.4716    52.1530 H       
 248 H248          22.2004     1.0518    47.2174 H       
 249 H249          21.5818    -0.4707    46.5338 H       
 250 H250          23.5391    -0.2313    48.8637 H       
 251 H251          22.9204    -1.7539    48.1801 H       
 252 H252          27.8798     2.3932    42.0821 H       
 253 H253          27.0746     0.2731    43.0990 H       
 254 H254          25.7645     1.6340    45.3260 H       
 255 H255          27.5717     3.7733    44.0073 H       
 256 H256          24.8386     2.3224    42.3072 H       
 257 H257          25.7952     2.9943    40.9649 H       
 258 H258          25.7925     1.2398    41.2649 H       
 259 H259          31.8641    -0.1882    46.0240 H       
 260 H260          30.3480     1.8161    45.8416 H       
 261 H261          29.5646     0.9547    43.1341 H       
 262 H262          28.8843    -0.7823    45.7338 H       
 263 H263          30.0546    -1.7742    46.6365 H       
 264 H264          29.6775    -0.1232    47.1845 H       
 265 H265          31.2379    -2.1554    44.5536 H       
 266 H266          30.2691    -1.0342    43.5675 H       
 267 H267          32.6616    -1.4699    42.7463 H       
 268 H268          32.2063     0.2394    42.9445 H       
 269 H269          33.2137    -0.5615    44.1741 H       
 270 H270          33.9092     3.4122    43.7235 H       
 271 H271          34.3497     1.7286    43.3495 H       
 272 H272          33.0101     1.7668    45.8356 H       
 273 H273          20.0619    12.8396    15.5092 H       
 274 H274          20.1298    12.0330    17.0944 H       
 275 H275          19.7939    10.6354    14.5211 H       
 276 H276          15.9548    12.0371    14.8216 H       
 277 H277          14.4473    12.8036    15.3767 H       
 278 H278          15.7428    13.8966    17.2311 H       
 279 H279          18.0526    13.7495    17.0575 H       
 280 H280          16.1963    16.0101    12.8447 H       
 281 H281          14.3037    14.6385     9.5990 H       
 282 H282          16.1217    17.3082    10.8497 H       
 283 H283          15.3231    16.7195     9.4938 H       
 284 H284          15.4735    15.0406    15.0745 H       
 285 H285          16.9810    14.2741    14.5194 H       
 286 H286          14.2477    13.9949    13.1896 H       
 287 H287          15.7552    13.2284    12.6345 H       
 288 H288          14.3723     9.7002    18.4171 H       
 289 H289          13.8003    12.5246    17.9449 H       
 290 H290          16.1284    12.8245    20.1344 H       
 291 H291          18.5882    12.7566    20.2234 H       
 292 H292          19.7513    10.6040    20.5005 H       
 293 H293          18.4546     8.5188    20.6845 H       
 294 H294          15.9950     8.5862    20.5909 H       
 295 H295          14.0526    11.7008    20.6984 H       
 296 H296          13.9968     9.9321    20.8904 H       
 297 H297          10.3967     7.7371    18.0938 H       
 298 H298           8.8257     8.5725    18.1427 H       
 299 H299           9.9207    10.4556    19.3946 H       
 300 H300          12.3091     8.8650    19.9363 H       
 301 H301          12.1498     8.7314    16.3337 H       
 302 H302          12.1449    10.4401    14.4310 H       
 303 H303           8.6336    10.8837    16.6970 H       
 304 H304          39.1629     1.7479    46.3283 H       
 305 H305          37.2852     3.3556    46.5242 H       
 306 H306          36.5940     3.1806    43.6924 H       
 307 H307          36.4642     0.5787    45.5114 H       
 308 H308          37.7995    -0.3225    46.2685 H       
 309 H309          36.9678     0.9642    47.1746 H       
 310 H310          37.9414     1.0782    43.6139 H       
 311 H311          39.4411     2.0086    43.8451 H       
 312 H312          39.9351    -0.3824    43.4119 H       
 313 H313          40.4463     0.0889    45.0504 H       
 314 H314          38.9467    -0.8415    44.8192 H       
 315 H315          40.8674     6.2216    47.1050 H       
 316 H316          40.1669     6.1013    44.6798 H       
 317 H317          39.9357     3.8430    46.5166 H       
 318 H318          43.0194     5.1547    47.7210 H       
 319 H319          41.8097     3.9332    47.2598 H       
 320 H320          43.0974     4.3861    46.1174 H       
 321 H321          43.1492     6.6179    45.1201 H       
 322 H322          41.7783     7.7377    45.3075 H       
 323 H323          43.7318     8.4922    46.6354 H       
 324 H324          42.3679     8.0599    47.6944 H       
 325 H325          43.7388     6.9402    47.5069 H       
 326 H326           5.8691     3.7537    22.0043 H       
 327 H327           4.2599     3.8152    21.2461 H       
 328 H328           4.2496     6.3049    21.5830 H       
 329 H329           6.5258     6.1871    23.4085 H       
 330 H330           5.1391     5.3456    19.5043 H       
 331 H331           6.7483     5.2841    20.2626 H       
 332 H332           6.9280     4.4069    17.7207 H       
 333 H333           6.9146     2.7303    17.6132 H       
 334 H334           0.5228     3.5999    23.4745 H       
 335 H335           0.1049     4.0526    25.1444 H       
 336 H336           2.3229     5.2386    25.3125 H       
 337 H337           2.5967     4.3630    22.5328 H       
 338 H338          -1.6525     5.0630    23.2680 H       
 339 H339          -1.3629     6.6941    22.9879 H       
@<TRIPOS>BOND
   1    1  102 1
   2    1  169 1
   3    1  170 1
   4    1  171 1
   5    2  146 1
   6    2  172 1
   7    2  173 1
   8    2  174 1
   9    3    8 1
  10    3    9 1
  11    3    4 1
  12    3  175 1
  13    4    6 1
  14    4    5 1
  15    4  176 1
  16    5    7 2
  17    5  155 am
  18    6  128 am
  19    6  177 1
  20    8  178 1
  21    8  179 1
  22    8  180 1
  23    9  181 1
  24    9  182 1
  25    9  183 1
  26   10   15 1
  27   10   11 1
  28   10  184 1
  29   10  185 1
  30   11   13 1
  31   11   12 1
  32   11  186 1
  33   12   14 2
  34   12  163 1
  35   13   21 1
  36   13  187 1
  37   15   16 1
  38   15   17 1
  39   15  188 1
  40   16  189 1
  41   16  190 1
  42   16  191 1
  43   17  192 1
  44   17  193 1
  45   17  194 1
  46   18   23 1
  47   18   19 1
  48   18  195 1
  49   18  196 1
  50   19   21 1
  51   19   20 1
  52   19  197 1
  53   20   22 2
  54   20   27 am
  55   21  198 1
  56   23  199 1
  57   24   29 1
  58   24   25 1
  59   24  200 1
  60   24  201 1
  61   25   27 1
  62   25   26 1
  63   25  202 1
  64   26   28 2
  65   26   36 am
  66   27  203 1
  67   29   30 1
  68   29  204 1
  69   29  205 1
  70   30   31 2
  71   30   32 am
  72   32  206 1
  73   32  207 1
  74   33   38 1
  75   33   39 1
  76   33   34 1
  77   33  208 1
  78   34   36 1
  79   34   35 1
  80   34  209 1
  81   35   37 2
  82   35   43 am
  83   36  210 1
  84   38  211 1
  85   38  212 1
  86   38  213 1
  87   39  214 1
  88   39  215 1
  89   39  216 1
  90   40   45 1
  91   40   41 1
  92   40  217 1
  93   40  218 1
  94   41   43 1
  95   41   42 1
  96   41  219 1
  97   42   44 2
  98   42   52 am
  99   43  220 1
 100   45   46 1
 101   45  221 1
 102   45  222 1
 103   46   47 2
 104   46   48 1
 105   48  223 1
 106   49   54 1
 107   49   50 1
 108   49  224 1
 109   49  225 1
 110   50   52 1
 111   50   51 1
 112   50  226 1
 113   51   53 2
 114   51   61 am
 115   52  227 1
 116   54   55 1
 117   54  228 1
 118   54  229 1
 119   55   56 2
 120   55   57 am
 121   57  230 1
 122   57  231 1
 123   58   63 1
 124   58   59 1
 125   58  232 1
 126   58  233 1
 127   59   60 1
 128   59   61 1
 129   59  234 1
 130   60   62 2
 131   60   68 am
 132   61  235 1
 133   63   64 2
 134   63   65 1
 135   65  236 1
 136   66   67 1
 137   66   68 1
 138   66  237 1
 139   66  238 1
 140   67   69 2
 141   67   73 am
 142   68  239 1
 143   70   79 1
 144   70   71 1
 145   70  240 1
 146   70  241 1
 147   71   73 1
 148   71   72 1
 149   71  242 1
 150   72   74 2
 151   72   84 am
 152   73  243 1
 153   75   80 1
 154   75   76 1
 155   75  244 1
 156   76   77 2
 157   76   78 1
 158   77  245 1
 159   78  246 1
 160   78  247 1
 161   79   80 1
 162   79  248 1
 163   79  249 1
 164   80  250 1
 165   80  251 1
 166   81   82 1
 167   81   86 1
 168   81   87 1
 169   81  252 1
 170   82   84 1
 171   82   83 1
 172   82  253 1
 173   83   85 2
 174   83   91 am
 175   84  254 1
 176   86  255 1
 177   87  256 1
 178   87  257 1
 179   87  258 1
 180   88   89 1
 181   88   93 1
 182   88   94 1
 183   88  259 1
 184   89   91 1
 185   89   90 1
 186   89  260 1
 187   90   92 2
 188   90   98 am
 189   91  261 1
 190   93  262 1
 191   93  263 1
 192   93  264 1
 193   94   95 1
 194   94  265 1
 195   94  266 1
 196   95  267 1
 197   95  268 1
 198   95  269 1
 199   96   97 1
 200   96   98 1
 201   96  270 1
 202   96  271 1
 203   97   99 2
 204   97  139 am
 205   98  272 1
 206  100  101 1
 207  100  102 1
 208  100  273 1
 209  100  274 1
 210  101  103 2
 211  101  107 am
 212  102  275 1
 213  104  113 1
 214  104  105 1
 215  104  276 1
 216  104  277 1
 217  105  107 1
 218  105  106 1
 219  105  278 1
 220  106  108 2
 221  106  117 am
 222  107  279 1
 223  109  114 1
 224  109  110 1
 225  109  280 1
 226  110  111 2
 227  110  112 1
 228  111  281 1
 229  112  282 1
 230  112  283 1
 231  113  114 1
 232  113  284 1
 233  113  285 1
 234  114  286 1
 235  114  287 1
 236  115  116 1
 237  115  117 1
 238  115  125 1
 239  115  288 1
 240  116  118 2
 241  116  129 am
 242  117  289 1
 243  119  120 ar
 244  119  124 ar
 245  119  290 1
 246  120  121 ar
 247  120  291 1
 248  121  122 ar
 249  121  292 1
 250  122  123 ar
 251  122  293 1
 252  123  124 ar
 253  123  294 1
 254  124  125 1
 255  125  295 1
 256  125  296 1
 257  126  131 1
 258  126  127 1
 259  126  297 1
 260  126  298 1
 261  127  128 1
 262  127  129 1
 263  127  299 1
 264  128  130 2
 265  129  300 1
 266  131  132 1
 267  131  135 2
 268  132  133 1
 269  132  301 1
 270  133  134 2
 271  133  302 1
 272  134  135 1
 273  135  303 1
 274  136  137 1
 275  136  141 1
 276  136  142 1
 277  136  304 1
 278  137  139 1
 279  137  138 1
 280  137  305 1
 281  138  140 2
 282  138  147 am
 283  139  306 1
 284  141  307 1
 285  141  308 1
 286  141  309 1
 287  142  143 1
 288  142  310 1
 289  142  311 1
 290  143  312 1
 291  143  313 1
 292  143  314 1
 293  144  145 1
 294  144  149 1
 295  144  150 1
 296  144  315 1
 297  145  147 1
 298  145  146 1
 299  145  316 1
 300  146  148 2
 301  147  317 1
 302  149  318 1
 303  149  319 1
 304  149  320 1
 305  150  151 1
 306  150  321 1
 307  150  322 1
 308  151  323 1
 309  151  324 1
 310  151  325 1
 311  152  157 1
 312  152  153 1
 313  152  326 1
 314  152  327 1
 315  153  155 1
 316  153  154 1
 317  153  328 1
 318  154  156 2
 319  154  164 am
 320  155  329 1
 321  157  158 1
 322  157  330 1
 323  157  331 1
 324  158  159 2
 325  158  160 am
 326  160  332 1
 327  160  333 1
 328  161  166 1
 329  161  162 1
 330  161  334 1
 331  161  335 1
 332  162  164 1
 333  162  163 1
 334  162  336 1
 335  163  165 2
 336  164  337 1
 337  166  167 am
 338  166  168 2
 339  167  338 1
 340  167  339 1

#	End of record

