#	Name: ASD01912130
#	Creating user name:	WinNT
#	Creation time:	15. 06. 2019 19:59

#	Modifying user name:	WinNT
#	Modification time:	15. 06. 2019 19:59

#	Program:	/corina/corina34_cracker 3.40 0067  02.08.2006

@<TRIPOS>MOLECULE
ASD01912130
  35   36    0    0    0
SMALL
NO_CHARGES


@<TRIPOS>ATOM
   1 C1            -0.0167     1.3796     0.0096 C.ar    
   2 C2             0.0021    -0.0041     0.0020 C.ar    
   3 C3             1.2060    -0.6871    -0.0131 C.ar    
   4 C4             2.3968     0.0075    -0.0203 C.ar    
   5 C5             2.3862     1.4062    -0.0127 C.ar    
   6 C6             1.1660     2.0889     0.0021 C.ar    
   7 C7             3.6529     2.1555    -0.0197 C.2     
   8 C8             3.6371     3.6623    -0.0115 C.3     
   9 O9             4.7093     1.5603    -0.0322 O.2     
  10 C10            5.0525     4.1797    -0.0211 C.2     
  11 C11            5.3061     5.6293    -0.0156 C.ar    
  12 O12            5.9823     3.4015    -0.0335 O.2     
  13 C13           -1.2950    -0.7713     0.0108 C.3     
  14 C14            6.6182     6.1133    -0.0245 C.ar    
  15 C15            1.2150    -2.1941    -0.0213 C.3     
  16 C16            6.8477     7.4729    -0.0196 C.ar    
  17 C17            5.7836     8.3579    -0.0056 C.ar    
  18 C18            4.4823     7.8867     0.0038 C.ar    
  19 C19            4.2363     6.5300    -0.0072 C.ar    
  20 H20           -0.9600     1.9054     0.0169 H       
  21 H21            3.3353    -0.5268    -0.0314 H       
  22 H22            1.1497     3.1688     0.0077 H       
  23 H23            3.1117     4.0250    -0.8950 H       
  24 H24            3.1273     4.0154     0.8849 H       
  25 H25           -1.6179    -0.9508    -1.0147 H       
  26 H26           -1.1495    -1.7250     0.5181 H       
  27 H27           -2.0556    -0.1931     0.5353 H       
  28 H28            7.4495     5.4239    -0.0347 H       
  29 H29            1.2073    -2.5519    -1.0509 H       
  30 H30            2.1120    -2.5548     0.4821 H       
  31 H31            0.3321    -2.5655     0.4990 H       
  32 H32            7.8603     7.8482    -0.0265 H       
  33 H33            5.9698     9.4217    -0.0015 H       
  34 H34            3.6573     8.5836     0.0154 H       
  35 H35            3.2203     6.1639     0.0002 H       
@<TRIPOS>BOND
   1    1    2 ar
   2    1    6 ar
   3    1   20 1
   4    2    3 ar
   5    2   13 1
   6    3    4 ar
   7    3   15 1
   8    4    5 ar
   9    4   21 1
  10    5    6 ar
  11    5    7 1
  12    6   22 1
  13    7    8 1
  14    7    9 2
  15    8   10 1
  16    8   23 1
  17    8   24 1
  18   10   11 1
  19   10   12 2
  20   11   14 ar
  21   11   19 ar
  22   13   25 1
  23   13   26 1
  24   13   27 1
  25   14   16 ar
  26   14   28 1
  27   15   29 1
  28   15   30 1
  29   15   31 1
  30   16   17 ar
  31   16   32 1
  32   17   18 ar
  33   17   33 1
  34   18   19 ar
  35   18   34 1
  36   19   35 1

#	End of record

