#	Name: ASD01911335
#	Creating user name:	WinNT
#	Creation time:	15. 06. 2019 19:57

#	Modifying user name:	WinNT
#	Modification time:	15. 06. 2019 19:57

#	Program:	/corina/corina34_cracker 3.40 0067  02.08.2006

@<TRIPOS>MOLECULE
ASD01911335
  30   31    0    0    0
SMALL
NO_CHARGES


@<TRIPOS>ATOM
   1 C1            -0.0167     1.3797     0.0096 C.ar    
   2 C2             0.0021    -0.0041     0.0020 C.ar    
   3 C3             1.2058    -0.6867    -0.0127 C.ar    
   4 C4             2.3967     0.0087    -0.0198 C.ar    
   5 C5             2.3859     1.4064    -0.0127 C.ar    
   6 C6             1.1661     2.0888     0.0021 C.ar    
   7 C7             3.6183     2.1356    -0.0195 C.1     
   8 C8             4.6286     2.7335    -0.0252 C.1     
   9 C9             5.8610     3.4627    -0.0321 C.ar    
  10 N10            5.8376     4.7937    -0.0252 N.ar    
  11 C11            6.9452     5.5021    -0.0311 C.ar    
  12 C12            8.1923     4.8722    -0.0454 C.ar    
  13 C13            8.2501     3.4705    -0.0530 C.ar    
  14 C14            7.0755     2.7675    -0.0402 C.ar    
  15 C15            9.4332     5.6715    -0.0530 C.2     
  16 N16            9.3678     7.0177    -0.0461 N.am    
  17 O17           10.5144     5.1155    -0.0654 O.2     
  18 C18           10.5995     7.8109    -0.0536 C.3     
  19 H19           -0.9600     1.9055     0.0169 H       
  20 H20           -0.9274    -0.5540     0.0079 H       
  21 H21            1.2126    -1.7666    -0.0182 H       
  22 H22            3.3354    -0.5253    -0.0306 H       
  23 H23            1.1499     3.1687     0.0077 H       
  24 H24            6.8905     6.5807    -0.0252 H       
  25 H25            9.2003     2.9573    -0.0640 H       
  26 H26            7.0859     1.6876    -0.0456 H       
  27 H27            8.5053     7.4613    -0.0361 H       
  28 H28           10.3485     8.8716    -0.0463 H       
  29 H29           11.1912     7.5715     0.8299 H       
  30 H30           11.1750     7.5798    -0.9499 H       
@<TRIPOS>BOND
   1    1    2 ar
   2    1    6 ar
   3    1   19 1
   4    2    3 ar
   5    2   20 1
   6    3    4 ar
   7    3   21 1
   8    4    5 ar
   9    4   22 1
  10    5    6 ar
  11    5    7 1
  12    6   23 1
  13    7    8 3
  14    8    9 1
  15    9   10 ar
  16    9   14 ar
  17   10   11 ar
  18   11   12 ar
  19   11   24 1
  20   12   13 ar
  21   12   15 1
  22   13   14 ar
  23   13   25 1
  24   14   26 1
  25   15   16 am
  26   15   17 2
  27   16   18 1
  28   16   27 1
  29   18   28 1
  30   18   29 1
  31   18   30 1

#	End of record

