#	Name: ASD01881497
#	Creating user name:	WinNT
#	Creation time:	15. 06. 2019 19:42

#	Modifying user name:	WinNT
#	Modification time:	15. 06. 2019 19:42

#	Program:	/corina/corina34_cracker 3.40 0067  02.08.2006

@<TRIPOS>MOLECULE
ASD01881497
  23   24    0    0    0
SMALL
NO_CHARGES


@<TRIPOS>ATOM
   1 C1            -0.0189     1.5400     0.0105 C.3     
   2 C2             0.0021    -0.0041     0.0020 C.3     
   3 C3             1.1393    -0.3491    -0.9917 C.3     
   4 C4             0.9826     0.7149    -2.0727 C.2     
   5 C5             0.6139     1.9816    -1.3212 C.3     
   6 C6             1.3230     2.2759     0.0016 C.3     
   7 C7            -1.3143    -0.5492    -0.4891 C.2     
   8 O8            -2.0138     0.1208    -1.2114 O.2     
   9 O9            -1.7095    -1.7789    -0.1241 O.3     
  10 C10            1.3351     3.7047     0.4807 C.2     
  11 O11            0.3104     4.2260     0.8524 O.2     
  12 O12            2.4843     4.3983     0.4944 O.3     
  13 O13            1.1217     0.5798    -3.2646 O.2     
  14 F14            2.4693     1.5310     0.2988 F       
  15 N15            0.3107    -0.5238     1.3409 N.3     
  16 H16           -0.8954     2.0295     0.4349 H       
  17 H17            2.1124    -0.2668    -0.5077 H       
  18 H18            0.9977    -1.3462    -1.4086 H       
  19 H19            0.1872     2.7998    -1.9013 H       
  20 H20           -2.5614    -2.0852    -0.4642 H       
  21 H21            2.4422     5.3113     0.8101 H       
  22 H22            0.3260    -1.5327     1.3424 H       
  23 H23            1.1828    -0.1485     1.6823 H       
@<TRIPOS>BOND
   1    1    2 1
   2    1    6 1
   3    1    5 1
   4    1   16 1
   5    2    3 1
   6    2    7 1
   7    2   15 1
   8    3    4 1
   9    3   17 1
  10    3   18 1
  11    4   13 2
  12    4    5 1
  13    5    6 1
  14    5   19 1
  15    6   10 1
  16    6   14 1
  17    7    8 2
  18    7    9 1
  19    9   20 1
  20   10   11 2
  21   10   12 1
  22   12   21 1
  23   15   22 1
  24   15   23 1

#	End of record

