#	Name: ASD03092455
#	Creating user name:	WinNT
#	Creation time:	15. 06. 2019 20:32

#	Modifying user name:	WinNT
#	Modification time:	15. 06. 2019 20:32

#	Program:	/corina/corina34_cracker 3.40 0067  02.08.2006

@<TRIPOS>MOLECULE
ASD03092455
  58   61    0    0    0
SMALL
NO_CHARGES


@<TRIPOS>ATOM
   1 O1             0.6161     2.1504    -0.3262 O.3     
   2 C2             0.4606     0.8191    -0.3468 C.2     
   3 N3             1.6277     0.2507    -0.2931 N.2     
   4 C4             2.5784     1.2225    -0.2357 C.2     
   5 C5             1.9298     2.4187    -0.2572 C.2     
   6 C6             4.0366     1.0180    -0.1634 C.2     
   7 O7             4.7834     1.9767    -0.1160 O.2     
   8 N8             4.5420    -0.2313    -0.1498 N.am    
   9 C9             2.5652     3.7844    -0.2124 C.3     
  10 C10            5.9911    -0.4345    -0.0779 C.3     
  11 S11            6.8068    -4.2902     0.6047 S.3     
  12 C12            6.6506    -3.8858    -1.0489 C.2     
  13 N13            6.3870    -2.6205    -1.1805 N.2     
  14 C14            6.2919    -1.9111    -0.0769 C.2     
  15 C15            6.4864    -2.6177     1.0562 C.2     
  16 C16            7.3676    -1.8559     4.6266 C.ar    
  17 C17            7.4522    -2.3766     3.3535 C.ar    
  18 C18            6.4386    -2.0836     2.4313 C.ar    
  19 C19            5.3786    -1.2689     2.8512 C.ar    
  20 C20            5.3747    -0.7918     4.1440 C.ar    
  21 N21            6.3506    -1.0922     4.9808 N.ar    
  22 C22            4.2409     0.0854     4.6089 C.3     
  23 C23            8.4474    -2.1681     5.6304 C.3     
  24 N24            6.7859    -4.7781    -2.0969 N.3     
  25 C25            7.0832    -6.1303    -1.6025 C.3     
  26 C26            7.2837    -7.0708    -2.7938 C.3     
  27 O27            6.1167    -7.0408    -3.6200 O.3     
  28 C28            5.7982    -5.7391    -4.1194 C.3     
  29 C29            5.5827    -4.7851    -2.9415 C.3     
  30 C30            4.5205    -5.8122    -4.9580 C.3     
  31 C31            7.5141    -8.4958    -2.2866 C.3     
  32 H32           -0.4855     0.3008    -0.3991 H       
  33 H33            3.9464    -0.9959    -0.1876 H       
  34 H34            1.7879     4.5480    -0.2444 H       
  35 H35            3.1388     3.8883     0.7086 H       
  36 H36            3.2283     3.9049    -1.0690 H       
  37 H37            6.4667     0.0326    -0.9403 H       
  38 H38            6.3761     0.0154     0.8373 H       
  39 H39            8.2872    -3.0004     3.0707 H       
  40 H40            4.5772    -1.0185     2.1719 H       
  41 H41            3.4487    -0.5358     5.0267 H       
  42 H42            4.6036     0.7738     5.3722 H       
  43 H43            3.8504     0.6527     3.7640 H       
  44 H44            9.2311    -1.4131     5.5676 H       
  45 H45            8.0218    -2.1674     6.6339 H       
  46 H46            8.8703    -3.1495     5.4157 H       
  47 H47            7.9918    -6.1063    -1.0008 H       
  48 H48            6.2521    -6.4862    -0.9936 H       
  49 H49            8.1480    -6.7456    -3.3728 H       
  50 H50            6.6193    -5.3752    -4.7370 H       
  51 H51            4.7276    -5.1195    -2.3541 H       
  52 H52            5.3959    -3.7792    -3.3173 H       
  53 H53            3.6998    -6.1743    -4.3389 H       
  54 H54            4.2783    -4.8198    -5.3383 H       
  55 H55            4.6733    -6.4945    -5.7942 H       
  56 H56            6.6483    -8.8205    -1.7094 H       
  57 H57            7.6567    -9.1649    -3.1352 H       
  58 H58            8.4014    -8.5172    -1.6539 H       
@<TRIPOS>BOND
   1    1    2 1
   2    1    5 1
   3    2    3 2
   4    2   32 1
   5    3    4 1
   6    4    5 2
   7    4    6 1
   8    5    9 1
   9    6    7 2
  10    6    8 am
  11    8   10 1
  12    8   33 1
  13    9   34 1
  14    9   35 1
  15    9   36 1
  16   10   14 1
  17   10   37 1
  18   10   38 1
  19   11   12 1
  20   11   15 1
  21   12   13 2
  22   12   24 1
  23   13   14 1
  24   14   15 2
  25   15   18 1
  26   16   17 ar
  27   16   21 ar
  28   16   23 1
  29   17   18 ar
  30   17   39 1
  31   18   19 ar
  32   19   20 ar
  33   19   40 1
  34   20   21 ar
  35   20   22 1
  36   22   41 1
  37   22   42 1
  38   22   43 1
  39   23   44 1
  40   23   45 1
  41   23   46 1
  42   24   25 1
  43   24   29 1
  44   25   26 1
  45   25   47 1
  46   25   48 1
  47   26   27 1
  48   26   31 1
  49   26   49 1
  50   27   28 1
  51   28   29 1
  52   28   30 1
  53   28   50 1
  54   29   51 1
  55   29   52 1
  56   30   53 1
  57   30   54 1
  58   30   55 1
  59   31   56 1
  60   31   57 1
  61   31   58 1

#	End of record

