#	Name: ASD09200013
#	Creating user name:	WinNT
#	Creation time:	15. 06. 2019 21:21

#	Modifying user name:	WinNT
#	Modification time:	15. 06. 2019 21:21

#	Program:	/corina/corina34_cracker 3.40 0067  02.08.2006

@<TRIPOS>MOLECULE
ASD09200013
  42   44    0    0    0
SMALL
NO_CHARGES


@<TRIPOS>ATOM
   1 C1            -0.0170     1.4034     0.0098 C.ar    
   2 C2             0.0021    -0.0041     0.0020 C.ar    
   3 C3             1.2378    -0.6465    -0.0132 C.ar    
   4 N4             2.3427     0.0820    -0.0199 N.ar    
   5 C5             2.2887     1.4060    -0.0122 C.ar    
   6 N6             1.1368     2.0604     0.0023 N.ar    
   7 C7            -1.2600    -0.7822     0.0104 C.ar    
   8 C8            -1.5774    -1.5890     1.1020 C.ar    
   9 C9            -2.7531    -2.3114     1.1051 C.ar    
  10 C10           -3.6174    -2.2372     0.0274 C.ar    
  11 C11           -3.3089    -1.4387    -1.0601 C.ar    
  12 C12           -2.1369    -0.7053    -1.0713 C.ar    
  13 N13            3.4699     2.1261    -0.0197 N.3     
  14 C14            4.6328     1.2295    -0.0356 C.3     
  15 C15            5.9153     2.0528     0.1034 C.3     
  16 C16            6.0022     3.0524    -1.0533 C.3     
  17 C17            4.7562     3.9423    -1.0431 C.3     
  18 C18            3.5072     3.0642    -1.1488 C.3     
  19 N19           -1.2177     2.0905     0.0192 N.pl3   
  20 Cl20          -4.3987    -1.3517    -2.4086 Cl      
  21 Cl21          -1.7540     0.3026    -2.4319 Cl      
  22 C22            7.2514     3.9199    -0.8867 C.3     
  23 N23            6.0749     2.3242    -2.3270 N.3     
  24 H24            1.2936    -1.7251    -0.0192 H       
  25 H25           -0.9037    -1.6489     1.9441 H       
  26 H26           -2.9991    -2.9364     1.9508 H       
  27 H27           -4.5362    -2.8048     0.0346 H       
  28 H28            4.5608     0.5266     0.7944 H       
  29 H29            4.6544     0.6795    -0.9764 H       
  30 H30            5.9006     2.5924     1.0503 H       
  31 H31            6.7790     1.3885     0.0758 H       
  32 H32            4.7232     4.5116    -0.1142 H       
  33 H33            4.7917     4.6279    -1.8897 H       
  34 H34            3.5342     2.5056    -2.0844 H       
  35 H35            2.6177     3.6939    -1.1274 H       
  36 H36           -2.0559     1.6023     0.0205 H       
  37 H37           -1.2214     3.0605     0.0245 H       
  38 H38            8.1375     3.2850    -0.8884 H       
  39 H39            7.3124     4.6311    -1.7104 H       
  40 H40            7.1944     4.4615     0.0575 H       
  41 H41            6.1330     2.9630    -3.1059 H       
  42 H42            6.8501     1.6783    -2.3305 H       
@<TRIPOS>BOND
   1    1    2 ar
   2    1    6 ar
   3    1   19 1
   4    2    3 ar
   5    2    7 1
   6    3    4 ar
   7    3   24 1
   8    4    5 ar
   9    5    6 ar
  10    5   13 1
  11    7    8 ar
  12    7   12 ar
  13    8    9 ar
  14    8   25 1
  15    9   10 ar
  16    9   26 1
  17   10   11 ar
  18   10   27 1
  19   11   12 ar
  20   11   20 1
  21   12   21 1
  22   13   14 1
  23   13   18 1
  24   14   15 1
  25   14   28 1
  26   14   29 1
  27   15   16 1
  28   15   30 1
  29   15   31 1
  30   16   17 1
  31   16   22 1
  32   16   23 1
  33   17   18 1
  34   17   32 1
  35   17   33 1
  36   18   34 1
  37   18   35 1
  38   19   36 1
  39   19   37 1
  40   22   38 1
  41   22   39 1
  42   22   40 1
  43   23   41 1
  44   23   42 1

#	End of record

