#	Name: ASD04882266
#	Creating user name:	WinNT
#	Creation time:	15. 06. 2019 20:54

#	Modifying user name:	WinNT
#	Modification time:	15. 06. 2019 20:54

#	Program:	/corina/corina34_cracker 3.40 0067  02.08.2006

@<TRIPOS>MOLECULE
ASD04882266
  76   80    0    0    0
SMALL
NO_CHARGES


@<TRIPOS>ATOM
   1 N1            -0.1369     1.5564    -0.0347 N.am    
   2 C2            -0.0772     0.1564    -0.0449 C.ar    
   3 C3            -1.2537    -0.5943     0.0291 C.ar    
   4 C4            -1.1961    -1.9833     0.0186 C.ar    
   5 C5             0.0199    -2.6245    -0.0643 C.ar    
   6 C6             1.2003    -1.8798    -0.1385 C.ar    
   7 C7             1.1447    -0.4831    -0.1339 C.ar    
   8 N8            -2.4854     0.0499     0.1139 N.3     
   9 C9            -2.6126     0.7778     1.3841 C.3     
  10 C10           -3.5910    -0.9031    -0.0568 C.3     
  11 C11           -4.9210    -0.1462    -0.0367 C.3     
  12 N12           -5.0483     0.5818     1.2336 N.3     
  13 C13           -3.9427     1.5347     1.4042 C.3     
  14 C14            2.5029    -2.5669    -0.2267 C.2     
  15 O15            3.5293    -1.9181    -0.2913 O.2     
  16 C16           -6.2837     1.2279     1.3187 C.ar    
  17 C17           -7.1634     0.9154     2.3475 C.ar    
  18 C18            0.8442     2.2684     0.5543 C.2     
  19 C19            0.8474     3.7388     0.4574 C.2     
  20 O20            1.7270     1.6973     1.1658 O.2     
  21 C21           -0.0632     4.5249    -0.1861 C.2     
  22 C22            1.8291     4.6657     1.0394 C.2     
  23 C23            1.4250     5.8970     0.6918 C.2     
  24 O24            0.3009     5.8021    -0.0354 O.3     
  25 N25            2.5551    -3.9136    -0.2357 N.am    
  26 C26            3.8486    -4.5959    -0.3233 C.3     
  27 C27            3.6281    -6.1099    -0.3151 C.3     
  28 C28            2.1198     7.1819     1.0626 C.3     
  29 C29            4.9790    -6.8225    -0.4066 C.3     
  30 N30            4.7679    -8.2721    -0.3988 N.am    
  31 C31            4.7254    -9.0264     0.7131 C.2     
  32 C32           -8.3840     1.5560     2.4286 C.ar    
  33 C33           -8.7311     2.5078     1.4871 C.ar    
  34 C34           -7.8579     2.8212     0.4619 C.ar    
  35 C35           -6.6330     2.1883     0.3781 C.ar    
  36 N36           -6.7931    -0.1034     3.3552 N.pl3   
  37 C37            4.5693    -9.0866    -1.6034 C.3     
  38 C38            3.9666   -10.4189    -1.1055 C.3     
  39 C39            4.4818   -10.4747     0.3502 C.3     
  40 O40            4.8631    -8.6070     1.8427 O.2     
  41 O41           -7.5649    -0.3768     4.2569 O.2     
  42 O42           -5.7164    -0.6683     3.2828 O.2     
  43 H43           -0.8823     2.0131    -0.4550 H       
  44 H44           -2.1069    -2.5608     0.0758 H       
  45 H45            0.0614    -3.7037    -0.0715 H       
  46 H46            2.0552     0.0949    -0.1915 H       
  47 H47           -2.5842     0.0705     2.2130 H       
  48 H48           -1.7897     1.4859     1.4815 H       
  49 H49           -3.4813    -1.4204    -1.0099 H       
  50 H50           -3.5736    -1.6295     0.7558 H       
  51 H51           -4.9495     0.5611    -0.8655 H       
  52 H52           -5.7440    -0.8543    -0.1340 H       
  53 H53           -4.0523     2.0521     2.3573 H       
  54 H54           -3.9600     2.2611     0.5917 H       
  55 H55           -0.9305     4.1746    -0.7261 H       
  56 H56            2.6979     4.4081     1.6271 H       
  57 H57            1.7363    -4.4311    -0.1842 H       
  58 H58            4.3501    -4.3067    -1.2469 H       
  59 H59            4.4665    -4.3141     0.5293 H       
  60 H60            3.1266    -6.3990     0.6084 H       
  61 H61            3.0102    -6.3917    -1.1677 H       
  62 H62            2.8507     7.4345     0.2945 H       
  63 H63            1.3847     7.9827     1.1420 H       
  64 H64            2.6266     7.0578     2.0196 H       
  65 H65            5.4805    -6.5333    -1.3301 H       
  66 H66            5.5969    -6.5407     0.4460 H       
  67 H67           -9.0685     1.3133     3.2280 H       
  68 H68           -9.6865     3.0072     1.5527 H       
  69 H69           -8.1322     3.5647    -0.2719 H       
  70 H70           -5.9514     2.4336    -0.4229 H       
  71 H71            3.8775    -8.5907    -2.2842 H       
  72 H72            5.5235    -9.2661    -2.0988 H       
  73 H73            2.8773   -10.3876    -1.1302 H       
  74 H74            4.3445   -11.2596    -1.6872 H       
  75 H75            5.4101   -11.0433     0.4048 H       
  76 H76            3.7275   -10.9103     1.0054 H       
@<TRIPOS>BOND
   1    1    2 1
   2    1   18 am
   3    1   43 1
   4    2    3 ar
   5    2    7 ar
   6    3    4 ar
   7    3    8 1
   8    4    5 ar
   9    4   44 1
  10    5    6 ar
  11    5   45 1
  12    6    7 ar
  13    6   14 1
  14    7   46 1
  15    8    9 1
  16    8   10 1
  17    9   13 1
  18    9   47 1
  19    9   48 1
  20   10   11 1
  21   10   49 1
  22   10   50 1
  23   11   12 1
  24   11   51 1
  25   11   52 1
  26   12   13 1
  27   12   16 1
  28   13   53 1
  29   13   54 1
  30   14   15 2
  31   14   25 am
  32   16   17 ar
  33   16   35 ar
  34   17   32 ar
  35   17   36 1
  36   18   20 2
  37   18   19 1
  38   19   21 2
  39   19   22 1
  40   21   24 1
  41   21   55 1
  42   22   23 2
  43   22   56 1
  44   23   24 1
  45   23   28 1
  46   25   26 1
  47   25   57 1
  48   26   27 1
  49   26   58 1
  50   26   59 1
  51   27   29 1
  52   27   60 1
  53   27   61 1
  54   28   62 1
  55   28   63 1
  56   28   64 1
  57   29   30 1
  58   29   65 1
  59   29   66 1
  60   30   37 1
  61   30   31 am
  62   31   40 2
  63   31   39 1
  64   32   33 ar
  65   32   67 1
  66   33   34 ar
  67   33   68 1
  68   34   35 ar
  69   34   69 1
  70   35   70 1
  71   36   41 2
  72   36   42 2
  73   37   38 1
  74   37   71 1
  75   37   72 1
  76   38   39 1
  77   38   73 1
  78   38   74 1
  79   39   75 1
  80   39   76 1

#	End of record

