#	Name: ASD01885556
#	Creating user name:	WinNT
#	Creation time:	15. 06. 2019 19:49

#	Modifying user name:	WinNT
#	Modification time:	15. 06. 2019 19:49

#	Program:	/corina/corina34_cracker 3.40 0067  02.08.2006

@<TRIPOS>MOLECULE
ASD01885556
  50   53    0    0    0
SMALL
NO_CHARGES


@<TRIPOS>ATOM
   1 C1            -0.0164     1.3588     0.0095 C.ar    
   2 C2             0.0021    -0.0041     0.0020 C.ar    
   3 C3             1.2050    -0.7054    -0.0132 C.ar    
   4 C4             2.3987    -0.0472    -0.0211 C.ar    
   5 C5             2.4197     1.3531    -0.0137 C.ar    
   6 C6             1.1990     2.0738     0.0017 C.ar    
   7 C7             3.6429     2.0705    -0.0210 C.ar    
   8 C8             3.5828     3.4573    -0.0126 C.ar    
   9 C9             2.3365     4.0930     0.0026 C.ar    
  10 N10            1.2090     3.4069     0.0083 N.ar    
  11 C11            4.9435     1.3625    -0.0366 C.2     
  12 C12            2.2809     5.5745     0.0115 C.2     
  13 O13            3.3097     6.2211     0.0056 O.2     
  14 N14            1.0894     6.2041     0.0261 N.am    
  15 F15           -1.1937     2.0215     0.0187 F       
  16 C16           -1.2994    -0.7637     0.0109 C.3     
  17 N17           -1.8571    -0.7955    -1.3478 N.3     
  18 C18           -2.9960    -1.7217    -1.4283 C.3     
  19 C19           -3.5825    -1.6791    -2.8418 C.3     
  20 O20           -2.5579    -1.9974    -3.7875 O.3     
  21 C21           -1.4336    -1.1149    -3.7370 C.3     
  22 C22           -0.8253    -1.1517    -2.3326 C.3     
  23 C23           -4.7171    -2.6993    -2.9551 C.3     
  24 F24           -5.7166    -2.3902    -2.0264 F       
  25 F25           -5.2525    -2.6598    -4.2470 F       
  26 F26           -4.2195    -3.9808    -2.6955 F       
  27 C27            5.3344     0.3168     0.8250 C.2     
  28 N28            6.5465    -0.0446     0.4993 N.2     
  29 N29            6.9755     0.7471    -0.5726 N.pl3   
  30 C30            5.9826     1.5989    -0.8926 C.2     
  31 C31            8.2788     0.6601    -1.2359 C.3     
  32 H32            1.1920    -1.7853    -0.0186 H       
  33 H33            3.3244    -0.6034    -0.0326 H       
  34 H34            4.4914     4.0412    -0.0173 H       
  35 H35            0.2681     5.6880     0.0308 H       
  36 H36            1.0531     7.1735     0.0319 H       
  37 H37           -1.1230    -1.7827     0.3552 H       
  38 H38           -2.0034    -0.2705     0.6811 H       
  39 H39           -2.6586    -2.7337    -1.2046 H       
  40 H40           -3.7586    -1.4242    -0.7086 H       
  41 H41           -3.9685    -0.6804    -3.0458 H       
  42 H42           -0.6878    -1.4336    -4.4652 H       
  43 H43           -1.7572    -0.0997    -3.9670 H       
  44 H44           -0.0035    -0.4381    -2.2730 H       
  45 H45           -0.4532    -2.1546    -2.1233 H       
  46 H46            4.7361    -0.1104     1.6162 H       
  47 H47            6.0044     2.3366    -1.6811 H       
  48 H48            8.2196    -0.0489    -2.0617 H       
  49 H49            8.5576     1.6417    -1.6191 H       
  50 H50            9.0288     0.3229    -0.5205 H       
@<TRIPOS>BOND
   1    1    2 ar
   2    1    6 ar
   3    1   15 1
   4    2    3 ar
   5    2   16 1
   6    3    4 ar
   7    3   32 1
   8    4    5 ar
   9    4   33 1
  10    5    7 ar
  11    5    6 ar
  12    6   10 ar
  13    7    8 ar
  14    7   11 1
  15    8    9 ar
  16    8   34 1
  17    9   10 ar
  18    9   12 1
  19   11   27 1
  20   11   30 2
  21   12   13 2
  22   12   14 am
  23   14   35 1
  24   14   36 1
  25   16   17 1
  26   16   37 1
  27   16   38 1
  28   17   18 1
  29   17   22 1
  30   18   19 1
  31   18   39 1
  32   18   40 1
  33   19   20 1
  34   19   23 1
  35   19   41 1
  36   20   21 1
  37   21   22 1
  38   21   42 1
  39   21   43 1
  40   22   44 1
  41   22   45 1
  42   23   24 1
  43   23   25 1
  44   23   26 1
  45   27   28 2
  46   27   46 1
  47   28   29 1
  48   29   30 1
  49   29   31 1
  50   30   47 1
  51   31   48 1
  52   31   49 1
  53   31   50 1

#	End of record

