#	Name: ASD05660006
#	Creating user name:	WinNT
#	Creation time:	15. 06. 2019 21:01

#	Modifying user name:	WinNT
#	Modification time:	15. 06. 2019 21:01

#	Program:	/corina/corina34_cracker 3.40 0067  02.08.2006

@<TRIPOS>MOLECULE
ASD05660006
  52   53    0    0    0
SMALL
NO_CHARGES


@<TRIPOS>ATOM
   1 C1            -0.2735     1.4909    -0.1425 C.3     
   2 C2            -0.3547    -0.0199    -0.1931 C.2     
   3 C3             1.0098    -0.5344    -0.1562 C.2     
   4 C4             1.9108     0.4354    -0.0907 C.2     
   5 C5             1.2357     1.7839    -0.0746 C.3     
   6 C6             1.3554    -2.0008    -0.1883 C.3     
   7 O7             1.6478     2.5654    -1.2269 O.3     
   8 C8             1.6742     3.8995    -1.0806 C.2     
   9 C9             1.2947    -2.5620     1.2090 C.2     
  10 C10            0.5279    -3.6154     1.4692 C.2     
  11 C11            0.4687    -4.1632     2.8333 C.2     
  12 C12           -0.2981    -5.2166     3.0935 C.2     
  13 C13            2.0916     4.7758    -2.2333 C.3     
  14 O14            1.3634     4.3977    -0.0246 O.2     
  15 O15           -1.3696    -0.6820    -0.2527 O.2     
  16 C16            3.4015     0.2205    -0.0387 C.3     
  17 C17            1.3159     4.6353    -3.5445 C.3     
  18 C18            1.1231     5.8765    -2.6708 C.3     
  19 C19            2.0971     4.8042    -4.8492 C.3     
  20 C20            0.1757     3.6159    -3.5851 C.3     
  21 C21           -0.1753     6.0012    -1.9160 C.2     
  22 C22           -0.9241     7.0647    -2.0722 C.2     
  23 C23           -0.5620     8.0955    -3.1102 C.3     
  24 C24           -2.1478     7.2573    -1.2139 C.3     
  25 H25           -0.7068     1.9268    -1.0426 H       
  26 H26           -0.7764     1.8706     0.7469 H       
  27 H27            1.4756     2.3145     0.8468 H       
  28 H28            0.6430    -2.5282    -0.8229 H       
  29 H29            2.3615    -2.1284    -0.5878 H       
  30 H30            1.8746    -2.1078     1.9989 H       
  31 H31           -0.0519    -4.0695     0.6793 H       
  32 H32            1.0486    -3.7091     3.6232 H       
  33 H33           -0.3415    -5.6187     4.0949 H       
  34 H34           -0.8779    -5.6707     2.3036 H       
  35 H35            3.1587     4.9882    -2.3001 H       
  36 H36            3.6156    -0.8480    -0.0638 H       
  37 H37            3.8685     0.7049    -0.8962 H       
  38 H38            3.7985     0.6491     0.8815 H       
  39 H39            1.5529     6.8133    -3.0255 H       
  40 H40            2.1553     3.8455    -5.3646 H       
  41 H41            1.5891     5.5287    -5.4857 H       
  42 H42            3.1036     5.1588    -4.6267 H       
  43 H43            0.0467     3.1756    -2.5963 H       
  44 H44           -0.7466     4.1140    -3.8842 H       
  45 H45            0.4147     2.8318    -4.3036 H       
  46 H46           -0.4884     5.2139    -1.2463 H       
  47 H47            0.2855     7.7392    -3.6958 H       
  48 H48           -1.4141     8.2627    -3.7689 H       
  49 H49           -0.2953     9.0300    -2.6166 H       
  50 H50           -1.8760     7.8049    -0.3115 H       
  51 H51           -2.8964     7.8217    -1.7699 H       
  52 H52           -2.5559     6.2845    -0.9395 H       
@<TRIPOS>BOND
   1    1    2 1
   2    1    5 1
   3    1   25 1
   4    1   26 1
   5    2    3 1
   6    2   15 2
   7    3    4 2
   8    3    6 1
   9    4    5 1
  10    4   16 1
  11    5    7 1
  12    5   27 1
  13    6    9 1
  14    6   28 1
  15    6   29 1
  16    7    8 1
  17    8   13 1
  18    8   14 2
  19    9   10 2
  20    9   30 1
  21   10   11 1
  22   10   31 1
  23   11   12 2
  24   11   32 1
  25   12   33 1
  26   12   34 1
  27   13   17 1
  28   13   18 1
  29   13   35 1
  30   16   36 1
  31   16   37 1
  32   16   38 1
  33   17   18 1
  34   17   19 1
  35   17   20 1
  36   18   21 1
  37   18   39 1
  38   19   40 1
  39   19   41 1
  40   19   42 1
  41   20   43 1
  42   20   44 1
  43   20   45 1
  44   21   22 2
  45   21   46 1
  46   22   23 1
  47   22   24 1
  48   23   47 1
  49   23   48 1
  50   23   49 1
  51   24   50 1
  52   24   51 1
  53   24   52 1

#	End of record

