#	Name: ASD03090995
#	Creating user name:	WinNT
#	Creation time:	15. 06. 2019 20:29

#	Modifying user name:	WinNT
#	Modification time:	15. 06. 2019 20:29

#	Program:	/corina/corina34_cracker 3.40 0067  02.08.2006

@<TRIPOS>MOLECULE
ASD03090995
  46   49    0    0    0
SMALL
NO_CHARGES


@<TRIPOS>ATOM
   1 N1            -0.0175     1.3431    -0.0865 N.am    
   2 C2             0.0012    -0.0044    -0.0682 C.2     
   3 O3             1.0649    -0.5994    -0.0778 O.2     
   4 N4            -1.1464    -0.6880    -0.0396 N.2     
   5 C5             1.2408     2.0927    -0.1178 C.3     
   6 C6            -1.2961     2.0582    -0.0810 C.3     
   7 S7             0.2595    -3.0387    -0.0302 S.3     
   8 C8            -1.1280    -2.0187    -0.0216 C.2     
   9 N9            -2.1987    -2.8518     0.0077 N.pl3   
  10 C10           -1.9391    -4.1884     0.0222 C.2     
  11 C11           -0.6633    -4.5510     0.0063 C.2     
  12 C12           -0.1140    -5.9542     0.0173 C.3     
  13 C13            0.6078    -6.2214    -1.2783 C.ar    
  14 C14            1.9219    -6.6492    -1.2525 C.ar    
  15 C15            2.5767    -6.8925    -2.4500 C.ar    
  16 C16            1.8820    -6.6956    -3.6339 C.ar    
  17 C17            0.5696    -6.2664    -3.5812 C.ar    
  18 N18           -0.0232    -6.0496    -2.4232 N.ar    
  19 O19            0.7965    -6.1007     1.1089 O.3     
  20 O20           -7.4524    -1.1574     0.0453 O.3     
  21 C21           -8.0539    -2.4331     0.3354 C.3     
  22 O22           -7.0845    -3.3848    -0.1417 O.3     
  23 C23           -5.8790    -2.7494    -0.0608 C.ar    
  24 C24           -6.1048    -1.3793     0.0543 C.ar    
  25 C25           -4.5832    -3.2363    -0.0763 C.ar    
  26 C26           -3.5113    -2.3592     0.0230 C.ar    
  27 C27           -3.7393    -0.9949     0.1377 C.ar    
  28 C28           -5.0326    -0.5079     0.1538 C.ar    
  29 F29           -8.2518    -2.5814     1.7124 F       
  30 F30           -9.2627    -2.5748    -0.3544 F       
  31 H31            1.5357     2.2645    -1.1530 H       
  32 H32            1.1060     3.0503     0.3852 H       
  33 H33            2.0170     1.5212     0.3910 H       
  34 H34           -1.6010     2.2496     0.9478 H       
  35 H35           -1.1851     3.0052    -0.6092 H       
  36 H36           -2.0536     1.4518    -0.5776 H       
  37 H37           -2.7344    -4.9188     0.0456 H       
  38 H38           -0.9334    -6.6643     0.1299 H       
  39 H39            2.4323    -6.7917    -0.3114 H       
  40 H40            3.6035    -7.2272    -2.4605 H       
  41 H41            2.3609    -6.8751    -4.5852 H       
  42 H42            0.0217    -6.1107    -4.4988 H       
  43 H43            1.5524    -5.4987     1.0740 H       
  44 H44           -4.4060    -4.2979    -0.1651 H       
  45 H45           -2.9052    -0.3132     0.2149 H       
  46 H46           -5.2076     0.5542     0.2426 H       
@<TRIPOS>BOND
   1    1    2 am
   2    1    5 1
   3    1    6 1
   4    2    3 2
   5    2    4 1
   6    4    8 2
   7    5   31 1
   8    5   32 1
   9    5   33 1
  10    6   34 1
  11    6   35 1
  12    6   36 1
  13    7    8 1
  14    7   11 1
  15    8    9 1
  16    9   10 1
  17    9   26 1
  18   10   11 2
  19   10   37 1
  20   11   12 1
  21   12   13 1
  22   12   19 1
  23   12   38 1
  24   13   14 ar
  25   13   18 ar
  26   14   15 ar
  27   14   39 1
  28   15   16 ar
  29   15   40 1
  30   16   17 ar
  31   16   41 1
  32   17   18 ar
  33   17   42 1
  34   19   43 1
  35   20   21 1
  36   20   24 1
  37   21   22 1
  38   21   29 1
  39   21   30 1
  40   22   23 1
  41   23   24 ar
  42   23   25 ar
  43   24   28 ar
  44   25   26 ar
  45   25   44 1
  46   26   27 ar
  47   27   28 ar
  48   27   45 1
  49   28   46 1

#	End of record

