#	Name: ASD04560017
#	Creating user name:	WinNT
#	Creation time:	15. 06. 2019 20:49

#	Modifying user name:	WinNT
#	Modification time:	15. 06. 2019 20:49

#	Program:	/corina/corina34_cracker 3.40 0067  02.08.2006

@<TRIPOS>MOLECULE
ASD04560017
  63   66    0    0    0
SMALL
NO_CHARGES


@<TRIPOS>ATOM
   1 C1            -0.0173     1.3666     0.0244 C.ar    
   2 C2             0.0010    -0.0041     0.0241 C.ar    
   3 C3             1.2157    -0.6859     0.0136 C.ar    
   4 C4             2.4151     0.0225     0.0039 C.ar    
   5 C5             2.4031     1.3933     0.0042 C.ar    
   6 C6             1.1852     2.0805     0.0143 C.ar    
   7 C7             1.1690     3.5549     0.0141 C.2     
   8 O8             2.2154     4.1746     0.0053 O.2     
   9 N9            -0.0055     4.2159     0.0238 N.am    
  10 C10           -0.0226     5.6108     0.1367 C.ar    
  11 C11           -0.9921     6.3504    -0.5279 C.ar    
  12 C12            0.9079     7.6335     1.0278 C.ar    
  13 C13            0.9265     6.2569     0.9179 C.ar    
  14 F14           -0.0727     9.7160     0.4686 F       
  15 S15            1.2351    -2.4478     0.0132 S.3     
  16 C16            3.0069    -2.8364    -0.0020 C.3     
  17 C17           -1.0071     7.7268    -0.4152 C.ar    
  18 C18           -0.0563     8.3694     0.3597 C.ar    
  19 C19            3.1960    -4.3547    -0.0039 C.3     
  20 C20            4.6680    -4.6775    -0.0165 C.ar    
  21 C21            5.3827    -4.7245     1.1791 C.ar    
  22 C22            6.7441    -5.0242     1.1601 C.ar    
  23 C23            7.3764    -5.2725    -0.0405 C.ar    
  24 C24            6.6619    -5.2240    -1.2248 C.ar    
  25 C25            5.3095    -4.9327    -1.2113 C.ar    
  26 B26            4.6574    -4.4405     2.5423 Du      
  27 O27            5.2325    -4.4461     3.8566 O.3     
  28 C28            4.2304    -5.0639     4.6913 C.3     
  29 C29            2.9027    -4.8415     3.9386 C.3     
  30 O30            3.2756    -4.1124     2.7459 O.3     
  31 C31            4.5123    -6.5599     4.8442 C.3     
  32 C32            4.1861    -4.3856     6.0620 C.3     
  33 C33            2.2669    -6.1837     3.5711 C.3     
  34 C34            1.9407    -4.0095     4.7889 C.3     
  35 H35           -0.9594     1.8947     0.0280 H       
  36 H36           -0.9274    -0.5560     0.0322 H       
  37 H37            3.3553    -0.5088    -0.0035 H       
  38 H38            3.3333     1.9420    -0.0029 H       
  39 H39           -0.8390     3.7249    -0.0474 H       
  40 H40           -1.7336     5.8496    -1.1326 H       
  41 H41            1.6459     8.1363     1.6353 H       
  42 H42            1.6784     5.6833     1.4393 H       
  43 H43            3.4643    -2.4122    -0.8959 H       
  44 H44            3.4794    -2.4125     0.8840 H       
  45 H45           -1.7607     8.3024    -0.9321 H       
  46 H46            2.7387    -4.7789     0.8900 H       
  47 H47            2.7235    -4.7786    -0.8899 H       
  48 H48            7.3027    -5.0617     2.0837 H       
  49 H49            8.4310    -5.5048    -0.0564 H       
  50 H50            7.1610    -5.4187    -2.1626 H       
  51 H51            4.7567    -4.8964    -2.1384 H       
  52 H52            5.4802    -6.6998     5.3257 H       
  53 H53            3.7333    -7.0158     5.4552 H       
  54 H54            4.5245    -7.0297     3.8608 H       
  55 H55            3.9686    -3.3250     5.9357 H       
  56 H56            3.4078    -4.8462     6.6704 H       
  57 H57            5.1505    -4.5024     6.5565 H       
  58 H58            2.0690    -6.7528     4.4795 H       
  59 H59            1.3309    -6.0092     3.0405 H       
  60 H60            2.9478    -6.7454     2.9316 H       
  61 H61            2.3921    -3.0414     5.0062 H       
  62 H62            1.0087    -3.8615     4.2434 H       
  63 H63            1.7359    -4.5327     5.7229 H       
@<TRIPOS>BOND
   1    1    2 ar
   2    1    6 ar
   3    1   35 1
   4    2    3 ar
   5    2   36 1
   6    3    4 ar
   7    3   15 1
   8    4    5 ar
   9    4   37 1
  10    5    6 ar
  11    5   38 1
  12    6    7 1
  13    7    8 2
  14    7    9 am
  15    9   10 1
  16    9   39 1
  17   10   11 ar
  18   10   13 ar
  19   11   17 ar
  20   11   40 1
  21   12   13 ar
  22   12   18 ar
  23   12   41 1
  24   13   42 1
  25   14   18 1
  26   15   16 1
  27   16   19 1
  28   16   43 1
  29   16   44 1
  30   17   18 ar
  31   17   45 1
  32   19   20 1
  33   19   46 1
  34   19   47 1
  35   20   21 ar
  36   20   25 ar
  37   21   22 ar
  38   21   26 1
  39   22   23 ar
  40   22   48 1
  41   23   24 ar
  42   23   49 1
  43   24   25 ar
  44   24   50 1
  45   25   51 1
  46   26   27 1
  47   26   30 1
  48   27   28 1
  49   28   29 1
  50   28   31 1
  51   28   32 1
  52   29   30 1
  53   29   33 1
  54   29   34 1
  55   31   52 1
  56   31   53 1
  57   31   54 1
  58   32   55 1
  59   32   56 1
  60   32   57 1
  61   33   58 1
  62   33   59 1
  63   33   60 1
  64   34   61 1
  65   34   62 1
  66   34   63 1

#	End of record

