#	Name: ASD01882958
#	Creating user name:	WinNT
#	Creation time:	15. 06. 2019 19:45

#	Modifying user name:	WinNT
#	Modification time:	15. 06. 2019 19:45

#	Program:	/corina/corina34_cracker 3.40 0067  02.08.2006

@<TRIPOS>MOLECULE
ASD01882958
  23   22    0    0    0
SMALL
NO_CHARGES


@<TRIPOS>ATOM
   1 C1            -0.0173     1.4278     0.0099 C.2     
   2 C2             0.0021    -0.0041     0.0020 C.1     
   3 C3             0.0180    -1.1779    -0.0044 C.1     
   4 C4             0.0380    -2.6498    -0.0125 C.3     
   5 O5             1.0268     2.0497     0.0033 O.2     
   6 O6            -1.1938     2.0858     0.0190 O.3     
   7 S7            -1.6639    -3.2777     0.0003 S.3     
   8 C8            -1.4350    -5.0771    -0.0115 C.3     
   9 C9            -2.8016    -5.7651    -0.0022 C.3     
  10 C10           -1.1375     3.5367     0.0267 C.3     
  11 C11           -2.5591     4.1022     0.0365 C.3     
  12 H12            0.5481    -3.0013    -0.9093 H       
  13 H13            0.5651    -3.0109     0.8705 H       
  14 H14           -0.8880    -5.3679    -0.9083 H       
  15 H15           -0.8710    -5.3775     0.8715 H       
  16 H16           -3.3486    -5.4743     0.8947 H       
  17 H17           -3.3656    -5.4648    -0.8852 H       
  18 H18           -2.6640    -6.8464    -0.0093 H       
  19 H19           -0.6057     3.8750     0.9160 H       
  20 H20           -0.6141     3.8847    -0.8639 H       
  21 H21           -3.0908     3.7639    -0.8528 H       
  22 H22           -3.0824     3.7543     0.9271 H       
  23 H23           -2.5168     5.1914     0.0422 H       
@<TRIPOS>BOND
   1    1    2 1
   2    1    5 2
   3    1    6 1
   4    2    3 3
   5    3    4 1
   6    4    7 1
   7    4   12 1
   8    4   13 1
   9    6   10 1
  10    7    8 1
  11    8    9 1
  12    8   14 1
  13    8   15 1
  14    9   16 1
  15    9   17 1
  16    9   18 1
  17   10   11 1
  18   10   19 1
  19   10   20 1
  20   11   21 1
  21   11   22 1
  22   11   23 1

#	End of record

