#	Name: ASD05730033
#	Creating user name:	WinNT
#	Creation time:	15. 06. 2019 21:02

#	Modifying user name:	WinNT
#	Modification time:	15. 06. 2019 21:02

#	Program:	/corina/corina34_cracker 3.40 0067  02.08.2006

@<TRIPOS>MOLECULE
ASD05730033
  37   40    0    0    0
SMALL
NO_CHARGES


@<TRIPOS>ATOM
   1 C1            -0.0441     1.5252    -0.5106 C.ar    
   2 C2            -0.0849     0.1442    -0.3360 C.ar    
   3 C3             1.0340    -0.5519     0.0072 C.ar    
   4 C4             2.2491     0.1304     0.1882 C.ar    
   5 C5             2.2891     1.5350     0.0097 C.ar    
   6 C6             1.1170     2.2186    -0.3433 C.ar    
   7 C7             3.4236    -0.5561     0.5431 C.ar    
   8 C8             4.5886     0.1294     0.7128 C.ar    
   9 C9             4.6427     1.5082     0.5414 C.ar    
  10 C10            3.5118     2.2210     0.1918 C.ar    
  11 S11            3.5924     3.9680    -0.0233 S.3     
  12 S12            5.6247     4.2564     0.1501 S.3     
  13 C13            6.1983     4.0380    -1.5016 C.ar    
  14 C14            6.1448     5.1067    -2.4217 C.ar    
  15 C15            6.6117     4.9082    -3.7452 C.ar    
  16 C16            7.1201     3.6534    -4.1200 C.ar    
  17 C17            7.1620     2.6358    -3.2142 C.ar    
  18 C18            6.7116     2.8171    -1.9082 C.ar    
  19 C19            5.6374     6.3614    -2.0505 C.ar    
  20 C20            5.6000     7.3707    -2.9640 C.ar    
  21 C21            6.0588     7.1770    -4.2655 C.ar    
  22 C22            6.5577     5.9740    -4.6607 C.ar    
  23 O23            6.7664     1.7819    -1.0267 O.3     
  24 H24           -0.9445     2.0537    -0.7869 H       
  25 H25           -1.0176    -0.3824    -0.4745 H       
  26 H26            0.9877    -1.6227     0.1400 H       
  27 H27            1.1343     3.2895    -0.4819 H       
  28 H28            3.4021    -1.6269     0.6816 H       
  29 H29            5.4853    -0.4073     0.9855 H       
  30 H30            5.5791     2.0276     0.6823 H       
  31 H31            7.4777     3.4948    -5.1267 H       
  32 H32            7.5544     1.6748    -3.5124 H       
  33 H33            5.2781     6.5257    -1.0453 H       
  34 H34            5.2088     8.3352    -2.6757 H       
  35 H35            6.0182     7.9937    -4.9710 H       
  36 H36            6.9097     5.8384    -5.6727 H       
  37 H37            7.5930     1.7340    -0.5272 H       
@<TRIPOS>BOND
   1    1    2 ar
   2    1    6 ar
   3    1   24 1
   4    2    3 ar
   5    2   25 1
   6    3    4 ar
   7    3   26 1
   8    4    5 ar
   9    4    7 ar
  10    5    6 ar
  11    5   10 ar
  12    6   27 1
  13    7    8 ar
  14    7   28 1
  15    8    9 ar
  16    8   29 1
  17    9   10 ar
  18    9   30 1
  19   10   11 1
  20   11   12 1
  21   12   13 1
  22   13   14 ar
  23   13   18 ar
  24   14   15 ar
  25   14   19 ar
  26   15   16 ar
  27   15   22 ar
  28   16   17 ar
  29   16   31 1
  30   17   18 ar
  31   17   32 1
  32   18   23 1
  33   19   20 ar
  34   19   33 1
  35   20   21 ar
  36   20   34 1
  37   21   22 ar
  38   21   35 1
  39   22   36 1
  40   23   37 1

#	End of record

