#	Name: ASD01180108
#	Creating user name:	WinNT
#	Creation time:	15. 06. 2019 19:06

#	Modifying user name:	WinNT
#	Modification time:	15. 06. 2019 19:06

#	Program:	/corina/corina34_cracker 3.40 0067  02.08.2006

@<TRIPOS>MOLECULE
ASD01180108
  53   55    0    0    0
SMALL
NO_CHARGES


@<TRIPOS>ATOM
   1 C1            -0.0180     1.4730     0.0101 C.2     
   2 C2             0.0021    -0.0041     0.0020 C.ar    
   3 C3             1.2188    -0.6888    -0.0133 C.ar    
   4 C4             1.2303    -2.0682    -0.0203 C.ar    
   5 C5             0.0396    -2.7731    -0.0127 C.ar    
   6 C6            -1.1697    -2.1009     0.0020 C.ar    
   7 C7            -1.1956    -0.7217     0.0154 C.ar    
   8 O8             1.0256     2.0946     0.0035 O.2     
   9 O9            -1.1936     2.1307     0.0193 O.3     
  10 C10            0.0601    -4.2800    -0.0210 C.3     
  11 C11           -0.1699    -4.8009     1.3991 C.3     
  12 C12           -0.0255    -6.3241     1.4132 C.3     
  13 C13           -0.2555    -6.8450     2.8333 C.3     
  14 N14           -0.9997    -4.7779    -0.9014 N.pl3   
  15 N15            0.1836    -6.7599    -1.2374 N.ar    
  16 C16           -0.8848    -6.0307    -1.4850 C.ar    
  17 C17           -1.9093    -6.4915    -2.3249 C.ar    
  18 C18           -1.8104    -7.7200    -2.9047 C.ar    
  19 C19           -0.6639    -8.4958    -2.6355 C.ar    
  20 C20           -0.4976    -9.7692    -3.2004 C.ar    
  21 C21            0.6236   -10.4901    -2.9187 C.ar    
  22 C22            1.6077    -9.9795    -2.0762 C.ar    
  23 C23            1.4781    -8.7473    -1.5112 C.ar    
  24 C24            0.3358    -7.9742    -1.7786 C.ar    
  25 C25           -3.1175    -5.6291    -2.5848 C.3     
  26 C26           -1.1373     3.5816     0.0269 C.3     
  27 C27           -2.5589     4.1471     0.0367 C.3     
  28 H28            2.1488    -0.1398    -0.0199 H       
  29 H29            2.1707    -2.5992    -0.0321 H       
  30 H30           -2.0953    -2.6572     0.0071 H       
  31 H31           -2.1401    -0.1983     0.0318 H       
  32 H32            1.0272    -4.6283    -0.3836 H       
  33 H33            0.5660    -4.3600     2.0715 H       
  34 H34           -1.1725    -4.5280     1.7284 H       
  35 H35           -0.7614    -6.7650     0.7408 H       
  36 H36            0.9771    -6.5970     1.0840 H       
  37 H37           -0.1526    -7.9301     2.8433 H       
  38 H38            0.4804    -6.4041     3.5057 H       
  39 H39           -1.2581    -6.5720     3.1625 H       
  40 H40           -1.7818    -4.2314    -1.0761 H       
  41 H41           -2.5901    -8.0905    -3.5537 H       
  42 H42           -1.2544   -10.1760    -3.8547 H       
  43 H43            0.7506   -11.4702    -3.3541 H       
  44 H44            2.4875   -10.5702    -1.8673 H       
  45 H45            2.2503    -8.3659    -0.8597 H       
  46 H46           -2.9347    -5.0008    -3.4566 H       
  47 H47           -3.9840    -6.2640    -2.7699 H       
  48 H48           -3.3077    -4.9988    -1.7161 H       
  49 H49           -0.6055     3.9199     0.9162 H       
  50 H50           -0.6140     3.9295    -0.8637 H       
  51 H51           -2.5166     5.2362     0.0424 H       
  52 H52           -3.0907     3.8088    -0.8526 H       
  53 H53           -3.0822     3.7991     0.9273 H       
@<TRIPOS>BOND
   1    1    2 1
   2    1    8 2
   3    1    9 1
   4    2    3 ar
   5    2    7 ar
   6    3    4 ar
   7    3   28 1
   8    4    5 ar
   9    4   29 1
  10    5    6 ar
  11    5   10 1
  12    6    7 ar
  13    6   30 1
  14    7   31 1
  15    9   26 1
  16   10   11 1
  17   10   14 1
  18   10   32 1
  19   11   12 1
  20   11   33 1
  21   11   34 1
  22   12   13 1
  23   12   35 1
  24   12   36 1
  25   13   37 1
  26   13   38 1
  27   13   39 1
  28   14   16 1
  29   14   40 1
  30   15   16 ar
  31   15   24 ar
  32   16   17 ar
  33   17   18 ar
  34   17   25 1
  35   18   19 ar
  36   18   41 1
  37   19   20 ar
  38   19   24 ar
  39   20   21 ar
  40   20   42 1
  41   21   22 ar
  42   21   43 1
  43   22   23 ar
  44   22   44 1
  45   23   24 ar
  46   23   45 1
  47   25   46 1
  48   25   47 1
  49   25   48 1
  50   26   27 1
  51   26   49 1
  52   26   50 1
  53   27   51 1
  54   27   52 1
  55   27   53 1

#	End of record

