#	Name: ASD01918506
#	Creating user name:	WinNT
#	Creation time:	15. 06. 2019 20:11

#	Modifying user name:	WinNT
#	Modification time:	15. 06. 2019 20:11

#	Program:	/corina/corina34_cracker 3.40 0067  02.08.2006

@<TRIPOS>MOLECULE
ASD01918506
  38   41    0    0    0
SMALL
NO_CHARGES


@<TRIPOS>ATOM
   1 N1            -0.0179     1.4664     0.0105 N.am    
   2 C2             0.0017    -0.0038    -0.0187 C.3     
   3 C3            -0.5950    -0.5398     1.2889 C.3     
   4 C4            -1.8537     0.2284     1.5997 C.2     
   5 C5            -2.1813     1.4199     1.0558 C.2     
   6 C6            -1.3241     2.1481     0.0545 C.3     
   7 O7            -2.8425    -0.1119     2.4398 O.3     
   8 C8            -3.7615     0.8719     2.4058 C.2     
   9 N9            -3.3547     1.7976     1.5654 N.2     
  10 C10           -5.0182     0.9052     3.1833 C.ar    
  11 N11           -5.3131    -0.0987     4.0012 N.ar    
  12 C12           -5.8817     1.9939     3.0560 C.ar    
  13 C13           -7.0539     2.0118     3.7901 C.ar    
  14 C14           -7.3269     0.9386     4.6303 C.ar    
  15 C15           -6.4216    -0.1076     4.7117 C.ar    
  16 F16           -8.4609     0.9181     5.3643 F       
  17 C17            1.1299     2.1727     0.0029 C.2     
  18 C18            1.0900     3.6471    -0.1004 C.ar    
  19 O19            2.1980     1.5976     0.0810 O.2     
  20 C20            2.0338     4.4225     0.5747 C.ar    
  21 C21            1.9921     5.7981     0.4750 C.ar    
  22 C22            1.0177     6.4103    -0.2920 C.ar    
  23 C23            0.0766     5.6472    -0.9651 C.ar    
  24 C24            0.1119     4.2687    -0.8780 C.ar    
  25 F25           -0.8728     6.2519    -1.7122 F       
  26 H26           -0.5901    -0.3595    -0.8621 H       
  27 H27            1.0294    -0.3526    -0.1202 H       
  28 H28           -0.8312    -1.5978     1.1758 H       
  29 H29            0.1226    -0.4083     2.0988 H       
  30 H30           -1.1945     3.1857     0.3622 H       
  31 H31           -1.7888     2.1077    -0.9306 H       
  32 H32           -5.6379     2.8115     2.3937 H       
  33 H33           -7.7414     2.8411     3.7125 H       
  34 H34           -6.6303    -0.9434     5.3630 H       
  35 H35            2.7954     3.9465     1.1745 H       
  36 H36            2.7222     6.3983     0.9977 H       
  37 H37            0.9897     7.4874    -0.3665 H       
  38 H38           -0.6213     3.6742    -1.4028 H       
@<TRIPOS>BOND
   1    1    2 1
   2    1   17 am
   3    1    6 1
   4    2    3 1
   5    2   26 1
   6    2   27 1
   7    3    4 1
   8    3   28 1
   9    3   29 1
  10    4    5 2
  11    4    7 1
  12    5    6 1
  13    5    9 1
  14    6   30 1
  15    6   31 1
  16    7    8 1
  17    8    9 2
  18    8   10 1
  19   10   11 ar
  20   10   12 ar
  21   11   15 ar
  22   12   13 ar
  23   12   32 1
  24   13   14 ar
  25   13   33 1
  26   14   15 ar
  27   14   16 1
  28   15   34 1
  29   17   18 1
  30   17   19 2
  31   18   20 ar
  32   18   24 ar
  33   20   21 ar
  34   20   35 1
  35   21   22 ar
  36   21   36 1
  37   22   23 ar
  38   22   37 1
  39   23   24 ar
  40   23   25 1
  41   24   38 1

#	End of record

