#	Name: ASD03430005
#	Creating user name:	WinNT
#	Creation time:	15. 06. 2019 20:40

#	Modifying user name:	WinNT
#	Modification time:	15. 06. 2019 20:40

#	Program:	/corina/corina34_cracker 3.40 0067  02.08.2006

@<TRIPOS>MOLECULE
ASD03430005
  45   49    0    0    0
SMALL
NO_CHARGES


@<TRIPOS>ATOM
   1 C1            -0.0169     1.3941     0.0097 C.ar    
   2 C2             0.0021    -0.0041     0.0020 C.ar    
   3 C3             1.1995    -0.6761    -0.0104 C.ar    
   4 C4             2.4101     0.0196    -0.0064 C.ar    
   5 C5             2.3943     1.4118    -0.0055 C.ar    
   6 C6             1.1961     2.0995     0.0019 C.ar    
   7 O7             3.4693    -0.8365     0.0100 O.3     
   8 C8             1.5488    -2.1403    -0.0413 C.3     
   9 C9             3.0353    -2.1397    -0.4231 C.3     
  10 C10            0.4196    -3.8495     1.0183 C.ar    
  11 C11            1.3105    -2.8114     1.2788 C.ar    
  12 C12            0.7172    -2.9029    -1.0319 C.2     
  13 N13            0.0921    -3.8759    -0.3395 N.am    
  14 O14            0.6253    -2.6855    -2.2216 O.2     
  15 C15            1.7775    -2.5920     2.5554 C.ar    
  16 C16            1.3624    -3.4056     3.5945 C.ar    
  17 C17            0.4770    -4.4391     3.3475 C.ar    
  18 C18            0.0062    -4.6629     2.0705 C.ar    
  19 C19           -0.8238    -4.8484    -0.9409 C.3     
  20 C20           -2.2507    -4.2979    -0.9004 C.3     
  21 O21            1.1922     3.4566     0.0012 O.3     
  22 C22           -3.2225    -5.3141    -1.5311 C.3     
  23 C23           -4.2366    -5.6204    -0.4022 C.3     
  24 C24           -4.0758    -4.3868     0.5223 C.3     
  25 O25           -2.6612    -4.1040     0.4635 O.3     
  26 C26           -1.2629     2.0997     0.0195 C.1     
  27 N27           -2.2514     2.6594     0.0272 N.1     
  28 H28           -0.9262    -0.5561     0.0062 H       
  29 H29            3.3258     1.9584    -0.0099 H       
  30 H30            3.1581    -2.2502    -1.5005 H       
  31 H31            3.5723    -2.9236     0.1110 H       
  32 H32            2.4688    -1.7843     2.7457 H       
  33 H33            1.7289    -3.2344     4.5958 H       
  34 H34            0.1529    -5.0743     4.1586 H       
  35 H35           -0.6854    -5.4716     1.8859 H       
  36 H36           -0.5333    -5.0291    -1.9759 H       
  37 H37           -0.7790    -5.7834    -0.3824 H       
  38 H38           -2.2990    -3.3534    -1.4422 H       
  39 H39            1.1965     3.8504     0.8844 H       
  40 H40           -3.7292    -4.8747    -2.3903 H       
  41 H41           -2.6910    -6.2199    -1.8227 H       
  42 H42           -5.2509    -5.6814    -0.7966 H       
  43 H43           -3.9690    -6.5374     0.1227 H       
  44 H44           -4.6519    -3.5437     0.1410 H       
  45 H45           -4.3768    -4.6291     1.5415 H       
@<TRIPOS>BOND
   1    1    2 ar
   2    1    6 ar
   3    1   26 1
   4    2    3 ar
   5    2   28 1
   6    3    4 ar
   7    3    8 1
   8    4    5 ar
   9    4    7 1
  10    5    6 ar
  11    5   29 1
  12    6   21 1
  13    7    9 1
  14    8    9 1
  15    8   11 1
  16    8   12 1
  17    9   30 1
  18    9   31 1
  19   10   11 ar
  20   10   13 1
  21   10   18 ar
  22   11   15 ar
  23   12   13 am
  24   12   14 2
  25   13   19 1
  26   15   16 ar
  27   15   32 1
  28   16   17 ar
  29   16   33 1
  30   17   18 ar
  31   17   34 1
  32   18   35 1
  33   19   20 1
  34   19   36 1
  35   19   37 1
  36   20   22 1
  37   20   25 1
  38   20   38 1
  39   21   39 1
  40   22   23 1
  41   22   40 1
  42   22   41 1
  43   23   24 1
  44   23   42 1
  45   23   43 1
  46   24   25 1
  47   24   44 1
  48   24   45 1
  49   26   27 3

#	End of record

