#	Name: ASD03200055
#	Creating user name:	WinNT
#	Creation time:	15. 06. 2019 20:34

#	Modifying user name:	WinNT
#	Modification time:	15. 06. 2019 20:34

#	Program:	/corina/corina34_cracker 3.40 0067  02.08.2006

@<TRIPOS>MOLECULE
ASD03200055
  50   53    0    0    0
SMALL
NO_CHARGES


@<TRIPOS>ATOM
   1 C1             0.9979    -1.0922    -0.1506 C.3     
   2 N2             0.0122    -0.0173     0.0209 N.3     
   3 C3             0.3566     0.8420     1.1608 C.3     
   4 C4             1.7115     1.5075     0.9087 C.3     
   5 C5             2.7787     0.4258     0.7202 C.3     
   6 C6             2.3719    -0.4845    -0.4418 C.3     
   7 C7            -1.2744    -0.5364     0.1573 C.ar    
   8 C8            -1.9740    -0.4076     1.3547 C.ar    
   9 C9            -3.2460    -0.9347     1.4499 C.ar    
  10 N10           -3.8026    -1.5547     0.4267 N.ar    
  11 C11           -3.1771    -1.7001    -0.7264 C.ar    
  12 C12           -1.8999    -1.1958    -0.9075 C.ar    
  13 N13           -1.2402    -1.3523    -2.1339 N.am    
  14 C14           -1.4321    -2.4683    -2.8648 C.2     
  15 C15           -0.6727    -2.6742    -4.1005 C.2     
  16 O16           -2.2367    -3.3053    -2.4981 O.2     
  17 C17           -0.8958    -3.7400    -4.9441 C.2     
  18 S18            0.2237    -3.6071    -6.2980 S.3     
  19 C19            0.8930    -2.1313    -5.6116 C.2     
  20 N20            0.2880    -1.8422    -4.5047 N.2     
  21 C21            1.9823    -1.3349    -6.2144 C.ar    
  22 N22           -1.8324    -4.7375    -4.7608 N.pl3   
  23 C23            2.3630    -0.1186    -5.6412 C.ar    
  24 N24            2.0653     2.3505     2.0584 N.3     
  25 C25            2.6403    -1.7970    -7.3566 C.ar    
  26 C26            3.6570    -1.0478    -7.9144 C.ar    
  27 C27            4.0255     0.1582    -7.3449 C.ar    
  28 C28            3.3828     0.6204    -6.2110 C.ar    
  29 Cl29           2.1810    -3.3103    -8.0728 Cl      
  30 F30            1.7358     0.3339    -4.5334 F       
  31 H31            1.0496    -1.6865     0.7617 H       
  32 H32            0.6989    -1.7298    -0.9826 H       
  33 H33           -0.4081     1.6094     1.2812 H       
  34 H34            0.4113     0.2387     2.0670 H       
  35 H35            1.6535     2.1220     0.0102 H       
  36 H36            3.7372     0.8946     0.4974 H       
  37 H37            2.8642    -0.1644     1.6326 H       
  38 H38            3.1063    -1.2822    -0.5536 H       
  39 H39            2.3243     0.0986    -1.3615 H       
  40 H40           -1.5268     0.0979     2.1978 H       
  41 H41           -3.7937    -0.8385     2.3757 H       
  42 H42           -3.6683    -2.2143    -1.5392 H       
  43 H43           -0.6453    -0.6574    -2.4568 H       
  44 H44           -2.4072    -4.7254    -3.9795 H       
  45 H45           -1.9157    -5.4504    -5.4132 H       
  46 H46            2.9916     2.7365     1.9524 H       
  47 H47            1.3827     3.0809     2.1949 H       
  48 H48            4.1664    -1.4042    -8.7975 H       
  49 H49            4.8221     0.7393    -7.7856 H       
  50 H50            3.6755     1.5628    -5.7722 H       
@<TRIPOS>BOND
   1    1    2 1
   2    1    6 1
   3    1   31 1
   4    1   32 1
   5    2    3 1
   6    2    7 1
   7    3    4 1
   8    3   33 1
   9    3   34 1
  10    4    5 1
  11    4   24 1
  12    4   35 1
  13    5    6 1
  14    5   36 1
  15    5   37 1
  16    6   38 1
  17    6   39 1
  18    7    8 ar
  19    7   12 ar
  20    8    9 ar
  21    8   40 1
  22    9   10 ar
  23    9   41 1
  24   10   11 ar
  25   11   12 ar
  26   11   42 1
  27   12   13 1
  28   13   14 am
  29   13   43 1
  30   14   15 1
  31   14   16 2
  32   15   17 2
  33   15   20 1
  34   17   18 1
  35   17   22 1
  36   18   19 1
  37   19   20 2
  38   19   21 1
  39   21   25 ar
  40   21   23 ar
  41   22   44 1
  42   22   45 1
  43   23   30 1
  44   23   28 ar
  45   24   46 1
  46   24   47 1
  47   25   26 ar
  48   25   29 1
  49   26   27 ar
  50   26   48 1
  51   27   28 ar
  52   27   49 1
  53   28   50 1

#	End of record

