#	Name: ASD01917223
#	Creating user name:	WinNT
#	Creation time:	15. 06. 2019 20:08

#	Modifying user name:	WinNT
#	Modification time:	15. 06. 2019 20:08

#	Program:	/corina/corina34_cracker 3.40 0067  02.08.2006

@<TRIPOS>MOLECULE
ASD01917223
  49   53    0    0    0
SMALL
NO_CHARGES


@<TRIPOS>ATOM
   1 C1            -0.0171     1.4084     0.0098 C.ar    
   2 C2             0.0021    -0.0041     0.0020 C.ar    
   3 C3            -1.1925    -0.7196     0.0400 C.ar    
   4 C4            -2.3902    -0.0393     0.0716 C.ar    
   5 C5            -2.4136     1.3494     0.0659 C.ar    
   6 C6            -1.2441     2.0748     0.0361 C.ar    
   7 N7             1.1593     2.0732     0.0021 N.2     
   8 C8             2.3195     1.4657    -0.0392 C.2     
   9 N9             2.4203     0.1177    -0.1560 N.am    
  10 C10            1.3102    -0.6646    -0.0612 C.2     
  11 C11           -3.7362     2.0712     0.0928 C.3     
  12 O12            1.4007    -1.8781    -0.0293 O.2     
  13 C13           -4.7077     1.8088    -1.0598 C.3     
  14 C14            3.5352     2.3436     0.1019 C.3     
  15 C15            4.7917     1.6909    -0.4307 C.3     
  16 C16            4.8967     0.2349    -0.0255 C.3     
  17 C17            3.6799    -0.5639    -0.4341 C.3     
  18 C18            6.1350    -0.3754    -0.6852 C.3     
  19 C19            5.0563     0.1533     1.4939 C.3     
  20 C20           -4.2687     0.8484    -2.1349 C.ar    
  21 N21           -3.7050     1.3126    -3.2328 N.ar    
  22 C22           -3.3052     0.5099    -4.1998 C.ar    
  23 C23           -3.4657    -0.8585    -4.0943 C.ar    
  24 C24           -4.0546    -1.3839    -2.9540 C.ar    
  25 C25           -4.4565    -0.5093    -1.9563 C.ar    
  26 C26           -4.9940     1.2325     0.3283 C.3     
  27 H27           -1.1799    -1.7995     0.0441 H       
  28 H28           -3.3185    -0.5905     0.1008 H       
  29 H29           -1.2753     3.1544     0.0327 H       
  30 H30           -3.7150     3.0760     0.5147 H       
  31 H31           -5.3254     2.6413    -1.3967 H       
  32 H32            3.3635     3.2725    -0.4420 H       
  33 H33            3.6800     2.5773     1.1566 H       
  34 H34            4.7901     1.7560    -1.5188 H       
  35 H35            5.6591     2.2282    -0.0472 H       
  36 H36            3.6891    -1.5133     0.1012 H       
  37 H37            3.7384    -0.7678    -1.5033 H       
  38 H38            7.0240     0.1632    -0.3573 H       
  39 H39            6.2193    -1.4239    -0.3995 H       
  40 H40            6.0436    -0.3003    -1.7688 H       
  41 H41            4.1904     0.6080     1.9751 H       
  42 H42            5.1328    -0.8914     1.7956 H       
  43 H43            5.9594     0.6850     1.7935 H       
  44 H44           -2.8475     0.9269    -5.0847 H       
  45 H45           -3.1369    -1.5106    -4.8899 H       
  46 H46           -4.1932    -2.4493    -2.8442 H       
  47 H47           -4.9183    -0.8835    -1.0546 H       
  48 H48           -4.8649     0.1587     0.4639 H       
  49 H49           -5.8004     1.6857     0.9049 H       
@<TRIPOS>BOND
   1    1    2 ar
   2    1    7 1
   3    1    6 ar
   4    2    3 ar
   5    2   10 1
   6    3    4 ar
   7    3   27 1
   8    4    5 ar
   9    4   28 1
  10    5    6 ar
  11    5   11 1
  12    6   29 1
  13    7    8 2
  14    8    9 1
  15    8   14 1
  16    9   10 am
  17    9   17 1
  18   10   12 2
  19   11   26 1
  20   11   13 1
  21   11   30 1
  22   13   20 1
  23   13   26 1
  24   13   31 1
  25   14   15 1
  26   14   32 1
  27   14   33 1
  28   15   16 1
  29   15   34 1
  30   15   35 1
  31   16   17 1
  32   16   18 1
  33   16   19 1
  34   17   36 1
  35   17   37 1
  36   18   38 1
  37   18   39 1
  38   18   40 1
  39   19   41 1
  40   19   42 1
  41   19   43 1
  42   20   21 ar
  43   20   25 ar
  44   21   22 ar
  45   22   23 ar
  46   22   44 1
  47   23   24 ar
  48   23   45 1
  49   24   25 ar
  50   24   46 1
  51   25   47 1
  52   26   48 1
  53   26   49 1

#	End of record

