#	Name: ASD08070319
#	Creating user name:	WinNT
#	Creation time:	15. 06. 2019 21:14

#	Modifying user name:	WinNT
#	Modification time:	15. 06. 2019 21:14

#	Program:	/corina/corina34_cracker 3.40 0067  02.08.2006

@<TRIPOS>MOLECULE
ASD08070319
  39   39    0    0    0
SMALL
NO_CHARGES


@<TRIPOS>ATOM
   1 N1            -0.0162     1.3436     0.0094 N.am    
   2 C2             0.0563     0.0126     0.2089 C.2     
   3 O3             1.1403    -0.5293     0.3068 O.2     
   4 N4            -1.0728    -0.7176     0.2999 N.am    
   5 C5             0.5962    -2.1752     4.0234 C.3     
   6 C6             0.4657    -1.8903     2.5259 C.3     
   7 C7            -0.8635    -2.4492     2.0143 C.3     
   8 C8            -0.9940    -2.1644     0.5168 C.3     
   9 C9            -2.2624    -2.8304    -0.0204 C.3     
  10 C10           -2.3285    -2.6517    -1.5385 C.3     
  11 C11           -3.5968    -3.3177    -2.0757 C.3     
  12 C12            1.1511     2.1164     0.0123 C.ar    
  13 C13            2.3299     1.5976    -0.5068 C.ar    
  14 C14            3.4802     2.3621    -0.5027 C.ar    
  15 C15            3.4587     3.6438     0.0184 C.ar    
  16 C16            2.2852     4.1632     0.5363 C.ar    
  17 C17            1.1308     3.4051     0.5290 C.ar    
  18 Cl18           4.9065     4.6017     0.0230 Cl      
  19 H19           -0.8768     1.7654    -0.1401 H       
  20 H20           -1.9376    -0.2853     0.2218 H       
  21 H21           -0.2271    -1.6999     4.5568 H       
  22 H22            0.5655    -3.2515     4.1926 H       
  23 H23            1.5432    -1.7770     4.3879 H       
  24 H24            0.4964    -0.8139     2.3567 H       
  25 H25            1.2890    -2.3655     1.9925 H       
  26 H26           -0.8942    -3.5256     2.1835 H       
  27 H27           -1.6868    -1.9740     2.5477 H       
  28 H28           -0.1248    -2.5633    -0.0061 H       
  29 H29           -2.2442    -3.8934     0.2198 H       
  30 H30           -3.1371    -2.3692     0.4381 H       
  31 H31           -2.3467    -1.5886    -1.7788 H       
  32 H32           -1.4538    -3.1129    -1.9971 H       
  33 H33           -3.6439    -3.1904    -3.1572 H       
  34 H34           -3.5786    -4.3808    -1.8355 H       
  35 H35           -4.4715    -2.8565    -1.6172 H       
  36 H36            2.3474     0.5971    -0.9130 H       
  37 H37            4.3973     1.9591    -0.9064 H       
  38 H38            2.2712     5.1637     0.9428 H       
  39 H39            0.2140     3.8126     0.9289 H       
@<TRIPOS>BOND
   1    1    2 am
   2    1   12 1
   3    1   19 1
   4    2    3 2
   5    2    4 am
   6    4    8 1
   7    4   20 1
   8    5    6 1
   9    5   21 1
  10    5   22 1
  11    5   23 1
  12    6    7 1
  13    6   24 1
  14    6   25 1
  15    7    8 1
  16    7   26 1
  17    7   27 1
  18    8    9 1
  19    8   28 1
  20    9   10 1
  21    9   29 1
  22    9   30 1
  23   10   11 1
  24   10   31 1
  25   10   32 1
  26   11   33 1
  27   11   34 1
  28   11   35 1
  29   12   13 ar
  30   12   17 ar
  31   13   14 ar
  32   13   36 1
  33   14   15 ar
  34   14   37 1
  35   15   16 ar
  36   15   18 1
  37   16   17 ar
  38   16   38 1
  39   17   39 1

#	End of record

