#	Name: ASD01140037
#	Creating user name:	WinNT
#	Creation time:	15. 06. 2019 18:59

#	Modifying user name:	WinNT
#	Modification time:	15. 06. 2019 18:59

#	Program:	/corina/corina34_cracker 3.40 0067  02.08.2006

@<TRIPOS>MOLECULE
ASD01140037
  45   48    0    0    0
SMALL
NO_CHARGES


@<TRIPOS>ATOM
   1 C1            -0.0171     1.3368    -0.0248 C.2     
   2 N2            -0.0002    -0.0023    -0.0780 N.2     
   3 C3             1.1324    -0.6605    -0.1609 C.2     
   4 C4             2.3524     0.0290    -0.1950 C.2     
   5 C5             2.3503     1.3842    -0.1418 C.2     
   6 N6             1.1586     2.0420    -0.0565 N.pl3   
   7 N7            -1.0160     2.2056     0.0650 N.2     
   8 C8            -0.5289     3.4452     0.0862 C.2     
   9 C9             0.8319     3.3768     0.0122 C.2     
  10 C10            1.7732     4.5161     0.0101 C.ar    
  11 C11            1.3800     5.7495     0.5349 C.ar    
  12 C12            2.2577     6.8147     0.5338 C.ar    
  13 C13            3.5312     6.6683     0.0137 C.ar    
  14 C14            3.9362     5.4390    -0.5137 C.ar    
  15 C15            3.0570     4.3603    -0.5103 C.ar    
  16 C16            5.3003     5.2833    -1.0706 C.ar    
  17 C17            5.4777     5.0245    -2.4265 C.ar    
  18 C18            6.7506     4.8795    -2.9413 C.ar    
  19 C19            7.8578     4.9903    -2.1170 C.ar    
  20 C20            7.7031     5.2470    -0.7704 C.ar    
  21 C21            6.4247     5.4019    -0.2328 C.ar    
  22 F22            4.3847     7.7156     0.0152 F       
  23 C23            6.2577     5.6685     1.1642 C.1     
  24 N24            6.1253     5.8800     2.2724 N.1     
  25 C25            1.1212    -2.1663    -0.2193 C.3     
  26 C26           -0.3233    -2.6680    -0.1661 C.3     
  27 C27            1.7748    -2.6311    -1.5222 C.3     
  28 O28            1.8491    -2.6916     0.8926 O.3     
  29 H29            3.2841    -0.5132    -0.2624 H       
  30 H30            3.2791     1.9347    -0.1664 H       
  31 H31           -1.1124     4.3515     0.1542 H       
  32 H32            0.3870     5.8700     0.9420 H       
  33 H33            1.9489     7.7665     0.9404 H       
  34 H34            3.3653     3.4083    -0.9167 H       
  35 H35            4.6194     4.9366    -3.0761 H       
  36 H36            6.8836     4.6780    -3.9940 H       
  37 H37            8.8486     4.8747    -2.5308 H       
  38 H38            8.5710     5.3322    -0.1334 H       
  39 H39           -0.8785    -2.2673    -1.0142 H       
  40 H40           -0.3314    -3.7571    -0.2083 H       
  41 H41           -0.7889    -2.3369     0.7622 H       
  42 H42            2.8039    -2.2737    -1.5601 H       
  43 H43            1.7667    -3.7203    -1.5644 H       
  44 H44            1.2196    -2.2305    -2.3703 H       
  45 H45            1.4900    -2.4367     1.7536 H       
@<TRIPOS>BOND
   1    1    2 1
   2    1    6 1
   3    1    7 2
   4    2    3 2
   5    3    4 1
   6    3   25 1
   7    4    5 2
   8    4   29 1
   9    5    6 1
  10    5   30 1
  11    6    9 1
  12    7    8 1
  13    8    9 2
  14    8   31 1
  15    9   10 1
  16   10   11 ar
  17   10   15 ar
  18   11   12 ar
  19   11   32 1
  20   12   13 ar
  21   12   33 1
  22   13   14 ar
  23   13   22 1
  24   14   15 ar
  25   14   16 1
  26   15   34 1
  27   16   17 ar
  28   16   21 ar
  29   17   18 ar
  30   17   35 1
  31   18   19 ar
  32   18   36 1
  33   19   20 ar
  34   19   37 1
  35   20   21 ar
  36   20   38 1
  37   21   23 1
  38   23   24 3
  39   25   26 1
  40   25   27 1
  41   25   28 1
  42   26   39 1
  43   26   40 1
  44   26   41 1
  45   27   42 1
  46   27   43 1
  47   27   44 1
  48   28   45 1

#	End of record

