#	Name: ASD00120028
#	Creating user name:	WinNT
#	Creation time:	15. 06. 2019 18:31

#	Modifying user name:	WinNT
#	Modification time:	15. 06. 2019 18:31

#	Program:	/corina/corina34_cracker 3.40 0067  02.08.2006

@<TRIPOS>MOLECULE
ASD00120028
  25   25    0    0    0
SMALL
NO_CHARGES


@<TRIPOS>ATOM
   1 C1            -0.0167     1.3774     0.0096 C.ar    
   2 C2             0.0021    -0.0041     0.0020 C.ar    
   3 C3             1.2132    -0.6800    -0.0132 C.ar    
   4 C4             2.4032     0.0335    -0.0208 C.ar    
   5 C5             2.3791     1.4145    -0.0132 C.ar    
   6 C6             1.1703     2.0860     0.0021 C.ar    
   7 O7             1.2343    -2.0388    -0.0203 O.3     
   8 C8             3.7209    -0.6977    -0.0369 C.3     
   9 C9            -1.3322     2.1125     0.0198 C.3     
  10 C10           -1.4197     2.9841     1.2743 C.3     
  11 C11           -1.4315     2.9977    -1.2241 C.3     
  12 H12           -0.9255    -0.5572     0.0083 H       
  13 H13            3.3051     1.9703    -0.0187 H       
  14 H14            1.1536     3.1659     0.0077 H       
  15 H15            1.2318    -2.4276    -0.9057 H       
  16 H16            4.0289    -0.8688    -1.0683 H       
  17 H17            4.4752    -0.0983     0.4729 H       
  18 H18            3.6116    -1.6547     0.4732 H       
  19 H19           -2.1506     1.3926     0.0198 H       
  20 H20           -0.6012     3.7040     1.2743 H       
  21 H21           -2.3712     3.5157     1.2817 H       
  22 H22           -1.3489     2.3535     2.1605 H       
  23 H23           -1.3692     2.3767    -2.1178 H       
  24 H24           -2.3830     3.5293    -1.2167 H       
  25 H25           -0.6131     3.7176    -1.2241 H       
@<TRIPOS>BOND
   1    1    2 ar
   2    1    6 ar
   3    1    9 1
   4    2    3 ar
   5    2   12 1
   6    3    4 ar
   7    3    7 1
   8    4    5 ar
   9    4    8 1
  10    5    6 ar
  11    5   13 1
  12    6   14 1
  13    7   15 1
  14    8   16 1
  15    8   17 1
  16    8   18 1
  17    9   10 1
  18    9   11 1
  19    9   19 1
  20   10   20 1
  21   10   21 1
  22   10   22 1
  23   11   23 1
  24   11   24 1
  25   11   25 1

#	End of record

