#	Name: ASD04910163
#	Creating user name:	WinNT
#	Creation time:	15. 06. 2019 20:55

#	Modifying user name:	WinNT
#	Modification time:	15. 06. 2019 20:55

#	Program:	/corina/corina34_cracker 3.40 0067  02.08.2006

@<TRIPOS>MOLECULE
ASD04910163
  29   30    0    0    0
SMALL
NO_CHARGES


@<TRIPOS>ATOM
   1 N1             0.0191     1.4488     0.0187 N.pl3   
   2 N2             1.1551     1.6621    -0.7729 N.2     
   3 C3             2.0302     0.7293    -0.4946 C.2     
   4 C4             1.4839    -0.1103     0.4826 C.2     
   5 C5             0.2466     0.3500     0.7841 C.2     
   6 C6            -1.1436     2.2336     0.0242 C.ar    
   7 C7            -2.3891     1.6304    -0.0869 C.ar    
   8 C8            -3.5332     2.4032    -0.0814 C.ar    
   9 C9            -3.4384     3.7825     0.0351 C.ar    
  10 C10           -2.1939     4.3859     0.1456 C.ar    
  11 C11           -1.0496     3.6134     0.1465 C.ar    
  12 C12            0.3018     4.2683     0.2733 C.3     
  13 C13           -2.4923     0.1323    -0.2139 C.3     
  14 O14           -4.5651     4.5430     0.0404 O.3     
  15 C15           -4.3933     5.9563     0.1635 C.3     
  16 Cl16           2.2560    -1.4978     1.1843 Cl      
  17 H17            3.0071     0.6250    -0.9432 H       
  18 H18           -0.4356    -0.0787     1.5032 H       
  19 H19           -4.5021     1.9341    -0.1682 H       
  20 H20           -2.1206     5.4596     0.2359 H       
  21 H21            0.7227     4.4280    -0.7194 H       
  22 H22            0.1947     5.2268     0.7811 H       
  23 H23            0.9652     3.6237     0.8499 H       
  24 H24           -2.4718    -0.3188     0.7782 H       
  25 H25           -3.4269    -0.1267    -0.7115 H       
  26 H26           -1.6528    -0.2413    -0.8003 H       
  27 H27           -5.3685     6.4431     0.1542 H       
  28 H28           -3.8844     6.1802     1.1010 H       
  29 H29           -3.7959     6.3237    -0.6709 H       
@<TRIPOS>BOND
   1    1    2 1
   2    1    5 1
   3    1    6 1
   4    2    3 2
   5    3    4 1
   6    3   17 1
   7    4    5 2
   8    4   16 1
   9    5   18 1
  10    6    7 ar
  11    6   11 ar
  12    7    8 ar
  13    7   13 1
  14    8    9 ar
  15    8   19 1
  16    9   10 ar
  17    9   14 1
  18   10   11 ar
  19   10   20 1
  20   11   12 1
  21   12   21 1
  22   12   22 1
  23   12   23 1
  24   13   24 1
  25   13   25 1
  26   13   26 1
  27   14   15 1
  28   15   27 1
  29   15   28 1
  30   15   29 1

#	End of record

