#	Name: ASD03090037
#	Creating user name:	WinNT
#	Creation time:	15. 06. 2019 20:28

#	Modifying user name:	WinNT
#	Modification time:	15. 06. 2019 20:28

#	Program:	/corina/corina34_cracker 3.40 0067  02.08.2006

@<TRIPOS>MOLECULE
ASD03090037
 131  135    0    0    0
SMALL
NO_CHARGES


@<TRIPOS>ATOM
   1 C1            -0.6446    -1.0070     0.6610 C.ar    
   2 C2            -1.5485    -1.3630    -0.3294 C.ar    
   3 C3            -2.2353    -2.5651    -0.2389 C.ar    
   4 C4            -2.0176    -3.4043     0.8365 C.ar    
   5 C5            -1.1165    -3.0470     1.8225 C.ar    
   6 C6            -0.4305    -1.8498     1.7344 C.ar    
   7 C7            -3.2183    -2.9547    -1.3127 C.3     
   8 N8            -2.4879    -3.3780    -2.5149 N.3     
   9 C9            -1.7033    -4.5912    -2.2540 C.3     
  10 C10           -0.2113    -4.2489    -2.3013 C.3     
  11 C11            0.5637    -5.2319    -1.4211 C.3     
  12 C12            1.2824    -6.2487    -2.3095 C.3     
  13 C13            2.0182    -7.2604    -1.4303 C.3     
  14 C14            2.9621    -8.0968    -2.2948 C.3     
  15 C15            2.9538    -9.5447    -1.8006 C.3     
  16 C16            3.1496   -10.4883    -2.9882 C.3     
  17 N17            2.4582   -11.7575    -2.7279 N.3     
  18 C18            1.0337   -11.5332    -2.4479 C.3     
  19 C19            0.5577   -12.5372    -1.4298 C.ar    
  20 C20            1.3696   -12.8766    -0.3573 C.ar    
  21 C21            0.9285   -13.8012     0.5783 C.ar    
  22 C22           -0.3175   -14.3814     0.4399 C.ar    
  23 C23           -1.1246   -14.0418    -0.6301 C.ar    
  24 C24           -0.6898   -13.1160    -1.5605 C.ar    
  25 O25            2.5951   -12.3047    -0.2236 O.3     
  26 C26            3.3767   -12.7017     0.9049 C.3     
  27 C27            2.6340   -12.6935    -3.8477 C.3     
  28 C28            1.9310   -14.0142    -3.5223 C.3     
  29 C29            1.4679   -14.6756    -4.8222 C.3     
  30 C30            0.1024   -15.3278    -4.5998 C.3     
  31 C31           -0.7361   -15.2139    -5.8742 C.3     
  32 C32           -2.0658   -15.9438    -5.6693 C.3     
  33 N33           -3.1568   -15.1419    -6.2417 N.3     
  34 C34           -3.4037    -3.5689    -3.6472 C.3     
  35 C35           -4.8369    -3.6921    -3.1230 C.3     
  36 C36           -5.8187    -3.6252    -4.2936 C.3     
  37 C37           -6.6926    -4.8813    -4.2979 C.3     
  38 C38           -7.6348    -4.8483    -5.5014 C.3     
  39 C39           -8.7358    -5.8972    -5.3182 C.3     
  40 N40           -8.4598    -7.0493    -6.1874 N.3     
  41 C41           -9.7066    -7.6563    -6.6680 C.3     
  42 C42           -9.4978    -9.1160    -6.9752 C.ar    
  43 C43           -9.8597   -10.0802    -6.0508 C.ar    
  44 C44           -9.7005   -11.4203    -6.3497 C.ar    
  45 C45           -9.1865   -11.7981    -7.5776 C.ar    
  46 C46           -8.7657   -10.8357    -8.4752 C.ar    
  47 C47           -8.9262    -9.4943    -8.1772 C.ar    
  48 C48           -9.1529   -13.2509    -7.9563 C.3     
  49 C49           -7.8407   -13.8929    -7.6036 C.ar    
  50 C50           -7.6904   -14.5159    -6.3784 C.ar    
  51 C51           -6.5123   -15.1697    -6.0756 C.ar    
  52 C52           -5.4822   -15.2008    -6.9990 C.ar    
  53 C53           -5.6091   -14.5246    -8.1993 C.ar    
  54 C54           -6.7901   -13.8716    -8.4987 C.ar    
  55 C55           -4.2417   -16.0055    -6.7179 C.3     
  56 O56           -1.7612    -0.5355    -1.3862 O.3     
  57 C57           -1.1043     0.7332    -1.3592 C.3     
  58 H58           -0.1055    -0.0739     0.5905 H       
  59 H59           -2.5520    -4.3402     0.9074 H       
  60 H60           -0.9483    -3.7042     2.6629 H       
  61 H61            0.2728    -1.5729     2.5058 H       
  62 H62           -3.8388    -3.7768    -0.9562 H       
  63 H63           -3.8506    -2.1002    -1.5538 H       
  64 H64           -1.9556    -4.9829    -1.2686 H       
  65 H65           -1.9288    -5.3407    -3.0127 H       
  66 H66            0.1460    -4.3211    -3.3286 H       
  67 H67           -0.0593    -3.2340    -1.9338 H       
  68 H68            1.2962    -4.6873    -0.8254 H       
  69 H69           -0.1292    -5.7522    -0.7598 H       
  70 H70            0.5529    -6.7690    -2.9301 H       
  71 H71            1.9996    -5.7316    -2.9470 H       
  72 H72            2.5941    -6.7310    -0.6713 H       
  73 H73            1.2938    -7.9150    -0.9456 H       
  74 H74            2.6293    -8.0648    -3.3323 H       
  75 H75            3.9726    -7.6943    -2.2241 H       
  76 H76            3.7627    -9.6890    -1.0844 H       
  77 H77            1.9995    -9.7591    -1.3195 H       
  78 H78            2.7396   -10.0294    -3.8878 H       
  79 H79            4.2137   -10.6771    -3.1301 H       
  80 H80            0.8945   -10.5253    -2.0569 H       
  81 H81            0.4601   -11.6486    -3.3676 H       
  82 H82            1.5589   -14.0674     1.4138 H       
  83 H83           -0.6613   -15.1013     1.1679 H       
  84 H84           -2.0981   -14.4970    -0.7369 H       
  85 H85           -1.3221   -12.8523    -2.3955 H       
  86 H86            2.8393   -12.4604     1.8220 H       
  87 H87            3.5578   -13.7757     0.8618 H       
  88 H88            4.3291   -12.1718     0.8917 H       
  89 H89            2.2013   -12.2644    -4.7515 H       
  90 H90            3.6969   -12.8766    -4.0050 H       
  91 H91            2.6238   -14.6769    -3.0037 H       
  92 H92            1.0679   -13.8195    -2.8856 H       
  93 H93            1.3878   -13.9218    -5.6055 H       
  94 H94            2.1898   -15.4358    -5.1208 H       
  95 H95            0.2393   -16.3795    -4.3484 H       
  96 H96           -0.4114   -14.8236    -3.7813 H       
  97 H97           -0.9273   -14.1630    -6.0915 H       
  98 H98           -0.1969   -15.6663    -6.7065 H       
  99 H99           -2.0284   -16.9135    -6.1656 H       
 100 H100          -2.2410   -16.0876    -4.6031 H       
 101 H101          -3.4984   -14.4671    -5.5738 H       
 102 H102          -3.3344    -2.7137    -4.3195 H       
 103 H103          -3.1334    -4.4779    -4.1846 H       
 104 H104          -4.9535    -4.6443    -2.6055 H       
 105 H105          -5.0416    -2.8756    -2.4305 H       
 106 H106          -6.4505    -2.7432    -4.1880 H       
 107 H107          -5.2641    -3.5650    -5.2300 H       
 108 H108          -6.0573    -5.7649    -4.3587 H       
 109 H109          -7.2784    -4.9188    -3.3795 H       
 110 H110          -8.0854    -3.8591    -5.5828 H       
 111 H111          -7.0723    -5.0668    -6.4091 H       
 112 H112          -8.7582    -6.2232    -4.2784 H       
 113 H113          -9.6995    -5.4632    -5.5846 H       
 114 H114          -7.8650    -6.7860    -6.9588 H       
 115 H115         -10.4752    -7.5558    -5.9016 H       
 116 H116         -10.0334    -7.1412    -7.5714 H       
 117 H117         -10.2666    -9.7853    -5.0948 H       
 118 H118          -9.9767   -12.1720    -5.6251 H       
 119 H119          -8.3115   -11.1306    -9.4096 H       
 120 H120          -8.6056    -8.7423    -8.8829 H       
 121 H121          -9.9546   -13.7723    -7.4334 H       
 122 H122          -9.3146   -13.3413    -9.0304 H       
 123 H123          -8.4947   -14.4914    -5.6581 H       
 124 H124          -6.3949   -15.6562    -5.1186 H       
 125 H125          -4.7878   -14.5070    -8.9004 H       
 126 H126          -6.8910   -13.3434    -9.4353 H       
 127 H127          -3.9254   -16.5076    -7.6322 H       
 128 H128          -4.4645   -16.7539    -5.9574 H       
 129 H129          -1.4840     1.3213    -0.5237 H       
 130 H130          -0.0310     0.5842    -1.2405 H       
 131 H131          -1.2966     1.2619    -2.2928 H       
@<TRIPOS>BOND
   1    1    2 ar
   2    1    6 ar
   3    1   58 1
   4    2    3 ar
   5    2   56 1
   6    3    4 ar
   7    3    7 1
   8    4    5 ar
   9    4   59 1
  10    5    6 ar
  11    5   60 1
  12    6   61 1
  13    7    8 1
  14    7   62 1
  15    7   63 1
  16    8    9 1
  17    8   34 1
  18    9   10 1
  19    9   64 1
  20    9   65 1
  21   10   11 1
  22   10   66 1
  23   10   67 1
  24   11   12 1
  25   11   68 1
  26   11   69 1
  27   12   13 1
  28   12   70 1
  29   12   71 1
  30   13   14 1
  31   13   72 1
  32   13   73 1
  33   14   15 1
  34   14   74 1
  35   14   75 1
  36   15   16 1
  37   15   76 1
  38   15   77 1
  39   16   17 1
  40   16   78 1
  41   16   79 1
  42   17   18 1
  43   17   27 1
  44   18   19 1
  45   18   80 1
  46   18   81 1
  47   19   20 ar
  48   19   24 ar
  49   20   21 ar
  50   20   25 1
  51   21   22 ar
  52   21   82 1
  53   22   23 ar
  54   22   83 1
  55   23   24 ar
  56   23   84 1
  57   24   85 1
  58   25   26 1
  59   26   86 1
  60   26   87 1
  61   26   88 1
  62   27   28 1
  63   27   89 1
  64   27   90 1
  65   28   29 1
  66   28   91 1
  67   28   92 1
  68   29   30 1
  69   29   93 1
  70   29   94 1
  71   30   31 1
  72   30   95 1
  73   30   96 1
  74   31   32 1
  75   31   97 1
  76   31   98 1
  77   32   33 1
  78   32   99 1
  79   32  100 1
  80   33   55 1
  81   33  101 1
  82   34   35 1
  83   34  102 1
  84   34  103 1
  85   35   36 1
  86   35  104 1
  87   35  105 1
  88   36   37 1
  89   36  106 1
  90   36  107 1
  91   37   38 1
  92   37  108 1
  93   37  109 1
  94   38   39 1
  95   38  110 1
  96   38  111 1
  97   39   40 1
  98   39  112 1
  99   39  113 1
 100   40   41 1
 101   40  114 1
 102   41   42 1
 103   41  115 1
 104   41  116 1
 105   42   43 ar
 106   42   47 ar
 107   43   44 ar
 108   43  117 1
 109   44   45 ar
 110   44  118 1
 111   45   46 ar
 112   45   48 1
 113   46   47 ar
 114   46  119 1
 115   47  120 1
 116   48   49 1
 117   48  121 1
 118   48  122 1
 119   49   50 ar
 120   49   54 ar
 121   50   51 ar
 122   50  123 1
 123   51   52 ar
 124   51  124 1
 125   52   53 ar
 126   52   55 1
 127   53   54 ar
 128   53  125 1
 129   54  126 1
 130   55  127 1
 131   55  128 1
 132   56   57 1
 133   57  129 1
 134   57  130 1
 135   57  131 1

#	End of record

