#	Name: ASD01910895
#	Creating user name:	WinNT
#	Creation time:	15. 06. 2019 19:56

#	Modifying user name:	WinNT
#	Modification time:	15. 06. 2019 19:56

#	Program:	/corina/corina34_cracker 3.40 0067  02.08.2006

@<TRIPOS>MOLECULE
ASD01910895
  49   52    0    0    0
SMALL
NO_CHARGES


@<TRIPOS>ATOM
   1 C1            -0.2361     1.4984     0.2757 C.ar    
   2 N2            -0.1392     0.1061     0.2052 N.3     
   3 C3            -1.4702    -0.5113     0.1328 C.3     
   4 C4            -1.3191    -2.0143    -0.1248 C.3     
   5 N5            -0.4276    -2.5768     0.9008 N.am    
   6 C6             0.8715    -1.9252     1.1269 C.3     
   7 C7             0.6341    -0.4257     1.3353 C.3     
   8 C8            -0.7911    -3.6609     1.6143 C.2     
   9 C9             0.1676    -4.2850     2.5512 C.ar    
  10 C10           -0.2729    -4.7648     3.7867 C.ar    
  11 C11            0.6206    -5.3480     4.6637 C.ar    
  12 C12            1.9542    -5.4614     4.3269 C.ar    
  13 C13            2.4096    -4.9850     3.0934 C.ar    
  14 C14            1.5110    -4.4007     2.2011 C.ar    
  15 C15            3.7936    -5.1026     2.7450 C.1     
  16 O16           -1.9071    -4.1257     1.4875 O.2     
  17 C17            4.9282    -5.1990     2.4593 C.1     
  18 C18            6.3122    -5.3166     2.1109 C.ar    
  19 C19            6.7781    -4.8442     0.8815 C.ar    
  20 N20            8.0509    -4.9528     0.5618 N.ar    
  21 C21            8.9296    -5.5044     1.3766 C.ar    
  22 C22            8.5483    -5.9971     2.6121 C.ar    
  23 C23            7.2239    -5.9025     2.9997 C.ar    
  24 C24            0.9143     2.2730     0.3510 C.ar    
  25 C25            0.8156     3.6488     0.4201 C.ar    
  26 C26           -0.4281     4.2557     0.4144 C.ar    
  27 C27           -1.5759     3.4864     0.3395 C.ar    
  28 C28           -1.4829     2.1105     0.2649 C.ar    
  29 Cl29          -0.5485     5.9853     0.5020 Cl      
  30 H30           -1.9955    -0.3547     1.0750 H       
  31 H31           -2.0376    -0.0581    -0.6800 H       
  32 H32           -2.2952    -2.4958    -0.0655 H       
  33 H33           -0.8878    -2.1749    -1.1129 H       
  34 H34            1.3437    -2.3478     2.0137 H       
  35 H35            1.5133    -2.0772     0.2592 H       
  36 H36            1.5929     0.0896     1.3944 H       
  37 H37            0.0796    -0.2703     2.2607 H       
  38 H38           -1.3149    -4.6791     4.0572 H       
  39 H39            0.2741    -5.7169     5.6178 H       
  40 H40            2.6475    -5.9186     5.0173 H       
  41 H41            1.8568    -4.0309     1.2470 H       
  42 H42            6.0887    -4.3866     0.1875 H       
  43 H43            9.9641    -5.5730     1.0740 H       
  44 H44            9.2781    -6.4469     3.2689 H       
  45 H45            6.8990    -6.2788     3.9585 H       
  46 H46            1.8851     1.7999     0.3558 H       
  47 H47            1.7098     4.2516     0.4790 H       
  48 H48           -2.5452     3.9627     0.3356 H       
  49 H49           -2.3791     1.5106     0.2061 H       
@<TRIPOS>BOND
   1    1    2 1
   2    1   24 ar
   3    1   28 ar
   4    2    3 1
   5    2    7 1
   6    3    4 1
   7    3   30 1
   8    3   31 1
   9    4    5 1
  10    4   32 1
  11    4   33 1
  12    5    6 1
  13    5    8 am
  14    6    7 1
  15    6   34 1
  16    6   35 1
  17    7   36 1
  18    7   37 1
  19    8    9 1
  20    8   16 2
  21    9   10 ar
  22    9   14 ar
  23   10   11 ar
  24   10   38 1
  25   11   12 ar
  26   11   39 1
  27   12   13 ar
  28   12   40 1
  29   13   14 ar
  30   13   15 1
  31   14   41 1
  32   15   17 3
  33   17   18 1
  34   18   19 ar
  35   18   23 ar
  36   19   20 ar
  37   19   42 1
  38   20   21 ar
  39   21   22 ar
  40   21   43 1
  41   22   23 ar
  42   22   44 1
  43   23   45 1
  44   24   25 ar
  45   24   46 1
  46   25   26 ar
  47   25   47 1
  48   26   27 ar
  49   26   29 1
  50   27   28 ar
  51   27   48 1
  52   28   49 1

#	End of record

