#	Name: ASD02500770
#	Creating user name:	WinNT
#	Creation time:	15. 06. 2019 20:23

#	Modifying user name:	WinNT
#	Modification time:	15. 06. 2019 20:23

#	Program:	/corina/corina34_cracker 3.40 0067  02.08.2006

@<TRIPOS>MOLECULE
ASD02500770
  50   52    0    0    0
SMALL
NO_CHARGES


@<TRIPOS>ATOM
   1 O1            -0.0164     1.3569     0.0095 O.3     
   2 C2             0.0021    -0.0041     0.0020 C.ar    
   3 C3             1.1496    -0.6980    -0.3644 C.ar    
   4 O4             2.2825    -0.0325    -0.7194 O.3     
   5 C5             2.1357     1.3497    -1.0629 C.3     
   6 C6             1.2537     2.0177     0.0009 C.3     
   7 C7             1.1451    -2.0846    -0.3687 C.ar    
   8 C8             0.0032    -2.7746    -0.0070 C.ar    
   9 C9            -1.1371    -2.0847     0.3592 C.ar    
  10 C10           -1.1397    -0.7023     0.3645 C.ar    
  11 S11            0.0010    -4.5366    -0.0137 S.o2    
  12 O12           -1.3555    -4.9357    -0.1538 O.2     
  13 O13            1.0256    -4.9357    -0.9138 O.2     
  14 N14            0.4814    -5.0330     1.4914 N.am    
  15 C15           -0.3527    -4.7410     2.6599 C.3     
  16 C16            0.1005    -5.6048     3.8386 C.3     
  17 C17           -0.7706    -5.2999     5.0589 C.3     
  18 C18           -0.3174    -6.1637     6.2376 C.3     
  19 S19           -1.1465    -6.8995     8.7045 S.o2    
  20 O20           -2.0174    -6.3287     9.6715 O.2     
  21 O21           -1.3187    -8.2091     8.1804 O.2     
  22 N22           -1.1514    -5.8717     7.4061 N.am    
  23 C23            0.4710    -6.8514     9.4017 C.ar    
  24 C24            0.7718    -5.9309    10.3907 C.ar    
  25 C25            2.0433    -5.8939    10.9379 C.ar    
  26 C26            3.0118    -6.7757    10.4969 C.ar    
  27 C27            2.7126    -7.6952     9.5094 C.ar    
  28 C28            1.4402    -7.7378     8.9649 C.ar    
  29 F29            1.1463    -8.6408     8.0039 F       
  30 F30           -0.1747    -5.0685    10.8217 F       
  31 H31            3.1142     1.8295    -1.0831 H       
  32 H32            1.6625     1.4372    -2.0409 H       
  33 H33            1.1182     3.0714    -0.2428 H       
  34 H34            1.7236     1.9238     0.9800 H       
  35 H35            2.0346    -2.6260    -0.6551 H       
  36 H36           -2.0275    -2.6266     0.6418 H       
  37 H37           -2.0319    -0.1657     0.6516 H       
  38 H38            1.3150    -5.5171     1.5993 H       
  39 H39           -0.2544    -3.6877     2.9224 H       
  40 H40           -1.3944    -4.9618     2.4270 H       
  41 H41            0.0022    -6.6582     3.5761 H       
  42 H42            1.1422    -5.3841     4.0715 H       
  43 H43           -0.6723    -4.2466     5.3214 H       
  44 H44           -1.8123    -5.5207     4.8260 H       
  45 H45           -0.4156    -7.2170     5.9751 H       
  46 H46            0.7243    -5.9429     6.4705 H       
  47 H47           -1.7066    -5.0764     7.4192 H       
  48 H48            2.2783    -5.1755    11.7093 H       
  49 H49            4.0034    -6.7459    10.9239 H       
  50 H50            3.4704    -8.3836     9.1653 H       
@<TRIPOS>BOND
   1    1    2 1
   2    1    6 1
   3    2    3 ar
   4    2   10 ar
   5    3    4 1
   6    3    7 ar
   7    4    5 1
   8    5    6 1
   9    5   31 1
  10    5   32 1
  11    6   33 1
  12    6   34 1
  13    7    8 ar
  14    7   35 1
  15    8    9 ar
  16    8   11 1
  17    9   10 ar
  18    9   36 1
  19   10   37 1
  20   11   12 2
  21   11   13 2
  22   11   14 am
  23   14   15 1
  24   14   38 1
  25   15   16 1
  26   15   39 1
  27   15   40 1
  28   16   17 1
  29   16   41 1
  30   16   42 1
  31   17   18 1
  32   17   43 1
  33   17   44 1
  34   18   22 1
  35   18   45 1
  36   18   46 1
  37   19   20 2
  38   19   21 2
  39   19   22 am
  40   19   23 1
  41   22   47 1
  42   23   24 ar
  43   23   28 ar
  44   24   25 ar
  45   24   30 1
  46   25   26 ar
  47   25   48 1
  48   26   27 ar
  49   26   49 1
  50   27   28 ar
  51   27   50 1
  52   28   29 1

#	End of record

