#	Name: ASD08151020
#	Creating user name:	WinNT
#	Creation time:	15. 06. 2019 21:17

#	Modifying user name:	WinNT
#	Modification time:	15. 06. 2019 21:17

#	Program:	/corina/corina34_cracker 3.40 0067  02.08.2006

@<TRIPOS>MOLECULE
ASD08151020
  35   37    0    0    0
SMALL
NO_CHARGES


@<TRIPOS>ATOM
   1 N1            -0.5958     1.7994    -0.8514 N.ar    
   2 C2            -0.7658     0.5191    -1.0799 C.ar    
   3 C3             0.2829    -0.3905    -0.9657 C.ar    
   4 C4             1.5268     0.0453    -0.6073 C.ar    
   5 C5             1.7041     1.4207    -0.3630 C.ar    
   6 C6             2.9546     1.9396     0.0097 C.ar    
   7 C7             3.0971     3.2749     0.2407 C.ar    
   8 C8             2.0190     4.1432     0.1133 C.ar    
   9 C9             0.7706     3.6724    -0.2523 C.ar    
  10 C10            0.5941     2.2894    -0.4979 C.ar    
  11 C11           -0.3714     4.6069    -0.3846 C.ar    
  12 C12           -0.3918     5.5454    -1.4157 C.ar    
  13 C13           -1.4599     6.4143    -1.5337 C.ar    
  14 C14           -2.5081     6.3534    -0.6292 C.ar    
  15 C15           -2.4914     5.4240     0.3946 C.ar    
  16 C16           -1.4326     4.5473     0.5181 C.ar    
  17 F17           -1.4821     7.3246    -2.5318 F       
  18 C18            2.2124     5.6143     0.3769 C.3     
  19 C19            1.8560     5.9228     1.8325 C.3     
  20 N20            3.6105     5.9751     0.1294 N.2     
  21 N21            3.9329     7.0501     0.1913 N.1     
  22 N22            4.2554     8.1251     0.2532 N.pl3   
  23 H23           -1.7443     0.1608    -1.3637 H       
  24 H24            0.1126    -1.4392    -1.1599 H       
  25 H25            2.3514    -0.6458    -0.5136 H       
  26 H26            3.8035     1.2801     0.1136 H       
  27 H27            4.0626     3.6647     0.5276 H       
  28 H28            0.4254     5.5934    -2.1202 H       
  29 H29           -3.3408     7.0345    -0.7240 H       
  30 H30           -3.3108     5.3814     1.0969 H       
  31 H31           -1.4236     3.8193     1.3158 H       
  32 H32            1.5659     6.1902    -0.2854 H       
  33 H33            1.9092     6.9986     1.9994 H       
  34 H34            0.8453     5.5722     2.0412 H       
  35 H35            2.5598     5.4173     2.4938 H       
@<TRIPOS>BOND
   1    1    2 ar
   2    1   10 ar
   3    2    3 ar
   4    2   23 1
   5    3    4 ar
   6    3   24 1
   7    4    5 ar
   8    4   25 1
   9    5    6 ar
  10    5   10 ar
  11    6    7 ar
  12    6   26 1
  13    7    8 ar
  14    7   27 1
  15    8    9 ar
  16    8   18 1
  17    9   10 ar
  18    9   11 1
  19   11   12 ar
  20   11   16 ar
  21   12   13 ar
  22   12   28 1
  23   13   14 ar
  24   13   17 1
  25   14   15 ar
  26   14   29 1
  27   15   16 ar
  28   15   30 1
  29   16   31 1
  30   18   19 1
  31   18   20 1
  32   18   32 1
  33   19   33 1
  34   19   34 1
  35   19   35 1
  36   20   21 2
  37   21   22 2

#	End of record

