#	Name: ASD01913570
#	Creating user name:	WinNT
#	Creation time:	15. 06. 2019 20:01

#	Modifying user name:	WinNT
#	Modification time:	15. 06. 2019 20:01

#	Program:	/corina/corina34_cracker 3.40 0067  02.08.2006

@<TRIPOS>MOLECULE
ASD01913570
  35   37    0    0    0
SMALL
NO_CHARGES


@<TRIPOS>ATOM
   1 C1             0.5546     0.2708     1.3518 C.ar    
   2 C2             0.0033    -0.0127     0.1063 C.ar    
   3 C3             0.6581     0.4255    -1.0359 C.ar    
   4 N4             1.7867     1.1006    -0.9470 N.ar    
   5 C5             2.3356     1.3858     0.2178 C.ar    
   6 C6             1.7421     0.9835     1.3994 C.ar    
   7 C7            -1.0860    -2.0599    -0.1027 C.ar    
   8 C8             0.1373    -2.7175    -0.0104 C.ar    
   9 C9             0.1750    -4.0958    -0.1239 C.ar    
  10 N10           -0.9262    -4.7897    -0.3172 N.ar    
  11 C11           -2.1147    -4.2041    -0.4114 C.ar    
  12 C12           -2.2336    -2.8225    -0.3075 C.ar    
  13 C13           -3.3251    -5.0306    -0.6298 C.2     
  14 N14           -3.2169    -6.3702    -0.7319 N.am    
  15 O15           -1.1597    -0.7092     0.0098 O.3     
  16 O16           -4.4151    -4.5007    -0.7168 O.2     
  17 C17           -4.4135    -7.1873    -0.9478 C.3     
  18 C18           -4.1245    -8.5346    -1.6306 C.3     
  19 C19           -5.1566    -9.1522    -0.6724 C.3     
  20 C20           -4.8393    -7.9951     0.2895 C.3     
  21 H21            0.0667    -0.0526     2.2594 H       
  22 H22            0.2389     0.2109    -2.0079 H       
  23 H23            3.2615     1.9409     0.2487 H       
  24 H24            2.1985     1.2218     2.3488 H       
  25 H25            1.0473    -2.1578     0.1478 H       
  26 H26            1.1222    -4.6098    -0.0532 H       
  27 H27           -3.2007    -2.3481    -0.3840 H       
  28 H28           -2.3468    -6.7932    -0.6624 H       
  29 H29           -5.2290    -6.6301    -1.4090 H       
  30 H30           -4.4264    -8.5671    -2.6775 H       
  31 H31           -3.1088    -8.8962    -1.4705 H       
  32 H32           -6.1762    -9.1329    -1.0574 H       
  33 H33           -4.8662   -10.1305    -0.2895 H       
  34 H34           -4.0191    -8.2093     0.9746 H       
  35 H35           -5.7183    -7.5922     0.7928 H       
@<TRIPOS>BOND
   1    1    2 ar
   2    1    6 ar
   3    1   21 1
   4    2    3 ar
   5    2   15 1
   6    3    4 ar
   7    3   22 1
   8    4    5 ar
   9    5    6 ar
  10    5   23 1
  11    6   24 1
  12    7    8 ar
  13    7   12 ar
  14    7   15 1
  15    8    9 ar
  16    8   25 1
  17    9   10 ar
  18    9   26 1
  19   10   11 ar
  20   11   12 ar
  21   11   13 1
  22   12   27 1
  23   13   14 am
  24   13   16 2
  25   14   17 1
  26   14   28 1
  27   17   18 1
  28   17   20 1
  29   17   29 1
  30   18   19 1
  31   18   30 1
  32   18   31 1
  33   19   20 1
  34   19   32 1
  35   19   33 1
  36   20   34 1
  37   20   35 1

#	End of record

