#	Name: ASD03740017
#	Creating user name:	WinNT
#	Creation time:	15. 06. 2019 20:46

#	Modifying user name:	WinNT
#	Modification time:	15. 06. 2019 20:46

#	Program:	/corina/corina34_cracker 3.40 0067  02.08.2006

@<TRIPOS>MOLECULE
ASD03740017
  41   43    0    0    0
SMALL
NO_CHARGES


@<TRIPOS>ATOM
   1 C1            -0.0164     1.3556     0.0095 C.2     
   2 O2             0.0021    -0.0041     0.0020 O.3     
   3 C3            -1.1901    -0.6321     0.0100 C.2     
   4 C4            -1.2473    -2.1050     0.0027 C.ar    
   5 O5            -2.2181     0.0158     0.0233 O.2     
   6 C6            -1.2861    -2.8014    -1.2102 C.ar    
   7 C7            -1.3392    -4.1847    -1.2074 C.ar    
   8 C8            -1.3539    -4.8775    -0.0088 C.ar    
   9 C9            -1.3157    -4.1953     1.1941 C.ar    
  10 C10           -1.2572    -2.8150     1.2091 C.ar    
  11 C11            1.1087     2.1917     0.0032 C.2     
  12 C12            0.6699     3.4802     0.0135 C.2     
  13 N13           -0.6879     3.4505     0.0258 N.am    
  14 N14           -1.0897     2.1088     0.0181 N.2     
  15 N15            1.4677     4.6207     0.0118 N.pl3   
  16 S16           -1.6911     4.7680     0.0419 S.o2    
  17 O17           -2.9234     4.3272     0.5954 O.2     
  18 O18           -0.9349     5.8415     0.5850 O.2     
  19 C19           -2.0225     5.1917    -1.6360 C.ar    
  20 C20           -3.1054     4.6317    -2.2883 C.ar    
  21 C21           -3.3674     4.9623    -3.6037 C.ar    
  22 C22           -2.5428     5.8568    -4.2704 C.ar    
  23 C23           -1.4568     6.4173    -3.6137 C.ar    
  24 C24           -1.2024     6.0878    -2.2965 C.ar    
  25 O25           -2.7981     6.1833    -5.5647 O.3     
  26 C26           -1.9072     7.1107    -6.1877 C.3     
  27 F27           -1.2199    -2.1516     2.3854 F       
  28 F28           -1.2722    -2.1261    -2.3802 F       
  29 F29           -1.3773    -4.8601    -2.3768 F       
  30 H30           -1.3958    -5.9567    -0.0129 H       
  31 H31           -1.3279    -4.7436     2.1245 H       
  32 H32            2.1398     1.8708    -0.0075 H       
  33 H33            2.4340     4.5367     0.0021 H       
  34 H34            1.0574     5.4996     0.0201 H       
  35 H35           -3.7469     3.9351    -1.7690 H       
  36 H36           -4.2132     4.5244    -4.1129 H       
  37 H37           -0.8134     7.1139    -4.1305 H       
  38 H38           -0.3571     6.5238    -1.7848 H       
  39 H39           -1.9219     8.0528    -5.6397 H       
  40 H40           -0.8964     6.7030    -6.1825 H       
  41 H41           -2.2239     7.2837    -7.2163 H       
@<TRIPOS>BOND
   1    1    2 1
   2    1   11 1
   3    1   14 2
   4    2    3 1
   5    3    4 1
   6    3    5 2
   7    4    6 ar
   8    4   10 ar
   9    6    7 ar
  10    6   28 1
  11    7    8 ar
  12    7   29 1
  13    8    9 ar
  14    8   30 1
  15    9   10 ar
  16    9   31 1
  17   10   27 1
  18   11   12 2
  19   11   32 1
  20   12   13 1
  21   12   15 1
  22   13   14 1
  23   13   16 am
  24   15   33 1
  25   15   34 1
  26   16   17 2
  27   16   18 2
  28   16   19 1
  29   19   20 ar
  30   19   24 ar
  31   20   21 ar
  32   20   35 1
  33   21   22 ar
  34   21   36 1
  35   22   23 ar
  36   22   25 1
  37   23   24 ar
  38   23   37 1
  39   24   38 1
  40   25   26 1
  41   26   39 1
  42   26   40 1
  43   26   41 1

#	End of record

