#	Name: ASD03090741
#	Creating user name:	WinNT
#	Creation time:	15. 06. 2019 20:29

#	Modifying user name:	WinNT
#	Modification time:	15. 06. 2019 20:29

#	Program:	/corina/corina34_cracker 3.40 0067  02.08.2006

@<TRIPOS>MOLECULE
ASD03090741
  38   39    0    0    0
SMALL
NO_CHARGES


@<TRIPOS>ATOM
   1 N1            -0.0162     1.3436     0.0094 N.am    
   2 C2             0.0193     0.1476     0.6299 C.2     
   3 O3             1.0728    -0.2854     1.0556 O.2     
   4 N4            -1.1129    -0.5683     0.7785 N.am    
   5 S5             0.3301    -2.5287     2.0637 S.3     
   6 C6            -1.0762    -1.8017     1.4183 C.2     
   7 N7            -2.1035    -2.5679     1.6130 N.2     
   8 C8            -1.8873    -3.7091     2.2407 C.2     
   9 C9            -0.6173    -3.9165     2.5929 C.2     
  10 C10           -2.9862    -4.6972     2.5359 C.3     
  11 C11           -4.3144    -4.1575     2.0016 C.3     
  12 F12           -2.6953    -5.9171     1.9160 F       
  13 F13           -3.0826    -4.8880     3.9185 F       
  14 F14           -4.2179    -3.9667     0.6191 F       
  15 F15           -5.3345    -5.0748     2.2757 F       
  16 F16           -4.6052    -2.9375     2.6216 F       
  17 C17            1.1453     2.1273    -0.0707 C.ar    
  18 C18            1.0454     3.5109    -0.1992 C.ar    
  19 C19            2.1933     4.2814    -0.2781 C.ar    
  20 C20            3.4397     3.6746    -0.2290 C.ar    
  21 C21            3.5374     2.2972    -0.1011 C.ar    
  22 C22            2.3934     1.5259    -0.0164 C.ar    
  23 O23           -0.1773     4.1038    -0.2476 O.3     
  24 C24           -0.2038     5.5263    -0.3802 C.3     
  25 O25            4.5669     4.4311    -0.3069 O.3     
  26 C26            5.8168     3.7407    -0.2501 C.3     
  27 H27           -0.8435     1.6608    -0.3852 H       
  28 H28           -1.9532    -0.2229     0.4389 H       
  29 H29           -0.2365    -4.7839     3.1116 H       
  30 H30            2.1181     5.3542    -0.3781 H       
  31 H31            4.5088     1.8268    -0.0631 H       
  32 H32            2.4717     0.4538     0.0877 H       
  33 H33            0.2982     5.8146    -1.3038 H       
  34 H34           -1.2380     5.8696    -0.4063 H       
  35 H35            0.3082     5.9799     0.4684 H       
  36 H36            5.8910     3.2008     0.6940 H       
  37 H37            5.8799     3.0348    -1.0782 H       
  38 H38            6.6327     4.4598    -0.3225 H       
@<TRIPOS>BOND
   1    1    2 am
   2    1   17 1
   3    1   27 1
   4    2    3 2
   5    2    4 am
   6    4    6 1
   7    4   28 1
   8    5    6 1
   9    5    9 1
  10    6    7 2
  11    7    8 1
  12    8    9 2
  13    8   10 1
  14    9   29 1
  15   10   11 1
  16   10   12 1
  17   10   13 1
  18   11   14 1
  19   11   15 1
  20   11   16 1
  21   17   18 ar
  22   17   22 ar
  23   18   19 ar
  24   18   23 1
  25   19   20 ar
  26   19   30 1
  27   20   21 ar
  28   20   25 1
  29   21   22 ar
  30   21   31 1
  31   22   32 1
  32   23   24 1
  33   24   33 1
  34   24   34 1
  35   24   35 1
  36   25   26 1
  37   26   36 1
  38   26   37 1
  39   26   38 1

#	End of record

