#	Name: ASD01883739
#	Creating user name:	WinNT
#	Creation time:	15. 06. 2019 19:47

#	Modifying user name:	WinNT
#	Modification time:	15. 06. 2019 19:47

#	Program:	/corina/corina34_cracker 3.40 0067  02.08.2006

@<TRIPOS>MOLECULE
ASD01883739
  58   61    0    0    0
SMALL
NO_CHARGES


@<TRIPOS>ATOM
   1 C1            -0.0167     1.3832     0.0096 C.2     
   2 C2             0.0021    -0.0041     0.0020 C.2     
   3 C3            -1.2263    -0.7035     0.0099 C.2     
   4 C4            -2.3885    -0.0174     0.0247 C.2     
   5 N5            -2.3984     1.3420     0.0321 N.am    
   6 C6            -1.2521     2.0471     0.0309 C.2     
   7 O7            -1.2876     3.2676     0.0381 O.2     
   8 Cl8            1.4672     2.2841     0.0003 Cl      
   9 C9            -3.6797     2.0521     0.0481 C.3     
  10 C10            1.2875    -0.7397    -0.0146 C.ar    
  11 C11            1.6477    -1.5318     1.0687 C.ar    
  12 C12            2.8600    -2.2190     1.0408 C.ar    
  13 C13            3.7069    -2.1069    -0.0785 C.ar    
  14 C14            3.3253    -1.3071    -1.1532 C.ar    
  15 C15            2.1355    -0.6406    -1.1246 C.ar    
  16 C16           -4.1121     2.2915     1.4961 C.3     
  17 C17           -5.4502     3.0331     1.5128 C.3     
  18 C18           -6.5358     2.1401     0.9086 C.3     
  19 C19            3.5416    -3.1181     1.9761 C.2     
  20 C20            4.6988    -3.4783     1.3996 C.2     
  21 N21            4.8141    -2.8840     0.1724 N.pl3   
  22 C22            5.9487    -3.0505    -0.7393 C.3     
  23 C23            6.0934    -4.5282    -1.1088 C.3     
  24 C24            7.2783    -4.7021    -2.0609 C.3     
  25 C25            8.5584    -4.2200    -1.3755 C.3     
  26 C26            8.4137    -2.7423    -1.0061 C.3     
  27 C27            7.2288    -2.5684    -0.0539 C.3     
  28 O28            9.6651    -4.3824    -2.2648 O.3     
  29 C29           -5.8217     3.3825     2.9553 C.3     
  30 H30           -1.2348    -1.7834     0.0039 H       
  31 H31           -3.3244    -0.5563     0.0303 H       
  32 H32           -3.5710     3.0094    -0.4617 H       
  33 H33           -4.4338     1.4525    -0.4618 H       
  34 H34            0.9944    -1.6139     1.9248 H       
  35 H35            3.9718    -1.2177    -2.0137 H       
  36 H36            1.8487    -0.0230    -1.9628 H       
  37 H37           -4.2208     1.3342     2.0058 H       
  38 H38           -3.3580     2.8911     2.0060 H       
  39 H39           -5.3656     3.9487     0.9274 H       
  40 H40           -6.6204     1.2245     1.4940 H       
  41 H41           -7.4891     2.6684     0.9205 H       
  42 H42           -6.2712     1.8911    -0.1190 H       
  43 H43            3.1814    -3.4309     2.9450 H       
  44 H44            5.4308    -4.1396     1.8392 H       
  45 H45            5.7777    -2.4652    -1.6428 H       
  46 H46            6.2644    -5.1135    -0.2053 H       
  47 H47            5.1815    -4.8716    -1.5971 H       
  48 H48            7.3815    -5.7548    -2.3241 H       
  49 H49            7.1074    -4.1168    -2.9644 H       
  50 H50            8.7294    -4.8053    -0.4721 H       
  51 H51            9.3256    -2.3989    -0.5178 H       
  52 H52            8.2427    -2.1570    -1.9095 H       
  53 H53            7.1256    -1.5157     0.2093 H       
  54 H54            7.3997    -3.1537     0.8496 H       
  55 H55           10.5118    -4.0964    -1.8955 H       
  56 H56           -5.0483     4.0188     3.3857 H       
  57 H57           -6.7750     3.9108     2.9672 H       
  58 H58           -5.9064     2.4670     3.5406 H       
@<TRIPOS>BOND
   1    1    2 2
   2    1    8 1
   3    1    6 1
   4    2    3 1
   5    2   10 1
   6    3    4 2
   7    3   30 1
   8    4    5 1
   9    4   31 1
  10    5    6 am
  11    5    9 1
  12    6    7 2
  13    9   16 1
  14    9   32 1
  15    9   33 1
  16   10   11 ar
  17   10   15 ar
  18   11   12 ar
  19   11   34 1
  20   12   13 ar
  21   12   19 1
  22   13   14 ar
  23   13   21 1
  24   14   15 ar
  25   14   35 1
  26   15   36 1
  27   16   17 1
  28   16   37 1
  29   16   38 1
  30   17   18 1
  31   17   29 1
  32   17   39 1
  33   18   40 1
  34   18   41 1
  35   18   42 1
  36   19   20 2
  37   19   43 1
  38   20   21 1
  39   20   44 1
  40   21   22 1
  41   22   23 1
  42   22   27 1
  43   22   45 1
  44   23   24 1
  45   23   46 1
  46   23   47 1
  47   24   25 1
  48   24   48 1
  49   24   49 1
  50   25   26 1
  51   25   28 1
  52   25   50 1
  53   26   27 1
  54   26   51 1
  55   26   52 1
  56   27   53 1
  57   27   54 1
  58   28   55 1
  59   29   56 1
  60   29   57 1
  61   29   58 1

#	End of record

