#	Name: ASD03092553
#	Creating user name:	WinNT
#	Creation time:	15. 06. 2019 20:32

#	Modifying user name:	WinNT
#	Modification time:	15. 06. 2019 20:32

#	Program:	/corina/corina34_cracker 3.40 0067  02.08.2006

@<TRIPOS>MOLECULE
ASD03092553
  42   44    0    0    0
SMALL
NO_CHARGES


@<TRIPOS>ATOM
   1 N1            -0.0169     1.3951     0.0097 N.pl3   
   2 N2             0.0021    -0.0041     0.0020 N.2     
   3 C3             1.2418    -0.4097    -0.0120 C.2     
   4 C4             2.0751     0.7313    -0.0138 C.2     
   5 C5             1.2504     1.8383    -0.0000 C.2     
   6 C6             3.5493     0.7384    -0.0274 C.2     
   7 O7             4.1523     1.7944    -0.0271 O.2     
   8 N8             4.2287    -0.4256    -0.0402 N.am    
   9 C9             5.6936    -0.4186    -0.0537 C.3     
  10 C10            6.1897    -0.2824    -1.4947 C.3     
  11 N11            7.8087    -5.0913     2.2741 N.pl3   
  12 C12            8.8497    -4.5512     2.9791 C.2     
  13 C13            8.8840    -3.2216     2.7980 C.2     
  14 C14            7.7743    -2.8824     1.9040 C.ar    
  15 C15            7.2978    -1.6888     1.3580 C.ar    
  16 C16            6.2076    -1.7072     0.5348 C.ar    
  17 C17            5.5691    -2.9033     0.2365 C.ar    
  18 C18            6.0221    -4.0922     0.7646 C.ar    
  19 C19            7.1307    -4.0970     1.6053 C.ar    
  20 C20            9.8144    -5.3333     3.8328 C.3     
  21 C21           -1.2173     2.2349     0.0202 C.3     
  22 C22           -2.1156     1.8553    -1.1587 C.3     
  23 F23           -3.2619     2.6572    -1.1486 F       
  24 H24            1.5732    -1.4376    -0.0201 H       
  25 H25            1.5666     2.8709     0.0025 H       
  26 H26            3.7477    -1.2679    -0.0405 H       
  27 H27            6.0584     0.4217     0.5371 H       
  28 H28            7.2796    -0.2771    -1.5047 H       
  29 H29            5.8249    -1.1226    -2.0855 H       
  30 H30            5.8179     0.6497    -1.9204 H       
  31 H31            7.5844    -6.0346     2.2464 H       
  32 H32            9.5949    -2.5326     3.2296 H       
  33 H33            7.7889    -0.7544     1.5862 H       
  34 H34            4.7084    -2.9017    -0.4158 H       
  35 H35            5.5184    -5.0175     0.5269 H       
  36 H36           10.6634    -5.6484     3.2262 H       
  37 H37           10.1660    -4.7057     4.6518 H       
  38 H38            9.3115    -6.2114     4.2381 H       
  39 H39           -1.7591     2.0825     0.9537 H       
  40 H40           -0.9286     3.2825    -0.0655 H       
  41 H41           -1.5738     2.0076    -2.0921 H       
  42 H42           -2.4043     0.8077    -1.0729 H       
@<TRIPOS>BOND
   1    1    2 1
   2    1    5 1
   3    1   21 1
   4    2    3 2
   5    3    4 1
   6    3   24 1
   7    4    5 2
   8    4    6 1
   9    5   25 1
  10    6    7 2
  11    6    8 am
  12    8    9 1
  13    8   26 1
  14    9   10 1
  15    9   16 1
  16    9   27 1
  17   10   28 1
  18   10   29 1
  19   10   30 1
  20   11   12 1
  21   11   19 1
  22   11   31 1
  23   12   13 2
  24   12   20 1
  25   13   14 1
  26   13   32 1
  27   14   15 ar
  28   14   19 ar
  29   15   16 ar
  30   15   33 1
  31   16   17 ar
  32   17   18 ar
  33   17   34 1
  34   18   19 ar
  35   18   35 1
  36   20   36 1
  37   20   37 1
  38   20   38 1
  39   21   22 1
  40   21   39 1
  41   21   40 1
  42   22   23 1
  43   22   41 1
  44   22   42 1

#	End of record

