#	Name: ASD05140010
#	Creating user name:	WinNT
#	Creation time:	15. 06. 2019 20:57

#	Modifying user name:	WinNT
#	Modification time:	15. 06. 2019 20:57

#	Program:	/corina/corina34_cracker 3.40 0067  02.08.2006

@<TRIPOS>MOLECULE
ASD05140010
  60   63    0    0    0
SMALL
NO_CHARGES


@<TRIPOS>ATOM
   1 C1             3.2812    -7.1807    -1.8146 C.3     
   2 O2             2.3790    -6.1948    -1.3085 O.3     
   3 C3             2.2899    -5.0362    -1.9946 C.2     
   4 O4             2.9609    -4.8688    -2.9957 O.2     
   5 C5             1.4140    -4.0135    -1.5488 C.2     
   6 N6             0.5182    -4.1222    -0.4953 N.pl3   
   7 H7             0.3947    -4.9137     0.0516 H       
   8 C8            -0.1686    -2.9408    -0.3413 C.ar    
   9 C9            -1.1585    -2.5303     0.5485 C.ar    
  10 C10           -1.6722    -1.2556     0.4616 C.ar    
  11 C11           -1.2142    -0.3713    -0.5060 C.ar    
  12 C12           -0.2443    -0.7512    -1.3893 C.ar    
  13 C13            0.2924    -2.0401    -1.3200 C.ar    
  14 C14            1.3192    -2.7476    -2.0887 C.2     
  15 N15            2.0539    -2.2422    -3.1563 N.am    
  16 C16            2.3886    -0.9370    -3.1861 C.2     
  17 O17            1.9763    -0.1855    -2.3281 O.2     
  18 C18            3.2751    -0.4113    -4.2856 C.3     
  19 N19            3.4899     1.0293    -4.0949 N.3     
  20 C20            4.2541     1.2896    -2.8682 C.3     
  21 C21            4.3331     2.7985    -2.6254 C.3     
  22 C22            5.0115     3.4685    -3.8235 C.3     
  23 C23            4.2232     3.1418    -5.0949 C.3     
  24 C24            4.1473     1.6230    -5.2661 C.3     
  25 C25            5.0390     4.9838    -3.6140 C.3     
  26 C26            5.8202     5.3084    -2.3392 C.3     
  27 C27            5.8477     6.8237    -2.1298 C.3     
  28 C28            6.5257     7.4919    -3.3275 C.3     
  29 C29            5.7445     7.1674    -4.6023 C.3     
  30 C30            5.7170     5.6520    -4.8118 C.3     
  31 H31            2.9837    -7.4609    -2.8251 H       
  32 H32            4.2918    -6.7730    -1.8332 H       
  33 H33            3.2561    -8.0604    -1.1714 H       
  34 H34           -1.5225    -3.2102     1.3046 H       
  35 H35           -2.4396    -0.9405     1.1531 H       
  36 H36           -1.6284     0.6246    -0.5607 H       
  37 H37            0.1071    -0.0577    -2.1390 H       
  38 H38            2.3254    -2.8291    -3.8793 H       
  39 H39            4.2342    -0.9285    -4.2576 H       
  40 H40            2.7978    -0.5829    -5.2504 H       
  41 H41            3.7587     0.8112    -2.0233 H       
  42 H42            5.2608     0.8856    -2.9750 H       
  43 H43            3.3273     3.2009    -2.5048 H       
  44 H44            4.9137     2.9920    -1.7234 H       
  45 H45            6.0308     3.0948    -3.9209 H       
  46 H46            3.2156     3.5496    -5.0131 H       
  47 H47            4.7251     3.5806    -5.9572 H       
  48 H48            5.1545     1.2175    -5.3616 H       
  49 H49            3.5743     1.3868    -6.1628 H       
  50 H50            4.0189     5.3561    -3.5197 H       
  51 H51            5.3372     4.8323    -1.4859 H       
  52 H52            6.8403     4.9361    -2.4335 H       
  53 H53            4.8276     7.1960    -2.0354 H       
  54 H54            6.4043     7.0550    -1.2215 H       
  55 H55            6.5453     8.5715    -3.1783 H       
  56 H56            7.5458     7.1197    -3.4218 H       
  57 H57            4.7244     7.5397    -4.5080 H       
  58 H58            6.2275     7.6434    -5.4556 H       
  59 H59            6.7371     5.2798    -4.9061 H       
  60 H60            5.1605     5.4208    -5.7200 H       
@<TRIPOS>BOND
   1    1    2 1
   2    1   31 1
   3    1   32 1
   4    1   33 1
   5    2    3 1
   6    3    4 2
   7    3    5 1
   8    5   14 2
   9    5    6 1
  10    6    7 1
  11    6    8 1
  12    8   13 ar
  13    8    9 ar
  14    9   10 ar
  15    9   34 1
  16   10   11 ar
  17   10   35 1
  18   11   12 ar
  19   11   36 1
  20   12   13 ar
  21   12   37 1
  22   13   14 1
  23   14   15 1
  24   15   16 am
  25   15   38 1
  26   16   17 2
  27   16   18 1
  28   18   19 1
  29   18   39 1
  30   18   40 1
  31   19   24 1
  32   19   20 1
  33   20   21 1
  34   20   41 1
  35   20   42 1
  36   21   22 1
  37   21   43 1
  38   21   44 1
  39   22   23 1
  40   22   25 1
  41   22   45 1
  42   23   24 1
  43   23   46 1
  44   23   47 1
  45   24   48 1
  46   24   49 1
  47   25   30 1
  48   25   26 1
  49   25   50 1
  50   26   27 1
  51   26   51 1
  52   26   52 1
  53   27   28 1
  54   27   53 1
  55   27   54 1
  56   28   29 1
  57   28   55 1
  58   28   56 1
  59   29   30 1
  60   29   57 1
  61   29   58 1
  62   30   59 1
  63   30   60 1

#	End of record

