#	Name: ASD01883409
#	Creating user name:	WinNT
#	Creation time:	15. 06. 2019 19:46

#	Modifying user name:	WinNT
#	Modification time:	15. 06. 2019 19:46

#	Program:	/corina/corina34_cracker 3.40 0067  02.08.2006

@<TRIPOS>MOLECULE
ASD01883409
  58   60    0    0    0
SMALL
NO_CHARGES


@<TRIPOS>ATOM
   1 N1            -0.0162     1.3418     0.0094 N.am    
   2 C2             0.0021    -0.0041     0.0020 C.2     
   3 C3            -1.2147    -0.7262     0.0102 C.2     
   4 C4            -2.4239    -0.0108     0.0261 C.2     
   5 C5            -2.3777     1.3956     0.0332 C.2     
   6 C6            -1.1861     2.0320     0.0299 C.2     
   7 O7             1.0658    -0.6002    -0.0122 O.2     
   8 C8            -1.2137    -2.1582     0.0021 C.1     
   9 N9            -1.2130    -3.2942    -0.0044 N.1     
  10 C10            1.2510     2.0769     0.0013 C.3     
  11 C11            1.6783     2.3406    -1.4440 C.3     
  12 C12            3.0017     3.1084    -1.4525 C.3     
  13 C13            4.1046     2.2302    -0.8581 C.3     
  14 C14           -4.8833     0.0867     0.0506 C.3     
  15 C15           -6.0051    -0.7627    -0.5533 C.3     
  16 C16           -7.3224     0.0126    -0.4777 C.3     
  17 N17           -7.6250     0.3306     0.9236 N.3     
  18 C18           -6.5849     1.1849     1.5108 C.3     
  19 C19           -5.2456     0.4446     1.4946 C.3     
  20 C20           -8.9498     0.9530     1.0480 C.3     
  21 N21           -3.6309    -0.6732     0.0341 N.pl3   
  22 C22            3.3660     3.4808    -2.8911 C.3     
  23 C23           -9.3293     1.0400     2.5038 C.ar    
  24 C24           -8.9898     2.1591     3.2409 C.ar    
  25 C25           -9.3378     2.2388     4.5764 C.ar    
  26 C26          -10.0258     1.1997     5.1746 C.ar    
  27 C27          -10.3661     0.0811     4.4372 C.ar    
  28 C28          -10.0218     0.0032     3.1007 C.ar    
  29 H29           -3.2946     1.9661     0.0450 H       
  30 H30           -1.1631     3.1117     0.0354 H       
  31 H31            1.1236     3.0263     0.5214 H       
  32 H32            2.0167     1.4867     0.5046 H       
  33 H33            1.8057     1.3912    -1.9642 H       
  34 H34            0.9126     2.9308    -1.9474 H       
  35 H35            2.8992     4.0157    -0.8572 H       
  36 H36            4.2071     1.3229    -1.4534 H       
  37 H37            5.0474     2.7772    -0.8641 H       
  38 H38            3.8451     1.9649     0.1668 H       
  39 H39           -4.7632     0.9996    -0.5328 H       
  40 H40           -5.7729    -0.9849    -1.5948 H       
  41 H41           -6.0981    -1.6936     0.0061 H       
  42 H42           -7.2332     0.9368    -1.0487 H       
  43 H43           -8.1259    -0.5951    -0.8939 H       
  44 H44           -6.4992     2.1036     0.9305 H       
  45 H45           -6.8528     1.4286     2.5389 H       
  46 H46           -5.3267    -0.4673     2.0862 H       
  47 H47           -4.4708     1.0849     1.9162 H       
  48 H48           -8.9222     1.9548     0.6192 H       
  49 H49           -9.6858     0.3502     0.5160 H       
  50 H50           -3.6520    -1.6429     0.0288 H       
  51 H51            2.5803     4.1064    -3.3145 H       
  52 H52            4.3089     4.0277    -2.8971 H       
  53 H53            3.4685     2.5735    -3.4864 H       
  54 H54           -8.4523     2.9709     2.7736 H       
  55 H55           -9.0719     3.1128     5.1524 H       
  56 H56          -10.2971     1.2617     6.2181 H       
  57 H57          -10.9033    -0.7309     4.9047 H       
  58 H58          -10.2877    -0.8708     2.5246 H       
@<TRIPOS>BOND
   1    1    2 am
   2    1   10 1
   3    1    6 1
   4    2    3 1
   5    2    7 2
   6    3    4 2
   7    3    8 1
   8    4    5 1
   9    4   21 1
  10    5    6 2
  11    5   29 1
  12    6   30 1
  13    8    9 3
  14   10   11 1
  15   10   31 1
  16   10   32 1
  17   11   12 1
  18   11   33 1
  19   11   34 1
  20   12   13 1
  21   12   22 1
  22   12   35 1
  23   13   36 1
  24   13   37 1
  25   13   38 1
  26   14   15 1
  27   14   21 1
  28   14   19 1
  29   14   39 1
  30   15   16 1
  31   15   40 1
  32   15   41 1
  33   16   17 1
  34   16   42 1
  35   16   43 1
  36   17   18 1
  37   17   20 1
  38   18   19 1
  39   18   44 1
  40   18   45 1
  41   19   46 1
  42   19   47 1
  43   20   23 1
  44   20   48 1
  45   20   49 1
  46   21   50 1
  47   22   51 1
  48   22   52 1
  49   22   53 1
  50   23   24 ar
  51   23   28 ar
  52   24   25 ar
  53   24   54 1
  54   25   26 ar
  55   25   55 1
  56   26   27 ar
  57   26   56 1
  58   27   28 ar
  59   27   57 1
  60   28   58 1

#	End of record

