#	Name: ASD02500017
#	Creating user name:	WinNT
#	Creation time:	15. 06. 2019 20:22

#	Modifying user name:	WinNT
#	Modification time:	15. 06. 2019 20:22

#	Program:	/corina/corina34_cracker 3.40 0067  02.08.2006

@<TRIPOS>MOLECULE
ASD02500017
  28   30    0    0    0
SMALL
NO_CHARGES


@<TRIPOS>ATOM
   1 C1             0.0136     1.3833    -0.5139 C.ar    
   2 C2             0.0112     0.0528    -0.1162 C.ar    
   3 C3             1.1913    -0.6369     0.0584 C.ar    
   4 C4             2.4051     0.0102    -0.1681 C.ar    
   5 C5             2.4024     1.3687    -0.5686 C.ar    
   6 C6             1.2016     2.0463    -0.7413 C.ar    
   7 N7             3.6022    -0.6113    -0.0263 N.2     
   8 C8             4.7197     0.0737    -0.0224 C.2     
   9 O9             4.7558     1.4155    -0.1274 O.3     
  10 C10            3.7156     2.0009    -0.7786 C.2     
  11 O11            3.8598     2.9803    -1.4854 O.2     
  12 N12            5.9049    -0.6066     0.0943 N.pl3   
  13 C13            7.1069     0.0984     0.2191 C.ar    
  14 C14            7.1371     1.3061     0.9042 C.ar    
  15 C15            8.3251     1.9998     1.0262 C.ar    
  16 C16            9.4845     1.4929     0.4662 C.ar    
  17 C17            9.4572     0.2897    -0.2170 C.ar    
  18 C18            8.2731    -0.4109    -0.3371 C.ar    
  19 Cl19          10.9758     2.3680     0.6204 Cl      
  20 H20           -0.9235     1.9025    -0.6507 H       
  21 H21           -0.9292    -0.4486     0.0591 H       
  22 H22            1.1759    -1.6712     0.3687 H       
  23 H23            1.1985     3.0809    -1.0510 H       
  24 H24            5.9098    -1.5766     0.0904 H       
  25 H25            6.2324     1.7026     1.3409 H       
  26 H26            8.3491     2.9390     1.5589 H       
  27 H27           10.3635    -0.1036    -0.6535 H       
  28 H28            8.2524    -1.3500    -0.8701 H       
@<TRIPOS>BOND
   1    1    2 ar
   2    1    6 ar
   3    1   20 1
   4    2    3 ar
   5    2   21 1
   6    3    4 ar
   7    3   22 1
   8    4    5 ar
   9    4    7 1
  10    5    6 ar
  11    5   10 1
  12    6   23 1
  13    7    8 2
  14    8    9 1
  15    8   12 1
  16    9   10 1
  17   10   11 2
  18   12   13 1
  19   12   24 1
  20   13   14 ar
  21   13   18 ar
  22   14   15 ar
  23   14   25 1
  24   15   16 ar
  25   15   26 1
  26   16   17 ar
  27   16   19 1
  28   17   18 ar
  29   17   27 1
  30   18   28 1

#	End of record

