#	Name: ASD04590516
#	Creating user name:	WinNT
#	Creation time:	15. 06. 2019 20:51

#	Modifying user name:	WinNT
#	Modification time:	15. 06. 2019 20:51

#	Program:	/corina/corina34_cracker 3.40 0067  02.08.2006

@<TRIPOS>MOLECULE
ASD04590516
  58   62    0    0    0
SMALL
NO_CHARGES


@<TRIPOS>ATOM
   1 C1            -0.0124     1.3831    -0.1597 C.ar    
   2 C2             0.0069    -0.0043    -0.1762 C.ar    
   3 C3             2.3992     0.0190    -0.1236 C.ar    
   4 C4             2.3794     1.4248    -0.1068 C.ar    
   5 C5             1.1662     2.0984    -0.1252 C.ar    
   6 N6             3.6995    -0.3636    -0.1002 N.2     
   7 C7             4.4702     0.6967    -0.0706 C.2     
   8 N8             3.7004     1.8289    -0.0734 N.pl3   
   9 C9             5.9472     0.6733    -0.0395 C.2     
  10 C10            6.7603    -0.4836    -0.0371 C.2     
  11 C11            8.0538    -0.0796    -0.0049 C.2     
  12 N12            8.0654     1.2793     0.0125 N.pl3   
  13 N13            6.7389     1.7275    -0.0149 N.2     
  14 N14            6.3086    -1.8131    -0.0629 N.am    
  15 C15            7.1968    -2.8268    -0.0572 C.2     
  16 O16            8.3885    -2.5919    -0.1292 O.2     
  17 C17            1.1912    -0.6849    -0.1586 C.ar    
  18 C18            6.7256    -4.2168     0.0362 C.2     
  19 C19            7.6183    -5.2784    -0.0960 C.2     
  20 C20           -1.2918    -0.7679    -0.2134 C.3     
  21 N21           -1.6840    -0.9992    -1.6101 N.3     
  22 C22           -2.8117    -1.9388    -1.6919 C.3     
  23 C23           -0.5449    -1.4821    -2.4041 C.3     
  24 C24           -0.9814    -1.6525    -3.8616 C.3     
  25 O25           -2.0979    -2.5444    -3.9184 O.3     
  26 C26           -3.2255    -2.1046    -3.1566 C.3     
  27 C27            7.1346    -6.5832    -0.0012 C.2     
  28 C28            5.8133    -6.8061     0.2162 C.2     
  29 N29            4.9398    -5.7791     0.3453 N.am    
  30 C30            5.3548    -4.5004     0.2684 C.2     
  31 C31            9.0832    -5.0209    -0.3382 C.3     
  32 O32            4.5536    -3.5895     0.3871 O.2     
  33 C33            5.3089    -8.2228     0.3153 C.3     
  34 H34           -0.9570     1.9065    -0.1786 H       
  35 H35            1.1451     3.1782    -0.1128 H       
  36 H36            4.0222     2.7438    -0.0558 H       
  37 H37            8.9210    -0.7232     0.0055 H       
  38 H38            8.8556     1.8413     0.0365 H       
  39 H39            5.3574    -2.0018    -0.0849 H       
  40 H40            1.1946    -1.7648    -0.1713 H       
  41 H41           -1.1648    -1.7255     0.2916 H       
  42 H42           -2.0670    -0.1911     0.2909 H       
  43 H43           -2.5105    -2.9050    -1.2872 H       
  44 H44           -3.6525    -1.5492    -1.1180 H       
  45 H45            0.2691    -0.7591    -2.3501 H       
  46 H46           -0.2074    -2.4410    -2.0108 H       
  47 H47           -1.2681    -0.6839    -4.2713 H       
  48 H48           -0.1565    -2.0645    -4.4429 H       
  49 H49           -4.0235    -2.8436    -3.2279 H       
  50 H50           -3.5774    -1.1492    -3.5457 H       
  51 H51            7.8127    -7.4179    -0.1013 H       
  52 H52            4.0009    -5.9677     0.4995 H       
  53 H53            9.5837    -4.8461     0.6141 H       
  54 H54            9.5280    -5.8867    -0.8289 H       
  55 H55            9.1975    -4.1438    -0.9752 H       
  56 H56            5.3521    -8.5520     1.3535 H       
  57 H57            4.2785    -8.2671    -0.0373 H       
  58 H58            5.9313    -8.8738    -0.2985 H       
@<TRIPOS>BOND
   1    1    2 ar
   2    1    5 ar
   3    1   34 1
   4    2   17 ar
   5    2   20 1
   6    3    4 ar
   7    3    6 1
   8    3   17 ar
   9    4    5 ar
  10    4    8 1
  11    5   35 1
  12    6    7 2
  13    7    8 1
  14    7    9 1
  15    8   36 1
  16    9   10 1
  17    9   13 2
  18   10   11 2
  19   10   14 1
  20   11   12 1
  21   11   37 1
  22   12   13 1
  23   12   38 1
  24   14   15 am
  25   14   39 1
  26   15   16 2
  27   15   18 1
  28   17   40 1
  29   18   19 2
  30   18   30 1
  31   19   27 1
  32   19   31 1
  33   20   21 1
  34   20   41 1
  35   20   42 1
  36   21   22 1
  37   21   23 1
  38   22   26 1
  39   22   43 1
  40   22   44 1
  41   23   24 1
  42   23   45 1
  43   23   46 1
  44   24   25 1
  45   24   47 1
  46   24   48 1
  47   25   26 1
  48   26   49 1
  49   26   50 1
  50   27   28 2
  51   27   51 1
  52   28   29 1
  53   28   33 1
  54   29   30 am
  55   29   52 1
  56   30   32 2
  57   31   53 1
  58   31   54 1
  59   31   55 1
  60   33   56 1
  61   33   57 1
  62   33   58 1

#	End of record

