#	Name: ASD05143076
#	Creating user name:	WinNT
#	Creation time:	15. 06. 2019 20:57

#	Modifying user name:	WinNT
#	Modification time:	15. 06. 2019 20:57

#	Program:	/corina/corina34_cracker 3.40 0067  02.08.2006

@<TRIPOS>MOLECULE
ASD05143076
 145  149    0    0    0
SMALL
NO_CHARGES


@<TRIPOS>ATOM
   1 C1             2.7999     2.2239     6.3699 C.2     
   2 C2             3.5284     1.5382     7.4969 C.3     
   3 N3             3.3120     3.3418     5.8180 N.am    
   4 O4             1.7554     1.7670     5.9562 O.2     
   5 C5             2.6038     4.0084     4.7223 C.3     
   6 C6             2.4656     3.0437     3.5428 C.3     
   7 C7             1.2345     4.4282     5.1911 C.2     
   8 C8             3.8520     2.7237     2.9805 C.3     
   9 C9             3.7138     1.7590     1.8010 C.3     
  10 N10            5.0414     1.4526     1.2626 N.pl3   
  11 C11            5.1687     0.6006     0.1911 C.2     
  12 N12            6.4146     0.3130    -0.3141 N.pl3   
  13 N13            4.1083     0.0655    -0.3457 N.2     
  14 O14            0.7683     3.9526     6.2048 O.2     
  15 N15            0.5278     5.3321     4.4840 N.am    
  16 C16           -0.8470     5.6460     4.8666 C.3     
  17 C17           -0.8321     6.8633     5.7982 C.3     
  18 C18           -1.5477     6.5258     7.1056 C.3     
  19 C19           -1.4450     7.6922     8.0522 C.2     
  20 N20           -2.5521     8.1041     8.7357 N.am    
  21 C21           -2.3575     9.2815     9.6119 C.3     
  22 C22           -3.7159     9.9416     9.8631 C.3     
  23 C23           -3.8688    11.1652     8.9548 C.3     
  24 C24           -5.3243    11.6443     8.9801 C.3     
  25 N25           -5.5890    12.4396     7.7617 N.am    
  26 C26           -5.5439    12.5063    10.1994 C.2     
  27 N27           -5.7444    11.9331    11.4026 N.am    
  28 O28           -5.5399    13.7147    10.0965 O.2     
  29 C29           -6.6237    12.0550     6.9702 C.2     
  30 O30           -7.2101    11.0146     7.1895 O.2     
  31 C31           -7.0530    12.9371     5.8292 C.3     
  32 N32           -7.5607    12.1185     4.7057 N.am    
  33 C33           -8.1599    13.8825     6.3045 C.3     
  34 C34           -6.6217    11.6721     3.8173 C.2     
  35 O35           -5.4394    11.8044     4.0625 O.2     
  36 C36           -7.0713    11.0511     2.5230 C.3     
  37 N37           -5.9377    10.3792     1.8491 N.am    
  38 C38           -8.1877    10.0383     2.7740 C.3     
  39 C39           -5.2205     9.4988     2.5844 C.2     
  40 O40           -5.5434     9.2225     3.7215 O.2     
  41 C41           -3.9786     8.8366     2.0276 C.3     
  42 C42           -8.5048    14.8477     5.1997 C.2     
  43 C43           -9.4442    14.6142     4.1003 C.ar    
  44 C44           -9.4367    15.7889     3.3265 C.ar    
  45 N45           -8.5547    16.6622     3.9224 N.pl3   
  46 C46           -8.0137    16.0868     5.0398 C.2     
  47 C47          -10.2572    13.5411     3.7299 C.ar    
  48 C48          -11.0424    13.6380     2.6160 C.ar    
  49 C49          -11.0383    14.7950     1.8488 C.ar    
  50 C50          -10.2446    15.8658     2.1965 C.ar    
  51 N51           -4.2462     7.3938     1.9003 N.am    
  52 C52           -2.8392     9.1252     3.0031 C.3     
  53 C53           -2.5794    10.6090     3.0471 C.ar    
  54 C54           -2.6887    11.2959     4.2441 C.ar    
  55 C55           -2.4497    12.6594     4.2831 C.ar    
  56 C56           -2.1026    13.3327     3.1275 C.ar    
  57 C57           -1.9937    12.6456     1.9326 C.ar    
  58 C58           -2.2264    11.2837     1.8936 C.ar    
  59 C59           -1.7130     5.9416     3.6777 C.2     
  60 O60           -2.8931     6.2012     3.8926 O.2     
  61 C61           -8.7114     9.5144     1.4352 C.3     
  62 C62           -9.8292     8.5003     1.6865 C.3     
  63 N63          -10.3306     7.9987     0.4046 N.pl3   
  64 C64          -11.3445     7.0704     0.3789 C.2     
  65 N65          -11.8877     6.6129     1.5561 N.pl3   
  66 N66          -11.7906     6.6241    -0.7616 N.2     
  67 N67           -1.2942     5.9106     2.3999 N.am    
  68 C68           -1.8885     6.6672     1.2896 C.3     
  69 C69           -3.3796     6.5352     1.3204 C.2     
  70 O70           -3.8650     5.5538     0.7604 O.2     
  71 O71           -0.3837     8.2601     8.2067 O.2     
  72 F72           -3.0286    10.6366     5.3733 F       
  73 C73           -0.2186     5.0811     1.8581 C.3     
  74 C74           -0.5082     4.8746     0.3658 C.3     
  75 C75           -1.3305     6.1114    -0.0300 C.3     
  76 O76            0.7109     4.8220    -0.3763 O.3     
  77 H77            3.6269     2.2255     8.3372 H       
  78 H78            2.9664     0.6587     7.8109 H       
  79 H79            4.5188     1.2346     7.1578 H       
  80 H80            4.1494     3.7050     6.1461 H       
  81 H81            3.1658     4.8880     4.4084 H       
  82 H82            1.9890     2.1233     3.8802 H       
  83 H83            1.8559     3.5049     2.7658 H       
  84 H84            4.3286     3.6441     2.6432 H       
  85 H85            4.4617     2.2625     3.7576 H       
  86 H86            3.2372     0.8386     2.1384 H       
  87 H87            3.1042     2.2202     1.0240 H       
  88 H88            5.8305     1.8507     1.6621 H       
  89 H89            7.2037     0.7112     0.0853 H       
  90 H90            6.5044    -0.2881    -1.0701 H       
  91 H91            4.1982    -0.5356    -1.1016 H       
  92 H92            0.9319     5.7742     3.7210 H       
  93 H93           -1.2681     4.7945     5.4124 H       
  94 H94            0.2013     7.1398     6.0106 H       
  95 H95           -1.3367     7.6962     5.3109 H       
  96 H96           -2.5967     6.3138     6.9022 H       
  97 H97           -1.0823     5.6511     7.5608 H       
  98 H98           -3.4077     7.6535     8.6568 H       
  99 H99           -1.9259     8.9611    10.5612 H       
 100 H100          -1.6874     9.9922     9.1289 H       
 101 H101          -4.5125     9.2290     9.6500 H       
 102 H102          -3.7780    10.2522    10.9070 H       
 103 H103          -3.2196    11.9650     9.3121 H       
 104 H104          -3.5902    10.9005     7.9359 H       
 105 H105          -5.9908    10.7853     9.0207 H       
 106 H106          -5.0401    13.2104     7.5373 H       
 107 H107          -5.7476    10.9666    11.4849 H       
 108 H108          -5.8855    12.4870    12.1863 H       
 109 H109          -6.2005    13.5266     5.4886 H       
 110 H110          -8.5085    11.9283     4.6043 H       
 111 H111          -9.0440    13.3026     6.5694 H       
 112 H112          -7.8143    14.4371     7.1768 H       
 113 H113          -7.4528    11.8402     1.8666 H       
 114 H114          -5.7249    10.5641     0.9170 H       
 115 H115          -7.7987     9.2072     3.3623 H       
 116 H116          -8.9998    10.5201     3.3184 H       
 117 H117          -3.7523     9.2682     1.0541 H       
 118 H118          -8.3501    17.5540     3.6003 H       
 119 H119          -7.2926    16.5569     5.6920 H       
 120 H120         -10.2650    12.6376     4.3216 H       
 121 H121         -11.6711    12.8077     2.3299 H       
 122 H122         -11.6642    14.8564     0.9708 H       
 123 H123         -10.2486    16.7617     1.5933 H       
 124 H124          -5.1021     7.0342     2.2557 H       
 125 H125          -3.1149     8.7749     3.9977 H       
 126 H126          -1.9382     8.6083     2.6726 H       
 127 H127          -2.5350    13.1963     5.2163 H       
 128 H128          -1.9165    14.3961     3.1576 H       
 129 H129          -1.7227    13.1728     1.0298 H       
 130 H130          -2.1411    10.7480     0.9596 H       
 131 H131          -9.1003    10.3455     0.8469 H       
 132 H132          -7.8993     9.0326     0.8908 H       
 133 H133          -9.4402     7.6692     2.2748 H       
 134 H134         -10.6413     8.9821     2.2309 H       
 135 H135          -9.9474     8.3215    -0.4259 H       
 136 H136         -11.5556     6.9450     2.4048 H       
 137 H137         -12.6029     5.9579     1.5379 H       
 138 H138         -12.5059     5.9692    -0.7798 H       
 139 H139          -1.5716     7.7076     1.3615 H       
 140 H140           0.7401     5.5777     1.9797 H       
 141 H141          -0.2146     4.1141     2.3601 H       
 142 H142          -1.0882     3.9654     0.2178 H       
 143 H143          -2.1356     5.8361    -0.7077 H       
 144 H144          -0.6824     6.8549    -0.5028 H       
 145 H145           1.2943     4.0935    -0.1233 H       
@<TRIPOS>BOND
   1    1    2 1
   2    1    3 am
   3    1    4 2
   4    2   77 1
   5    2   78 1
   6    2   79 1
   7    3    5 1
   8    3   80 1
   9    5    6 1
  10    5    7 1
  11    5   81 1
  12    6    8 1
  13    6   82 1
  14    6   83 1
  15    7   14 2
  16    7   15 am
  17    8    9 1
  18    8   84 1
  19    8   85 1
  20    9   10 1
  21    9   86 1
  22    9   87 1
  23   10   11 1
  24   10   88 1
  25   11   12 1
  26   11   13 2
  27   12   89 1
  28   12   90 1
  29   13   91 1
  30   15   16 1
  31   15   92 1
  32   16   17 1
  33   16   59 1
  34   16   93 1
  35   17   18 1
  36   17   94 1
  37   17   95 1
  38   18   19 1
  39   18   96 1
  40   18   97 1
  41   19   20 am
  42   19   71 2
  43   20   21 1
  44   20   98 1
  45   21   22 1
  46   21   99 1
  47   21  100 1
  48   22   23 1
  49   22  101 1
  50   22  102 1
  51   23   24 1
  52   23  103 1
  53   23  104 1
  54   24   25 1
  55   24   26 1
  56   24  105 1
  57   25   29 am
  58   25  106 1
  59   26   27 am
  60   26   28 2
  61   27  107 1
  62   27  108 1
  63   29   30 2
  64   29   31 1
  65   31   32 1
  66   31   33 1
  67   31  109 1
  68   32   34 am
  69   32  110 1
  70   33   42 1
  71   33  111 1
  72   33  112 1
  73   34   35 2
  74   34   36 1
  75   36   37 1
  76   36   38 1
  77   36  113 1
  78   37   39 am
  79   37  114 1
  80   38   61 1
  81   38  115 1
  82   38  116 1
  83   39   40 2
  84   39   41 1
  85   41   51 1
  86   41   52 1
  87   41  117 1
  88   42   43 1
  89   42   46 2
  90   43   44 ar
  91   43   47 ar
  92   44   45 1
  93   44   50 ar
  94   45   46 1
  95   45  118 1
  96   46  119 1
  97   47   48 ar
  98   47  120 1
  99   48   49 ar
 100   48  121 1
 101   49   50 ar
 102   49  122 1
 103   50  123 1
 104   51   69 am
 105   51  124 1
 106   52   53 1
 107   52  125 1
 108   52  126 1
 109   53   54 ar
 110   53   58 ar
 111   54   55 ar
 112   54   72 1
 113   55   56 ar
 114   55  127 1
 115   56   57 ar
 116   56  128 1
 117   57   58 ar
 118   57  129 1
 119   58  130 1
 120   59   60 2
 121   59   67 am
 122   61   62 1
 123   61  131 1
 124   61  132 1
 125   62   63 1
 126   62  133 1
 127   62  134 1
 128   63   64 1
 129   63  135 1
 130   64   65 1
 131   64   66 2
 132   65  136 1
 133   65  137 1
 134   66  138 1
 135   67   68 1
 136   67   73 1
 137   68   69 1
 138   68   75 1
 139   68  139 1
 140   69   70 2
 141   73   74 1
 142   73  140 1
 143   73  141 1
 144   74   75 1
 145   74   76 1
 146   74  142 1
 147   75  143 1
 148   75  144 1
 149   76  145 1

#	End of record

