#	Name: ASD01000112
#	Creating user name:	WinNT
#	Creation time:	15. 06. 2019 18:54

#	Modifying user name:	WinNT
#	Modification time:	15. 06. 2019 18:54

#	Program:	/corina/corina34_cracker 3.40 0067  02.08.2006

@<TRIPOS>MOLECULE
ASD01000112
  38   40    0    0    0
SMALL
NO_CHARGES


@<TRIPOS>ATOM
   1 C1            -0.0166     1.3749     0.0096 C.ar    
   2 C2             0.0021    -0.0041     0.0020 C.ar    
   3 C3             1.2078    -0.6940    -0.0135 C.ar    
   4 C4             2.3937     0.0053    -0.0150 C.ar    
   5 C5             2.3737     1.3940    -0.0102 C.ar    
   6 C6             1.1749     2.0780     0.0020 C.ar    
   7 C7             1.1543    -2.1992    -0.0368 C.3     
   8 C8             2.4984    -2.7911     0.3822 C.3     
   9 C9             3.6001    -2.1323    -0.4561 C.3     
  10 C10            3.7368    -0.6767    -0.0142 C.3     
  11 C11            2.7440    -2.5122     1.8663 C.3     
  12 C12            2.4960    -4.3009     0.1346 C.3     
  13 C13            1.3952    -4.9405     0.9409 C.ar    
  14 C14            0.1326    -5.0826     0.3962 C.ar    
  15 C15           -0.8772    -5.6692     1.1359 C.ar    
  16 C16           -0.6243    -6.1141     2.4200 C.ar    
  17 C17            0.6385    -5.9727     2.9644 C.ar    
  18 C18            1.6494    -5.3901     2.2231 C.ar    
  19 Br19           1.1611     3.9690     0.0076 Br      
  20 H20           -0.9581     1.9041     0.0169 H       
  21 H21           -0.9284    -0.5522     0.0086 H       
  22 H22            3.3037     1.9432    -0.0156 H       
  23 H23            0.3808    -2.5419     0.6505 H       
  24 H24            0.9125    -2.5346    -1.0453 H       
  25 H25            4.5438    -2.6542    -0.2974 H       
  26 H26            3.3313    -2.1716    -1.5117 H       
  27 H27            4.4055    -0.1545    -0.6985 H       
  28 H28            4.1558    -0.6442     0.9916 H       
  29 H29            1.9490    -2.9662     2.4578 H       
  30 H30            3.7039    -2.9359     2.1617 H       
  31 H31            2.7542    -1.4356     2.0369 H       
  32 H32            2.3300    -4.4951    -0.9251 H       
  33 H33            3.4565    -4.7198     0.4346 H       
  34 H34           -0.0649    -4.7351    -0.6070 H       
  35 H35           -1.8637    -5.7796     0.7106 H       
  36 H36           -1.4134    -6.5717     2.9982 H       
  37 H37            0.8360    -6.3200     3.9678 H       
  38 H38            2.6360    -5.2797     2.6484 H       
@<TRIPOS>BOND
   1    1    2 ar
   2    1    6 ar
   3    1   20 1
   4    2    3 ar
   5    2   21 1
   6    3    4 ar
   7    3    7 1
   8    4    5 ar
   9    4   10 1
  10    5    6 ar
  11    5   22 1
  12    6   19 1
  13    7    8 1
  14    7   23 1
  15    7   24 1
  16    8    9 1
  17    8   11 1
  18    8   12 1
  19    9   10 1
  20    9   25 1
  21    9   26 1
  22   10   27 1
  23   10   28 1
  24   11   29 1
  25   11   30 1
  26   11   31 1
  27   12   13 1
  28   12   32 1
  29   12   33 1
  30   13   14 ar
  31   13   18 ar
  32   14   15 ar
  33   14   34 1
  34   15   16 ar
  35   15   35 1
  36   16   17 ar
  37   16   36 1
  38   17   18 ar
  39   17   37 1
  40   18   38 1

#	End of record

