#	Name: ASD01150585
#	Creating user name:	WinNT
#	Creation time:	15. 06. 2019 19:04

#	Modifying user name:	WinNT
#	Modification time:	15. 06. 2019 19:04

#	Program:	/corina/corina34_cracker 3.40 0067  02.08.2006

@<TRIPOS>MOLECULE
ASD01150585
  48   50    0    0    0
SMALL
NO_CHARGES


@<TRIPOS>ATOM
   1 C1             1.9144     1.4015     0.9689 C.ar    
   2 C2             1.9596     0.0212     0.9431 C.ar    
   3 C3             0.4927     0.0046    -0.9572 C.ar    
   4 C4             0.4447     1.3911    -0.9340 C.ar    
   5 C5             1.1564     2.0910     0.0300 C.ar    
   6 N6             1.1107     3.4892     0.0569 N.am    
   7 C7            -0.0778     4.1147    -0.0076 C.2     
   8 N8            -0.1587     5.4581     0.0163 N.am    
   9 C9             0.9638     6.2012     0.1062 C.2     
  10 C10            2.2670     5.5230     0.1772 C.2     
  11 N11            2.3025     4.2167     0.1565 N.2     
  12 O12            0.8990     7.4163     0.1280 O.2     
  13 C13           -1.4667     6.1140    -0.0560 C.3     
  14 O14           -1.0967     3.4557    -0.0894 O.2     
  15 C15           -2.0090     6.3080     1.3366 C.ar    
  16 O16            3.4153     6.2431     0.2679 O.3     
  17 C17            4.6388     5.5076     0.3324 C.3     
  18 C18            1.2519    -0.6785    -0.0156 C.ar    
  19 N19           -0.2232    -0.7049    -1.9279 N.am    
  20 C20            0.2667    -1.8622    -2.4148 C.2     
  21 C21           -0.5544    -2.6831    -3.3754 C.3     
  22 O22            1.3685    -2.2429    -2.0798 O.2     
  23 C23           -1.7294     7.4638     2.0411 C.ar    
  24 N24           -2.1984     7.6436     3.2604 N.ar    
  25 C25           -2.9481     6.7380     3.8564 C.ar    
  26 C26           -3.2717     5.5520     3.2131 C.ar    
  27 C27           -2.7985     5.3321     1.9238 C.ar    
  28 O28           -4.0444     4.6208     3.8320 O.3     
  29 C29           -4.4945     4.9257     5.1535 C.3     
  30 H30            2.4650     1.9453     1.7222 H       
  31 H31            2.5496    -0.5123     1.6737 H       
  32 H32           -0.1451     1.9245    -1.6648 H       
  33 H33           -1.3607     7.0834    -0.5429 H       
  34 H34           -2.1537     5.4922    -0.6300 H       
  35 H35            4.6284     4.8612     1.2100 H       
  36 H36            4.7448     4.8992    -0.5658 H       
  37 H37            5.4766     6.2014     0.4022 H       
  38 H38            1.2893    -1.7577    -0.0330 H       
  39 H39           -1.0720    -0.3637    -2.2503 H       
  40 H40           -0.7695    -2.0928    -4.2661 H       
  41 H41            0.0022    -3.5768    -3.6575 H       
  42 H42           -1.4900    -2.9736    -2.8974 H       
  43 H43           -1.1183     8.2298     1.5869 H       
  44 H44           -3.3140     6.9209     4.8560 H       
  45 H45           -3.0333     4.4193     1.3965 H       
  46 H46           -3.6337     5.0723     5.8058 H       
  47 H47           -5.0936     5.8360     5.1323 H       
  48 H48           -5.0997     4.1012     5.5305 H       
@<TRIPOS>BOND
   1    1    2 ar
   2    1    5 ar
   3    1   30 1
   4    2   18 ar
   5    2   31 1
   6    3    4 ar
   7    3   19 1
   8    3   18 ar
   9    4    5 ar
  10    4   32 1
  11    5    6 1
  12    6    7 am
  13    6   11 1
  14    7    8 am
  15    7   14 2
  16    8    9 am
  17    8   13 1
  18    9   10 1
  19    9   12 2
  20   10   11 2
  21   10   16 1
  22   13   15 1
  23   13   33 1
  24   13   34 1
  25   15   23 ar
  26   15   27 ar
  27   16   17 1
  28   17   35 1
  29   17   36 1
  30   17   37 1
  31   18   38 1
  32   19   20 am
  33   19   39 1
  34   20   21 1
  35   20   22 2
  36   21   40 1
  37   21   41 1
  38   21   42 1
  39   23   24 ar
  40   23   43 1
  41   24   25 ar
  42   25   26 ar
  43   25   44 1
  44   26   27 ar
  45   26   28 1
  46   27   45 1
  47   28   29 1
  48   29   46 1
  49   29   47 1
  50   29   48 1

#	End of record

