#	Name: ASD03091319
#	Creating user name:	WinNT
#	Creation time:	15. 06. 2019 20:30

#	Modifying user name:	WinNT
#	Modification time:	15. 06. 2019 20:30

#	Program:	/corina/corina34_cracker 3.40 0067  02.08.2006

@<TRIPOS>MOLECULE
ASD03091319
  52   56    0    0    0
SMALL
NO_CHARGES


@<TRIPOS>ATOM
   1 C1            -0.2875     0.4121    -1.3854 C.1     
   2 C2            -0.1633     1.6275    -0.6384 C.ar    
   3 C3             1.0320     2.3443    -0.6638 C.ar    
   4 C4             1.1440     3.5256     0.0659 C.ar    
   5 C5             0.0594     3.9842     0.8177 C.ar    
   6 C6            -1.1216     3.2696     0.8386 C.ar    
   7 C7            -1.2419     2.1008     0.1131 C.ar    
   8 N8            -0.3859    -0.5520    -1.9780 N.1     
   9 N9             3.5366     3.6362     0.1304 N.2     
  10 C10            2.4079     4.2921     0.0453 C.2     
  11 N11            2.3431     5.6542    -0.0624 N.am    
  12 C12            3.4740     6.3966    -0.0857 C.2     
  13 C13            4.7553     5.6865     0.0087 C.ar    
  14 C14            5.9739     6.3659    -0.0075 C.ar    
  15 C15            7.1419     5.6651     0.0824 C.ar    
  16 C16            7.1303     4.2726     0.1906 C.ar    
  17 C17            5.9333     3.5759     0.2083 C.ar    
  18 C18            4.7299     4.2756     0.1179 C.ar    
  19 O19            3.4305     7.6096    -0.1820 O.2     
  20 C20            1.0385     6.3145    -0.1536 C.3     
  21 N21           10.3169     1.4748    -0.3592 N.3     
  22 C22            9.3802     1.3802     0.7709 C.3     
  23 C23            8.0985     2.1420     0.4714 C.3     
  24 N24            8.3332     3.5783     0.2810 N.3     
  25 C25            9.1677     3.8140    -0.9055 C.3     
  26 C26           10.6334     3.9188    -0.5113 C.3     
  27 C27           11.2542     2.5863    -0.1434 C.3     
  28 C28            9.7272     1.4835    -1.6808 C.3     
  29 C29            8.8929     2.7291    -1.9308 C.3     
  30 H30            1.8675     1.9852    -1.2463 H       
  31 H31            0.1452     4.8997     1.3841 H       
  32 H32           -1.9569     3.6287     1.4215 H       
  33 H33           -2.1701     1.5490     0.1302 H       
  34 H34            5.9929     7.4424    -0.0912 H       
  35 H35            8.0842     6.1926     0.0693 H       
  36 H36            5.9317     2.4992     0.2922 H       
  37 H37            0.6501     6.4918     0.8493 H       
  38 H38            1.1484     7.2658    -0.6742 H       
  39 H39            0.3464     5.6771    -0.7038 H       
  40 H40            9.1410     0.3324     0.9524 H       
  41 H41            9.8480     1.8005     1.6612 H       
  42 H42            7.6490     1.7346    -0.4342 H       
  43 H43            7.4043     2.0046     1.3005 H       
  44 H44            8.8668     4.7646    -1.3459 H       
  45 H45           11.1901     4.3452    -1.3458 H       
  46 H46           10.7184     4.5915     0.3421 H       
  47 H47           11.5456     2.6073     0.9067 H       
  48 H48           12.1424     2.4267    -0.7547 H       
  49 H49           10.5236     1.4365    -2.4235 H       
  50 H50            9.0918     0.6047    -1.7902 H       
  51 H51            7.8369     2.4623    -1.8899 H       
  52 H52            9.1210     3.1148    -2.9244 H       
@<TRIPOS>BOND
   1    1    2 1
   2    1    8 3
   3    2    3 ar
   4    2    7 ar
   5    3    4 ar
   6    3   30 1
   7    4    5 ar
   8    4   10 1
   9    5    6 ar
  10    5   31 1
  11    6    7 ar
  12    6   32 1
  13    7   33 1
  14    9   10 2
  15    9   18 1
  16   10   11 1
  17   11   12 am
  18   11   20 1
  19   12   13 1
  20   12   19 2
  21   13   14 ar
  22   13   18 ar
  23   14   15 ar
  24   14   34 1
  25   15   16 ar
  26   15   35 1
  27   16   17 ar
  28   16   24 1
  29   17   18 ar
  30   17   36 1
  31   20   37 1
  32   20   38 1
  33   20   39 1
  34   21   22 1
  35   21   27 1
  36   21   28 1
  37   22   23 1
  38   22   40 1
  39   22   41 1
  40   23   24 1
  41   23   42 1
  42   23   43 1
  43   24   25 1
  44   25   26 1
  45   25   29 1
  46   25   44 1
  47   26   27 1
  48   26   45 1
  49   26   46 1
  50   27   47 1
  51   27   48 1
  52   28   29 1
  53   28   49 1
  54   28   50 1
  55   29   51 1
  56   29   52 1

#	End of record

