#	Name: ASD01880764
#	Creating user name:	WinNT
#	Creation time:	15. 06. 2019 19:41

#	Modifying user name:	WinNT
#	Modification time:	15. 06. 2019 19:41

#	Program:	/corina/corina34_cracker 3.40 0067  02.08.2006

@<TRIPOS>MOLECULE
ASD01880764
  41   43    0    0    0
SMALL
NO_CHARGES


@<TRIPOS>ATOM
   1 N1            -0.0158     1.3136     0.0093 N.ar    
   2 C2             0.0021    -0.0041     0.0020 C.ar    
   3 N3             1.1321    -0.6824    -0.0120 N.ar    
   4 C4             2.2981    -0.0570    -0.0197 C.ar    
   5 C5             2.3199     1.3290    -0.0130 C.ar    
   6 C6             1.1114     2.0071     0.0022 C.ar    
   7 C7             3.6262     2.0803    -0.0209 C.3     
   8 O8             3.3675     3.4856    -0.0115 O.3     
   9 C9             4.4452     4.3105    -0.0170 C.ar    
  10 C10            4.2645     5.6902    -0.0084 C.ar    
  11 C11            5.3554     6.5235    -0.0136 C.ar    
  12 C12            6.6502     5.9943    -0.0274 C.ar    
  13 C13            6.8261     4.6079    -0.0356 C.ar    
  14 C14            5.7282     3.7765    -0.0254 C.ar    
  15 C15            5.5088     8.0241    -0.0073 C.3     
  16 N16            6.9521     8.2884    -0.0183 N.am    
  17 C17            7.6068     7.1146    -0.0299 C.2     
  18 O18            8.8167     6.9946    -0.0406 O.2     
  19 C19            3.5851    -0.8409    -0.0352 C.3     
  20 C20            8.2151     4.0235    -0.0511 C.3     
  21 C21            7.8064    10.0681     1.4253 C.3     
  22 C22            7.5767     9.6136    -0.0174 C.3     
  23 H23           -0.9341    -0.5425     0.0081 H       
  24 H24            1.0898     3.0868     0.0075 H       
  25 H25            4.2053     1.8115     0.8626 H       
  26 H26            4.1893     1.8205    -0.9173 H       
  27 H27            3.2673     6.1049     0.0019 H       
  28 H28            5.8648     2.7051    -0.0314 H       
  29 H29            5.0427     8.4521    -0.8947 H       
  30 H30            5.0581     8.4430     0.8924 H       
  31 H31            3.8860    -1.0251    -1.0666 H       
  32 H32            4.3631    -0.2722     0.4741 H       
  33 H33            3.4372    -1.7924     0.4755 H       
  34 H34            8.5594     3.8777     0.9728 H       
  35 H35            8.2001     3.0647    -0.5693 H       
  36 H36            8.8904     4.7053    -0.5679 H       
  37 H37            8.2711    11.0541     1.4260 H       
  38 H38            6.8509    10.1164     1.9476 H       
  39 H39            8.4609     9.3576     1.9303 H       
  40 H40            8.5322     9.5653    -0.5396 H       
  41 H41            6.9222    10.3241    -0.5223 H       
@<TRIPOS>BOND
   1    1    2 ar
   2    1    6 ar
   3    2    3 ar
   4    2   23 1
   5    3    4 ar
   6    4    5 ar
   7    4   19 1
   8    5    6 ar
   9    5    7 1
  10    6   24 1
  11    7    8 1
  12    7   25 1
  13    7   26 1
  14    8    9 1
  15    9   10 ar
  16    9   14 ar
  17   10   11 ar
  18   10   27 1
  19   11   12 ar
  20   11   15 1
  21   12   13 ar
  22   12   17 1
  23   13   14 ar
  24   13   20 1
  25   14   28 1
  26   15   16 1
  27   15   29 1
  28   15   30 1
  29   16   17 am
  30   16   22 1
  31   17   18 2
  32   19   31 1
  33   19   32 1
  34   19   33 1
  35   20   34 1
  36   20   35 1
  37   20   36 1
  38   21   22 1
  39   21   37 1
  40   21   38 1
  41   21   39 1
  42   22   40 1
  43   22   41 1

#	End of record

