#	Name: ASD01901123
#	Creating user name:	WinNT
#	Creation time:	15. 06. 2019 19:53

#	Modifying user name:	WinNT
#	Modification time:	15. 06. 2019 19:53

#	Program:	/corina/corina34_cracker 3.40 0067  02.08.2006

@<TRIPOS>MOLECULE
ASD01901123
  59   63    0    0    0
SMALL
NO_CHARGES


@<TRIPOS>ATOM
   1 C1             0.2561     0.7136    -0.2059 C.ar    
   2 C2             0.3233    -0.6428    -0.4474 C.ar    
   3 C3             1.5117    -1.2260    -0.8584 C.ar    
   4 C4             2.6486    -0.4594    -1.0271 C.ar    
   5 C5             2.5989     0.9034    -0.7866 C.ar    
   6 C6             1.3926     1.4999    -0.3788 C.ar    
   7 N7             3.7203     1.7130    -0.9276 N.pl3   
   8 C8             3.5334     3.1261    -1.2753 C.3     
   9 N9             2.4354     3.6992    -0.4957 N.am    
  10 C10            1.3727     2.9526    -0.1347 C.2     
  11 C11            2.4900     5.0465    -0.1175 C.ar    
  12 C12            1.7408     5.9920    -0.8052 C.ar    
  13 C13            1.7952     7.3203    -0.4317 C.ar    
  14 C14            2.5981     7.7102     0.6302 C.ar    
  15 C15            3.3469     6.7663     1.3177 C.ar    
  16 C16            3.2891     5.4368     0.9490 C.ar    
  17 O17            0.4060     3.4736     0.3880 O.2     
  18 O18            2.6515     9.0184     0.9971 O.3     
  19 C19            4.8238     3.8956    -0.9782 C.3     
  20 C20            3.2136     3.2423    -2.7683 C.3     
  21 C21            3.0848     4.7206    -3.1427 C.3     
  22 N22            4.3417     5.4159    -2.8374 N.3     
  23 C23            4.6483     5.3555    -1.4027 C.3     
  24 C24            4.3020     6.8066    -3.3092 C.3     
  25 C25            5.5642     7.5153    -2.8901 C.ar    
  26 C26            3.4109     9.3340     2.1658 C.3     
  27 C27            5.5446     8.3896    -1.8230 C.ar    
  28 C28            6.7022     9.0414    -1.4373 C.ar    
  29 C29            7.8871     8.8216    -2.1176 C.ar    
  30 C30            7.9211     7.9500    -3.1860 C.ar    
  31 C31            6.7573     7.2845    -3.5774 C.ar    
  32 C32            6.7864     6.3740    -4.6822 C.1     
  33 N33            6.8095     5.6517    -5.5587 N.1     
  34 H34           -0.6730     1.1638     0.1110 H       
  35 H35           -0.5566    -1.2550    -0.3150 H       
  36 H36            1.5492    -2.2886    -1.0480 H       
  37 H37            3.5719    -0.9209    -1.3447 H       
  38 H38            4.6105     1.3501    -0.7982 H       
  39 H39            1.1159     5.6886    -1.6322 H       
  40 H40            1.2128     8.0558    -0.9667 H       
  41 H41            3.9717     7.0706     2.1443 H       
  42 H42            3.8687     4.7013     1.4872 H       
  43 H43            5.0373     3.8501     0.0897 H       
  44 H44            5.6491     3.4513    -1.5346 H       
  45 H45            4.0165     2.7883    -3.3490 H       
  46 H46            2.2752     2.7299    -2.9806 H       
  47 H47            2.8709     4.8081    -4.2080 H       
  48 H48            2.2728     5.1705    -2.5714 H       
  49 H49            3.8305     5.8024    -0.8374 H       
  50 H50            5.5689     5.9045    -1.2047 H       
  51 H51            4.2219     6.8193    -4.3961 H       
  52 H52            3.4398     7.3130    -2.8753 H       
  53 H53            3.4356    10.4151     2.3021 H       
  54 H54            2.9486     8.8684     3.0362 H       
  55 H55            4.4279     8.9590     2.0504 H       
  56 H56            4.6233     8.5657    -1.2877 H       
  57 H57            6.6811     9.7253    -0.6017 H       
  58 H58            8.7871     9.3341    -1.8115 H       
  59 H59            8.8464     7.7796    -3.7163 H       
@<TRIPOS>BOND
   1    1    2 ar
   2    1    6 ar
   3    1   34 1
   4    2    3 ar
   5    2   35 1
   6    3    4 ar
   7    3   36 1
   8    4    5 ar
   9    4   37 1
  10    5    7 1
  11    5    6 ar
  12    6   10 1
  13    7    8 1
  14    7   38 1
  15    8    9 1
  16    8   20 1
  17    8   19 1
  18    9   10 am
  19    9   11 1
  20   10   17 2
  21   11   12 ar
  22   11   16 ar
  23   12   13 ar
  24   12   39 1
  25   13   14 ar
  26   13   40 1
  27   14   15 ar
  28   14   18 1
  29   15   16 ar
  30   15   41 1
  31   16   42 1
  32   18   26 1
  33   19   23 1
  34   19   43 1
  35   19   44 1
  36   20   21 1
  37   20   45 1
  38   20   46 1
  39   21   22 1
  40   21   47 1
  41   21   48 1
  42   22   23 1
  43   22   24 1
  44   23   49 1
  45   23   50 1
  46   24   25 1
  47   24   51 1
  48   24   52 1
  49   25   27 ar
  50   25   31 ar
  51   26   53 1
  52   26   54 1
  53   26   55 1
  54   27   28 ar
  55   27   56 1
  56   28   29 ar
  57   28   57 1
  58   29   30 ar
  59   29   58 1
  60   30   31 ar
  61   30   59 1
  62   31   32 1
  63   32   33 3

#	End of record

