#	Name: ASD09740089
#	Creating user name:	WinNT
#	Creation time:	15. 06. 2019 21:22

#	Modifying user name:	WinNT
#	Modification time:	15. 06. 2019 21:22

#	Program:	/corina/corina34_cracker 3.40 0067  02.08.2006

@<TRIPOS>MOLECULE
ASD09740089
  34   36    0    0    0
SMALL
NO_CHARGES


@<TRIPOS>ATOM
   1 O1            -0.0116     1.2072    -0.0049 O.3     
   2 N2             0.0052    -0.0052    -0.0245 N.2     
   3 C3             1.2437     1.6822    -0.0308 C.2     
   4 N4             2.0482     0.6354    -0.0688 N.2     
   5 C5             1.2372    -0.4428    -0.0642 C.2     
   6 C6             1.6647    -1.8647    -0.0976 C.ar    
   7 C7             1.6476     3.1021    -0.0196 C.ar    
   8 C8             0.7237    -2.8971    -0.0888 C.ar    
   9 C9             3.0185    -2.2059    -0.1444 C.ar    
  10 C10            3.3723    -3.5399    -0.1748 C.ar    
  11 N11            2.4523    -4.4847    -0.1600 N.ar    
  12 C12            1.1640    -4.2050    -0.1212 C.ar    
  13 C13            0.6764     4.1058     0.0221 C.ar    
  14 C14            1.0563     5.4292     0.0324 C.ar    
  15 C15            2.4056     5.7676     0.0013 C.ar    
  16 C16            3.3752     4.7703    -0.0408 C.ar    
  17 C17            3.0019     3.4450    -0.0450 C.ar    
  18 N18            2.7866     7.1069     0.0118 N.pl3   
  19 C19            1.7701     8.1583    -0.0755 C.3     
  20 C20            4.2038     7.4647     0.1103 C.3     
  21 H21           -0.3328    -2.6752    -0.0568 H       
  22 H22            3.7771    -1.4373    -0.1571 H       
  23 H23            4.4165    -3.8135    -0.2114 H       
  24 H24            0.4441    -5.0100    -0.1104 H       
  25 H25           -0.3710     3.8439     0.0459 H       
  26 H26            0.3061     6.2055     0.0643 H       
  27 H27            4.4217     5.0360    -0.0656 H       
  28 H28            3.7548     2.6714    -0.0773 H       
  29 H29            1.4435     8.4322     0.9277 H       
  30 H30            2.1929     9.0321    -0.5712 H       
  31 H31            0.9176     7.7928    -0.6481 H       
  32 H32            4.7966     6.5625     0.2611 H       
  33 H33            4.5190     7.9570    -0.8097 H       
  34 H34            4.3502     8.1407     0.9527 H       
@<TRIPOS>BOND
   1    1    2 1
   2    1    3 1
   3    2    5 2
   4    3    4 2
   5    3    7 1
   6    4    5 1
   7    5    6 1
   8    6    8 ar
   9    6    9 ar
  10    7   13 ar
  11    7   17 ar
  12    8   12 ar
  13    8   21 1
  14    9   10 ar
  15    9   22 1
  16   10   11 ar
  17   10   23 1
  18   11   12 ar
  19   12   24 1
  20   13   14 ar
  21   13   25 1
  22   14   15 ar
  23   14   26 1
  24   15   16 ar
  25   15   18 1
  26   16   17 ar
  27   16   27 1
  28   17   28 1
  29   18   19 1
  30   18   20 1
  31   19   29 1
  32   19   30 1
  33   19   31 1
  34   20   32 1
  35   20   33 1
  36   20   34 1

#	End of record

