#	Name: ASD01882460
#	Creating user name:	WinNT
#	Creation time:	15. 06. 2019 19:44

#	Modifying user name:	WinNT
#	Modification time:	15. 06. 2019 19:44

#	Program:	/corina/corina34_cracker 3.40 0067  02.08.2006

@<TRIPOS>MOLECULE
ASD01882460
  58   63    0    0    0
SMALL
NO_CHARGES


@<TRIPOS>ATOM
   1 C1             0.1723     1.4478     0.2045 C.3     
   2 N2             0.0021    -0.0041     0.0020 N.3     
   3 C3             1.3637    -0.1855     0.5415 C.3     
   4 C4             1.6795     1.2311     0.0601 C.3     
   5 C5             2.1852     1.3044    -1.3771 C.3     
   6 N6             2.2787     2.7131    -1.7881 N.3     
   7 C7             3.1886     3.4614    -0.9119 C.3     
   8 C8             2.6321     3.4856     0.5134 C.3     
   9 C9             2.5223     2.0482     1.0355 C.3     
  10 C10           -0.9569    -0.5230     0.8772 C.ar    
  11 C11           -2.0783     0.2280     1.2048 C.ar    
  12 C12           -3.0246    -0.2869     2.0692 C.ar    
  13 C13           -2.8558    -1.5507     2.6091 C.ar    
  14 C14           -1.7386    -2.3012     2.2839 C.ar    
  15 C15           -0.7924    -1.7925     1.4158 C.ar    
  16 F16           -3.7825    -2.0521     3.4547 F       
  17 C17            2.6907     2.8251    -3.1937 C.3     
  18 C18            3.4419     6.4317    -4.0400 C.2     
  19 C19            3.6049     5.1001    -3.6086 C.2     
  20 C20            2.5396     4.2537    -3.6491 C.2     
  21 C21            1.2984     4.7173    -4.1179 C.2     
  22 C22            1.1577     5.9952    -4.5277 C.2     
  23 N23            2.2166     6.8547    -4.4931 N.pl3   
  24 N24            3.6202     8.4839    -4.5862 N.2     
  25 N25            4.2584     7.4700    -4.1166 N.2     
  26 C26            2.3758     8.1630    -4.8306 C.2     
  27 C27            1.3122     9.0763    -5.3836 C.3     
  28 C28            0.5899     9.7752    -4.2300 C.3     
  29 C29           -0.4516    10.8371    -4.5886 C.3     
  30 C30           -0.8997     9.4785    -4.0460 C.3     
  31 Cl31           5.1459     4.5457    -3.0327 Cl      
  32 H32           -0.2585     2.0516    -0.5942 H       
  33 H33           -0.1250     1.7861     1.1971 H       
  34 H34            1.3909    -0.2922     1.6259 H       
  35 H35            1.9360    -0.9572     0.0266 H       
  36 H36            3.1696     0.8408    -1.4405 H       
  37 H37            1.4920     0.7789    -2.0339 H       
  38 H38            4.1671     2.9812    -0.9107 H       
  39 H39            3.2876     4.4827    -1.2796 H       
  40 H40            3.3020     4.0565     1.1563 H       
  41 H41            1.6454     3.9487     0.5113 H       
  42 H42            2.0458     2.0513     2.0158 H       
  43 H43            3.5177     1.6108     1.1129 H       
  44 H44           -2.2101     1.2139     0.7842 H       
  45 H45           -3.8966     0.2969     2.3245 H       
  46 H46           -1.6088    -3.2866     2.7064 H       
  47 H47            0.0768    -2.3799     1.1592 H       
  48 H48            3.7326     2.5206    -3.2923 H       
  49 H49            2.0637     2.1795    -3.8087 H       
  50 H50            0.4524     4.0467    -4.1506 H       
  51 H51            0.1992     6.3403    -4.8863 H       
  52 H52            1.7744     9.8234    -6.0288 H       
  53 H53            0.5953     8.4918    -5.9602 H       
  54 H54            1.1858     9.9378    -3.3319 H       
  55 H55           -0.5412    11.6980    -3.9261 H       
  56 H56           -0.6222    11.0378    -5.6463 H       
  57 H57           -1.3651     8.7854    -4.7467 H       
  58 H58           -1.2841     9.4457    -3.0266 H       
@<TRIPOS>BOND
   1    1    2 1
   2    1    4 1
   3    1   32 1
   4    1   33 1
   5    2    3 1
   6    2   10 1
   7    3    4 1
   8    3   34 1
   9    3   35 1
  10    4    5 1
  11    4    9 1
  12    5    6 1
  13    5   36 1
  14    5   37 1
  15    6    7 1
  16    6   17 1
  17    7    8 1
  18    7   38 1
  19    7   39 1
  20    8    9 1
  21    8   40 1
  22    8   41 1
  23    9   42 1
  24    9   43 1
  25   10   11 ar
  26   10   15 ar
  27   11   12 ar
  28   11   44 1
  29   12   13 ar
  30   12   45 1
  31   13   14 ar
  32   13   16 1
  33   14   15 ar
  34   14   46 1
  35   15   47 1
  36   17   20 1
  37   17   48 1
  38   17   49 1
  39   18   19 1
  40   18   23 1
  41   18   25 2
  42   19   20 2
  43   19   31 1
  44   20   21 1
  45   21   22 2
  46   21   50 1
  47   22   23 1
  48   22   51 1
  49   23   26 1
  50   24   25 1
  51   24   26 2
  52   26   27 1
  53   27   28 1
  54   27   52 1
  55   27   53 1
  56   28   29 1
  57   28   30 1
  58   28   54 1
  59   29   30 1
  60   29   55 1
  61   29   56 1
  62   30   57 1
  63   30   58 1

#	End of record

