#	Name: ASD05490001
#	Creating user name:	WinNT
#	Creation time:	15. 06. 2019 21:00

#	Modifying user name:	WinNT
#	Modification time:	15. 06. 2019 21:00

#	Program:	/corina/corina34_cracker 3.40 0067  02.08.2006

@<TRIPOS>MOLECULE
ASD05490001
  46   48    0    0    0
SMALL
NO_CHARGES


@<TRIPOS>ATOM
   1 N1            -0.0159     1.3248     0.0093 N.ar    
   2 C2             0.0021    -0.0041     0.0020 C.ar    
   3 C3             1.1088     2.0250     0.0023 C.ar    
   4 N4             2.2984     1.4493    -0.0125 N.ar    
   5 C5             2.4090     0.1249    -0.0207 C.ar    
   6 C6             1.2442    -0.6586    -0.0134 C.ar    
   7 N7            -1.1789    -0.7277     0.0099 N.pl3   
   8 C8             2.9398    -2.0208    -0.0375 C.2     
   9 N9             1.6343    -1.9596    -0.0242 N.2     
  10 O10            1.0370     3.3784     0.0103 O.3     
  11 C11           -1.4273     7.6306     0.0567 C.3     
  12 C12           -1.5471     6.1053     0.0496 C.3     
  13 C13           -0.1490     5.4840     0.0329 C.3     
  14 C14           -0.2688     3.9587     0.0259 C.3     
  15 N15            3.4631    -0.7580    -0.0359 N.pl3   
  16 C16            5.4845    -0.6579     1.3388 C.3     
  17 C17            4.8859    -0.4092    -0.0482 C.3     
  18 O18            5.5663    -1.2168    -1.0110 O.3     
  19 C19            6.9635    -0.9385    -1.1230 C.3     
  20 C20            7.6455    -1.2084     0.2207 C.3     
  21 C21            6.9842    -0.3484     1.3020 C.3     
  22 O22            3.6651    -3.1637    -0.0504 O.3     
  23 C23            2.9378    -4.3937    -0.0498 C.3     
  24 H24           -2.0313    -0.2648     0.0208 H       
  25 H25           -1.1536    -1.6973     0.0044 H       
  26 H26           -2.4233     8.0732     0.0686 H       
  27 H27           -0.8781     7.9478     0.9432 H       
  28 H28           -0.8951     7.9573    -0.8367 H       
  29 H29           -2.0792     5.7785     0.9430 H       
  30 H30           -2.0962     5.7880    -0.8369 H       
  31 H31            0.3832     5.8107    -0.8604 H       
  32 H32            0.4002     5.8012     0.9194 H       
  33 H33           -0.8180     3.6414    -0.8606 H       
  34 H34           -0.8010     3.6319     0.9192 H       
  35 H35            4.9967    -0.0105     2.0675 H       
  36 H36            5.3345    -1.7006     1.6186 H       
  37 H37            5.0000     0.6427    -0.3100 H       
  38 H38            7.4015    -1.5793    -1.8883 H       
  39 H39            7.1050     0.1065    -1.3991 H       
  40 H40            7.5392    -2.2623     0.4779 H       
  41 H41            8.7032    -0.9548     0.1498 H       
  42 H42            7.1333     0.7064     1.0708 H       
  43 H43            7.4275    -0.5767     2.2713 H       
  44 H44            3.6373    -5.2295    -0.0609 H       
  45 H45            2.3191    -4.4496     0.8458 H       
  46 H46            2.3020    -4.4403    -0.9340 H       
@<TRIPOS>BOND
   1    1    2 ar
   2    1    3 ar
   3    2    7 1
   4    2    6 ar
   5    3    4 ar
   6    3   10 1
   7    4    5 ar
   8    5    6 ar
   9    5   15 1
  10    6    9 1
  11    7   24 1
  12    7   25 1
  13    8    9 2
  14    8   15 1
  15    8   22 1
  16   10   14 1
  17   11   12 1
  18   11   26 1
  19   11   27 1
  20   11   28 1
  21   12   13 1
  22   12   29 1
  23   12   30 1
  24   13   14 1
  25   13   31 1
  26   13   32 1
  27   14   33 1
  28   14   34 1
  29   15   17 1
  30   16   17 1
  31   16   21 1
  32   16   35 1
  33   16   36 1
  34   17   18 1
  35   17   37 1
  36   18   19 1
  37   19   20 1
  38   19   38 1
  39   19   39 1
  40   20   21 1
  41   20   40 1
  42   20   41 1
  43   21   42 1
  44   21   43 1
  45   22   23 1
  46   23   44 1
  47   23   45 1
  48   23   46 1

#	End of record

