#	Name: ASD03330227
#	Creating user name:	WinNT
#	Creation time:	15. 06. 2019 20:36

#	Modifying user name:	WinNT
#	Modification time:	15. 06. 2019 20:36

#	Program:	/corina/corina34_cracker 3.40 0067  02.08.2006

@<TRIPOS>MOLECULE
ASD03330227
  51   53    0    0    0
SMALL
NO_CHARGES


@<TRIPOS>ATOM
   1 C1            -0.6682     0.5746     0.2359 C.3     
   2 N2            -0.5963    -0.8805     0.0430 N.3     
   3 C3            -0.0287    -1.2163    -1.2754 C.3     
   4 C4             1.2468    -0.4321    -1.4458 C.2     
   5 N5             1.5865     0.6371    -0.6674 N.pl3   
   6 C6             0.7440     1.1458     0.4184 C.3     
   7 C7             2.2493    -0.6116    -2.3410 C.2     
   8 N8             3.1867     0.3354    -2.1061 N.2     
   9 C9             2.7949     1.0896    -1.0998 C.2     
  10 C10            3.5379     2.2291    -0.5384 C.2     
  11 O11            3.2977     2.8240     0.6469 O.3     
  12 C12            2.3074    -1.6516    -3.3831 C.2     
  13 O13            1.3976    -2.4509    -3.4960 O.2     
  14 O14            5.7213    -2.2080    -5.3364 O.2     
  15 C15            4.8646    -3.0229    -5.6065 C.2     
  16 C16            3.4264    -2.7513    -5.2474 C.3     
  17 N17            3.3686    -1.7173    -4.2113 N.am    
  18 C18            2.6725    -2.2716    -6.4893 C.3     
  19 C19            2.7315    -3.3522    -7.5709 C.3     
  20 C20            1.2127    -1.9945    -6.1244 C.3     
  21 C21            3.3193    -0.9884    -7.0146 C.3     
  22 N22            5.1987    -4.1713    -6.2278 N.am    
  23 C23            6.5817    -4.3974    -6.6549 C.3     
  24 C24            4.1716     3.8266     0.8279 C.2     
  25 C25            4.9876     3.8882    -0.2439 C.2     
  26 C26            4.5923     2.8630    -1.1236 C.2     
  27 H27           -1.1344     1.0330    -0.6362 H       
  28 H28           -1.2648     0.7936     1.1214 H       
  29 H29           -0.0708    -1.3180     0.7850 H       
  30 H30            0.1859    -2.2839    -1.3231 H       
  31 H31           -0.7350    -0.9463    -2.0603 H       
  32 H32            0.7086     2.2344     0.3774 H       
  33 H33            1.1487     0.8263     1.3787 H       
  34 H34            2.9662    -3.6661    -4.8738 H       
  35 H35            4.0942    -1.0798    -4.1213 H       
  36 H36            2.2567    -4.2615    -7.2024 H       
  37 H37            2.2079    -3.0041    -8.4613 H       
  38 H38            3.7721    -3.5608    -7.8196 H       
  39 H39            1.1706    -1.2247    -5.3539 H       
  40 H40            0.6756    -1.6527    -7.0092 H       
  41 H41            0.7519    -2.9087    -5.7503 H       
  42 H42            4.3593    -1.1858    -7.2745 H       
  43 H43            2.7822    -0.6466    -7.8993 H       
  44 H44            3.2772    -0.2186    -6.2440 H       
  45 H45            4.5236    -4.8481    -6.3921 H       
  46 H46            6.6588    -5.3730    -7.1349 H       
  47 H47            6.8755    -3.6209    -7.3611 H       
  48 H48            7.2398    -4.3667    -5.7866 H       
  49 H49            4.2140     4.4767     1.6893 H       
  50 H50            5.7948     4.5892    -0.3966 H       
  51 H51            5.0348     2.6286    -2.0805 H       
@<TRIPOS>BOND
   1    1    2 1
   2    1    6 1
   3    1   27 1
   4    1   28 1
   5    2    3 1
   6    2   29 1
   7    3    4 1
   8    3   30 1
   9    3   31 1
  10    4    5 1
  11    4    7 2
  12    5    6 1
  13    5    9 1
  14    6   32 1
  15    6   33 1
  16    7    8 1
  17    7   12 1
  18    8    9 2
  19    9   10 1
  20   10   11 1
  21   10   26 2
  22   11   24 1
  23   12   13 2
  24   12   17 am
  25   14   15 2
  26   15   22 am
  27   15   16 1
  28   16   17 1
  29   16   18 1
  30   16   34 1
  31   17   35 1
  32   18   19 1
  33   18   20 1
  34   18   21 1
  35   19   36 1
  36   19   37 1
  37   19   38 1
  38   20   39 1
  39   20   40 1
  40   20   41 1
  41   21   42 1
  42   21   43 1
  43   21   44 1
  44   22   23 1
  45   22   45 1
  46   23   46 1
  47   23   47 1
  48   23   48 1
  49   24   25 2
  50   24   49 1
  51   25   26 1
  52   25   50 1
  53   26   51 1

#	End of record

