#	Name: ASD05740187
#	Creating user name:	WinNT
#	Creation time:	15. 06. 2019 21:03

#	Modifying user name:	WinNT
#	Modification time:	15. 06. 2019 21:03

#	Program:	/corina/corina34_cracker 3.40 0067  02.08.2006

@<TRIPOS>MOLECULE
ASD05740187
  61   65    0    0    0
SMALL
NO_CHARGES


@<TRIPOS>ATOM
   1 C1             1.0548    -1.0814    -0.1735 C.3     
   2 N2             0.1694    -0.3979     0.7796 N.3     
   3 C3            -1.1490    -0.8493     0.6518 C.ar    
   4 C4            -2.1444    -0.3253     1.4662 C.ar    
   5 C5            -3.4452    -0.7707     1.3401 C.ar    
   6 C6            -3.7580    -1.7431     0.3993 C.ar    
   7 C7            -2.7626    -2.2675    -0.4147 C.ar    
   8 C8            -1.4630    -1.8173    -0.2932 C.ar    
   9 N9            -5.0776    -2.1953     0.2717 N.pl3   
  10 C10           -6.1290    -1.3197     0.4605 C.ar    
  11 N11           -5.8623    -0.0319     0.6489 N.ar    
  12 N12           -7.3656    -1.7951     0.4416 N.ar    
  13 C13           -8.3994    -0.9829     0.6195 C.ar    
  14 C14           -8.1539     0.3922     0.8283 C.ar    
  15 C15           -6.8305     0.8474     0.8342 C.ar    
  16 N16           -9.6902    -1.4448     0.6048 N.am    
  17 C17          -10.7266    -0.6071     0.7864 C.2     
  18 C18          -10.5378     0.7735     0.9983 C.2     
  19 C19           -9.2835     1.2955     1.0252 C.2     
  20 C20           -9.9442    -2.8712     0.3877 C.3     
  21 O21          -11.8603    -1.0541     0.7669 O.2     
  22 C22            0.6527    -0.5668     2.1572 C.3     
  23 C23            2.0655     0.0100     2.2736 C.3     
  24 N24            2.9510    -0.6734     1.3204 N.3     
  25 C25            2.4677    -0.5046    -0.0571 C.3     
  26 C26           -9.8743    -3.6001     1.7048 C.ar    
  27 C27           -9.9129    -5.6467     2.9468 C.ar    
  28 C28           -9.7457    -4.9373     4.1212 C.ar    
  29 C29           -9.6490    -3.5585     4.0881 C.ar    
  30 C30           -9.7132    -2.8900     2.8801 C.ar    
  31 C31            4.3349    -0.1996     1.4546 C.3     
  32 C32           -9.9770    -4.9780     1.7384 C.ar    
  33 C33          -10.1594    -5.7514     0.4580 C.3     
  34 F34          -10.3171    -7.1100     0.7522 F       
  35 F35          -11.2957    -5.2843    -0.2112 F       
  36 F36           -9.0347    -5.5780    -0.3558 F       
  37 H37            1.0776    -2.1477     0.0516 H       
  38 H38            0.6831    -0.9312    -1.1871 H       
  39 H39           -1.9010     0.4305     2.1983 H       
  40 H40           -4.2194    -0.3632     1.9733 H       
  41 H41           -3.0059    -3.0242    -1.1459 H       
  42 H42           -0.6889    -2.2251    -0.9263 H       
  43 H43           -5.2531    -3.1233     0.0507 H       
  44 H44           -6.6060     1.8920     0.9913 H       
  45 H45          -11.3925     1.4184     1.1400 H       
  46 H46           -9.1264     2.3516     1.1871 H       
  47 H47          -10.9349    -3.0017    -0.0477 H       
  48 H48           -9.1930    -3.2748    -0.2912 H       
  49 H49           -0.0122    -0.0414     2.8428 H       
  50 H50            0.6709    -1.6272     2.4087 H       
  51 H51            2.0427     1.0763     2.0485 H       
  52 H52            2.4372    -0.1401     3.2872 H       
  53 H53            3.1326    -1.0299    -0.7427 H       
  54 H54            2.4494     0.5558    -0.3087 H       
  55 H55           -9.9884    -6.7237     2.9726 H       
  56 H56           -9.6956    -5.4597     5.0651 H       
  57 H57           -9.5184    -3.0042     5.0058 H       
  58 H58           -9.6370    -1.8130     2.8542 H       
  59 H59            4.6904    -0.3978     2.4657 H       
  60 H60            4.9688    -0.7216     0.7378 H       
  61 H61            4.3725     0.8722     1.2598 H       
@<TRIPOS>BOND
   1    1    2 1
   2    1   25 1
   3    1   37 1
   4    1   38 1
   5    2    3 1
   6    2   22 1
   7    3    4 ar
   8    3    8 ar
   9    4    5 ar
  10    4   39 1
  11    5    6 ar
  12    5   40 1
  13    6    7 ar
  14    6    9 1
  15    7    8 ar
  16    7   41 1
  17    8   42 1
  18    9   10 1
  19    9   43 1
  20   10   11 ar
  21   10   12 ar
  22   11   15 ar
  23   12   13 ar
  24   13   14 ar
  25   13   16 1
  26   14   15 ar
  27   14   19 1
  28   15   44 1
  29   16   17 am
  30   16   20 1
  31   17   18 1
  32   17   21 2
  33   18   19 2
  34   18   45 1
  35   19   46 1
  36   20   26 1
  37   20   47 1
  38   20   48 1
  39   22   23 1
  40   22   49 1
  41   22   50 1
  42   23   24 1
  43   23   51 1
  44   23   52 1
  45   24   25 1
  46   24   31 1
  47   25   53 1
  48   25   54 1
  49   26   30 ar
  50   26   32 ar
  51   27   28 ar
  52   27   32 ar
  53   27   55 1
  54   28   29 ar
  55   28   56 1
  56   29   30 ar
  57   29   57 1
  58   30   58 1
  59   31   59 1
  60   31   60 1
  61   31   61 1
  62   32   33 1
  63   33   34 1
  64   33   35 1
  65   33   36 1

#	End of record

