#	Name: ASD04840092
#	Creating user name:	WinNT
#	Creation time:	15. 06. 2019 20:52

#	Modifying user name:	WinNT
#	Modification time:	15. 06. 2019 20:52

#	Program:	/corina/corina34_cracker 3.40 0067  02.08.2006

@<TRIPOS>MOLECULE
ASD04840092
  40   42    0    0    0
SMALL
NO_CHARGES


@<TRIPOS>ATOM
   1 C1            -0.0172     1.4161     0.0098 C.ar    
   2 C2             0.0021    -0.0041     0.0020 C.ar    
   3 N3             2.3585     0.1190    -0.0202 N.ar    
   4 C4             2.2873     1.4299    -0.0121 C.ar    
   5 N5             1.1331     2.0725     0.0024 N.ar    
   6 C6            -1.0886    -0.9558     0.0073 C.2     
   7 C7            -0.7095    -2.2342    -0.0032 C.2     
   8 S8             1.0379    -2.3780    -0.0207 S.3     
   9 C9             1.2508    -0.6336    -0.0133 C.ar    
  10 N10           -1.2178     2.1025     0.0193 N.pl3   
  11 C11           -1.2240     3.5675     0.0273 C.3     
  12 P12           -1.3845     4.1838    -1.6809 P.3     
  13 O13           -2.8187     3.7550    -2.2736 O.3     
  14 O14           -1.2597     5.7889    -1.6862 O.3     
  15 O15           -0.3111     3.6027    -2.5179 O.2     
  16 C16           -1.6415    -3.3813     0.0000 C.ar    
  17 C17           -1.4904    -4.4132    -0.9345 C.ar    
  18 C18           -2.3683    -5.4840    -0.9241 C.ar    
  19 C19           -3.3906    -5.5336     0.0055 C.ar    
  20 C20           -3.5441    -4.5153     0.9311 C.ar    
  21 C21           -2.6724    -3.4441     0.9375 C.ar    
  22 C22           -4.3429    -6.7016     0.0110 C.3     
  23 Cl23          -4.8321    -4.5891     2.0927 Cl      
  24 O24           -0.4863    -4.3637    -1.8484 O.3     
  25 C25           -0.3939    -5.4517    -2.7703 C.3     
  26 H26            3.2031     2.0022    -0.0177 H       
  27 H27           -2.1257    -0.6548     0.0195 H       
  28 H28           -2.0558     1.6139     0.0206 H       
  29 H29           -2.0646     3.9240     0.6226 H       
  30 H30           -0.2921     3.9324     0.4591 H       
  31 H31           -3.5705     4.1013    -1.7735 H       
  32 H32           -1.3360     6.1865    -2.5644 H       
  33 H33           -2.2545    -6.2815    -1.6435 H       
  34 H34           -2.7916    -2.6540     1.6640 H       
  35 H35           -3.9553    -7.4833     0.6644 H       
  36 H36           -5.3171    -6.3743     0.3743 H       
  37 H37           -4.4450    -7.0919    -1.0015 H       
  38 H38            0.4482    -5.2876    -3.4427 H       
  39 H39           -0.2446    -6.3814    -2.2213 H       
  40 H40           -1.3146    -5.5159    -3.3501 H       
@<TRIPOS>BOND
   1    1    2 ar
   2    1    5 ar
   3    1   10 1
   4    2    9 ar
   5    2    6 1
   6    3    4 ar
   7    3    9 ar
   8    4    5 ar
   9    4   26 1
  10    6    7 2
  11    6   27 1
  12    7    8 1
  13    7   16 1
  14    8    9 1
  15   10   11 1
  16   10   28 1
  17   11   12 1
  18   11   29 1
  19   11   30 1
  20   12   13 1
  21   12   14 1
  22   12   15 2
  23   13   31 1
  24   14   32 1
  25   16   17 ar
  26   16   21 ar
  27   17   18 ar
  28   17   24 1
  29   18   19 ar
  30   18   33 1
  31   19   20 ar
  32   19   22 1
  33   20   21 ar
  34   20   23 1
  35   21   34 1
  36   22   35 1
  37   22   36 1
  38   22   37 1
  39   24   25 1
  40   25   38 1
  41   25   39 1
  42   25   40 1

#	End of record

