#	Name: ASD02030646
#	Creating user name:	WinNT
#	Creation time:	15. 06. 2019 20:15

#	Modifying user name:	WinNT
#	Modification time:	15. 06. 2019 20:15

#	Program:	/corina/corina34_cracker 3.40 0067  02.08.2006

@<TRIPOS>MOLECULE
ASD02030646
  64   67    0    0    0
SMALL
NO_CHARGES


@<TRIPOS>ATOM
   1 C1            -0.1500     0.9914     0.5180 C.ar    
   2 C2            -0.1646    -0.3469     0.8488 C.ar    
   3 C3             1.0256    -0.9918     1.1537 C.ar    
   4 C4             2.2150    -0.2845     1.1285 C.ar    
   5 C5             2.2266     1.0653     0.8012 C.ar    
   6 C6             1.0447     1.6988     0.4877 C.ar    
   7 C7             0.9900     3.1531     0.0914 C.3     
   8 C8             3.5541     1.7765     0.8223 C.3     
   9 C9             3.4969     3.0597    -0.0049 C.3     
  10 N10            2.2790     3.7919     0.3770 N.am    
  11 C11            0.6882     3.2621    -1.4046 C.3     
  12 O12            1.6516     2.5061    -2.1411 O.3     
  13 C13            1.5255     2.4977    -3.4951 C.ar    
  14 C14            2.3458     5.0020     0.9666 C.2     
  15 S15            0.9092     5.8682     1.3085 S.2     
  16 C16            3.6579     5.5807     1.3178 C.ar    
  17 C17            1.2685     2.4800    -6.2513 C.ar    
  18 C18            0.3709     3.1987    -5.4757 C.ar    
  19 C19            0.4990     3.2073    -4.1004 C.ar    
  20 C20            2.4268     1.7840    -4.2710 C.ar    
  21 C21            2.2987     1.7754    -5.6464 C.ar    
  22 C22            4.7128     5.5311     0.4048 C.ar    
  23 C23            3.8473     6.1851     2.5625 C.ar    
  24 C24            5.0752     6.7241     2.8854 C.ar    
  25 C25            6.1195     6.6675     1.9796 C.ar    
  26 C26            5.9382     6.0748     0.7404 C.ar    
  27 O27            1.1424     2.4716    -7.6053 O.3     
  28 C28            2.1018     1.7102    -8.3415 C.3     
  29 F29            6.9609     6.0282    -0.1412 F       
  30 O30            1.0234    -2.3120     1.4760 O.3     
  31 C31           -0.2505    -2.9482     1.5965 C.3     
  32 C32           -0.6315    -3.5843     0.2581 C.3     
  33 C33           -0.1795    -4.0318     2.6743 C.3     
  34 C34            1.8007     1.8201    -9.8375 C.3     
  35 H35           -1.0754     1.4930     0.2760 H       
  36 H36           -1.0975    -0.8904     0.8708 H       
  37 H37            3.1416    -0.7861     1.3656 H       
  38 H38            0.2040     3.6538     0.6567 H       
  39 H39            3.8113     2.0249     1.8519 H       
  40 H40            4.3197     1.1187     0.4110 H       
  41 H41            4.3753     3.6711     0.2019 H       
  42 H42            3.4602     2.8130    -1.0660 H       
  43 H43           -0.3096     2.8710    -1.6033 H       
  44 H44            0.7362     4.3074    -1.7097 H       
  45 H45           -0.4313     3.7473    -5.9468 H       
  46 H46           -0.2004     3.7663    -3.4964 H       
  47 H47            3.2289     1.2354    -3.8000 H       
  48 H48            2.9976     1.2158    -6.2503 H       
  49 H49            4.5718     5.0688    -0.5611 H       
  50 H50            3.0335     6.2307     3.2711 H       
  51 H51            5.2218     7.1918     3.8477 H       
  52 H52            7.0786     7.0915     2.2377 H       
  53 H53            3.1017     2.0962    -8.1428 H       
  54 H54            2.0484     0.6653    -8.0358 H       
  55 H55           -1.0014    -2.2084     1.8739 H       
  56 H56            0.1194    -4.3241    -0.0194 H       
  57 H57           -1.6032    -4.0696     0.3500 H       
  58 H58           -0.6820    -2.8123    -0.5098 H       
  59 H59            0.0919    -3.5787     3.6277 H       
  60 H60           -1.1512    -4.5171     2.7661 H       
  61 H61            0.5713    -4.7717     2.3968 H       
  62 H62            0.8008     1.4341   -10.0361 H       
  63 H63            1.8541     2.8650   -10.1431 H       
  64 H64            2.5325     1.2394   -10.3990 H       
@<TRIPOS>BOND
   1    1    2 ar
   2    1    6 ar
   3    1   35 1
   4    2    3 ar
   5    2   36 1
   6    3    4 ar
   7    3   30 1
   8    4    5 ar
   9    4   37 1
  10    5    6 ar
  11    5    8 1
  12    6    7 1
  13    7   10 1
  14    7   11 1
  15    7   38 1
  16    8    9 1
  17    8   39 1
  18    8   40 1
  19    9   10 1
  20    9   41 1
  21    9   42 1
  22   10   14 am
  23   11   12 1
  24   11   43 1
  25   11   44 1
  26   12   13 1
  27   13   20 ar
  28   13   19 ar
  29   14   15 2
  30   14   16 1
  31   16   23 ar
  32   16   22 ar
  33   17   18 ar
  34   17   21 ar
  35   17   27 1
  36   18   19 ar
  37   18   45 1
  38   19   46 1
  39   20   21 ar
  40   20   47 1
  41   21   48 1
  42   22   26 ar
  43   22   49 1
  44   23   24 ar
  45   23   50 1
  46   24   25 ar
  47   24   51 1
  48   25   26 ar
  49   25   52 1
  50   26   29 1
  51   27   28 1
  52   28   34 1
  53   28   53 1
  54   28   54 1
  55   30   31 1
  56   31   32 1
  57   31   33 1
  58   31   55 1
  59   32   56 1
  60   32   57 1
  61   32   58 1
  62   33   59 1
  63   33   60 1
  64   33   61 1
  65   34   62 1
  66   34   63 1
  67   34   64 1

#	End of record

