#	Name: ASD03331740
#	Creating user name:	WinNT
#	Creation time:	15. 06. 2019 20:39

#	Modifying user name:	WinNT
#	Modification time:	15. 06. 2019 20:39

#	Program:	/corina/corina34_cracker 3.40 0067  02.08.2006

@<TRIPOS>MOLECULE
ASD03331740
  54   56    0    0    0
SMALL
NO_CHARGES


@<TRIPOS>ATOM
   1 C1            -0.5571     1.2802    -0.0687 C.3     
   2 N2            -0.5922    -0.1866    -0.1505 N.3     
   3 C3             0.0017    -0.6646    -1.4122 C.3     
   4 C4             1.3411     0.0056    -1.5788 C.2     
   5 N5             1.7318     1.1033    -0.8651 N.pl3   
   6 C6             0.8867     1.7556     0.1392 C.3     
   7 C7             2.3616    -0.3170    -2.4096 C.2     
   8 N8             3.3636     0.5777    -2.1974 N.2     
   9 C9             2.9871     1.4305    -1.2697 C.2     
  10 C10            3.7943     2.5558    -0.7533 C.2     
  11 C11            2.3819    -1.4344    -3.3694 C.2     
  12 O12            1.4179    -2.1695    -3.4674 O.2     
  13 N13            3.4687    -1.6421    -4.1389 N.am    
  14 C14            3.4889    -2.7533    -5.0934 C.3     
  15 C15            2.8279    -2.3141    -6.4015 C.3     
  16 C16            4.9153    -3.1584    -5.3626 C.2     
  17 N17            5.2002    -4.4274    -5.7160 N.am    
  18 O18            5.8068    -2.3425    -5.2613 O.2     
  19 C19            6.5946    -4.8497    -5.8694 C.3     
  20 C20            3.5214    -1.0550    -6.9257 C.3     
  21 C21            2.9526    -3.4336    -7.4369 C.3     
  22 C22            1.3488    -2.0145    -6.1500 C.3     
  23 C23            3.9368     2.8105     0.5610 C.2     
  24 S24            4.9309     4.1764     0.8009 S.3     
  25 C25            5.1459     4.3897    -0.9300 C.2     
  26 C26            4.4798     3.4429    -1.5871 C.2     
  27 C27            4.4590     3.3430    -3.0907 C.3     
  28 H28           -0.9483     1.7041    -0.9936 H       
  29 H29           -1.1715     1.6112     0.7685 H       
  30 H30           -0.1343    -0.6042     0.6457 H       
  31 H31            0.1332    -1.7459    -1.3713 H       
  32 H32           -0.6477    -0.4031    -2.2476 H       
  33 H33            0.9389     2.8375     0.0174 H       
  34 H34            1.2241     1.4807     1.1386 H       
  35 H35            4.2376    -1.0559    -4.0607 H       
  36 H36            2.9432    -3.6000    -4.6769 H       
  37 H37            4.4819    -5.0612    -5.8688 H       
  38 H38            7.0737    -4.2475    -6.6414 H       
  39 H39            7.1210    -4.7149    -4.9246 H       
  40 H40            6.6265    -5.9007    -6.1565 H       
  41 H41            4.5752    -1.2685    -7.1049 H       
  42 H42            3.0505    -0.7421    -7.8576 H       
  43 H43            3.4326    -0.2575    -6.1880 H       
  44 H44            2.4118    -4.3132    -7.0879 H       
  45 H45            2.5307    -3.1002    -8.3850 H       
  46 H46            4.0042    -3.6849    -7.5755 H       
  47 H47            1.2600    -1.2169    -5.4123 H       
  48 H48            0.8779    -1.7016    -7.0819 H       
  49 H49            0.8548    -2.9115    -5.7765 H       
  50 H50            3.4847     2.2315     1.3527 H       
  51 H51            5.7336     5.1696    -1.3914 H       
  52 H52            5.2850     2.7150    -3.4245 H       
  53 H53            3.5151     2.9033    -3.4126 H       
  54 H54            4.5621     4.3386    -3.5224 H       
@<TRIPOS>BOND
   1    1    2 1
   2    1    6 1
   3    1   28 1
   4    1   29 1
   5    2    3 1
   6    2   30 1
   7    3    4 1
   8    3   31 1
   9    3   32 1
  10    4    5 1
  11    4    7 2
  12    5    6 1
  13    5    9 1
  14    6   33 1
  15    6   34 1
  16    7    8 1
  17    7   11 1
  18    8    9 2
  19    9   10 1
  20   10   23 2
  21   10   26 1
  22   11   12 2
  23   11   13 am
  24   13   14 1
  25   13   35 1
  26   14   15 1
  27   14   16 1
  28   14   36 1
  29   15   20 1
  30   15   21 1
  31   15   22 1
  32   16   17 am
  33   16   18 2
  34   17   19 1
  35   17   37 1
  36   19   38 1
  37   19   39 1
  38   19   40 1
  39   20   41 1
  40   20   42 1
  41   20   43 1
  42   21   44 1
  43   21   45 1
  44   21   46 1
  45   22   47 1
  46   22   48 1
  47   22   49 1
  48   23   24 1
  49   23   50 1
  50   24   25 1
  51   25   26 2
  52   25   51 1
  53   26   27 1
  54   27   52 1
  55   27   53 1
  56   27   54 1

#	End of record

