#	Name: ASD01000014
#	Creating user name:	WinNT
#	Creation time:	15. 06. 2019 18:54

#	Modifying user name:	WinNT
#	Modification time:	15. 06. 2019 18:54

#	Program:	/corina/corina34_cracker 3.40 0067  02.08.2006

@<TRIPOS>MOLECULE
ASD01000014
  39   41    0    0    0
SMALL
NO_CHARGES


@<TRIPOS>ATOM
   1 C1            -0.5192     1.9622    -1.0916 C.ar    
   2 C2            -0.3364     0.6410    -0.7106 C.ar    
   3 C3            -1.4314    -0.1805    -0.5232 C.ar    
   4 C4            -2.7084     0.3133    -0.7151 C.ar    
   5 C5            -2.8932     1.6299    -1.0954 C.ar    
   6 C6            -1.8020     2.4569    -1.2780 C.ar    
   7 C7            -1.2336    -1.6161    -0.1097 C.3     
   8 N8            -2.1721    -1.9060     0.9875 N.am    
   9 C9            -1.3414    -2.4789    -1.3507 C.2     
  10 C10           -2.2853    -3.4476    -1.3633 C.2     
  11 N11           -3.1105    -3.6400    -0.2943 N.am    
  12 C12           -3.0590    -2.9076     0.8253 C.2     
  13 C13           -0.4846    -2.2777    -2.4584 C.2     
  14 C14            0.9677    -2.5222    -2.3238 C.ar    
  15 O15           -0.9430    -1.9032    -3.5228 O.2     
  16 S16           -4.1554    -3.2558     2.0933 S.2     
  17 O17            0.5563     2.7722    -1.2766 O.3     
  18 C18            1.8292    -2.2234    -3.3813 C.ar    
  19 C19            1.4824    -3.0471    -1.1370 C.ar    
  20 C20            2.8391    -3.2733    -1.0170 C.ar    
  21 C21            3.6896    -2.9794    -2.0743 C.ar    
  22 C22            3.1824    -2.4528    -3.2519 C.ar    
  23 C23           -4.1102    -4.7078    -0.3763 C.3     
  24 F24            3.3396    -3.7808     0.1307 F       
  25 F25            5.0166    -3.2018    -1.9528 F       
  26 H26            0.6609     0.2547    -0.5609 H       
  27 H27           -3.5630    -0.3304    -0.5681 H       
  28 H28           -3.8917     2.0131    -1.2454 H       
  29 H29           -1.9469     3.4852    -1.5747 H       
  30 H30           -0.2204    -1.7139     0.2800 H       
  31 H31           -2.1525    -1.3881     1.8075 H       
  32 H32           -2.3869    -4.0791    -2.2335 H       
  33 H33            0.9023     2.7664    -2.1796 H       
  34 H34            1.4358    -1.8133    -4.2997 H       
  35 H35            0.8208    -3.2754    -0.3144 H       
  36 H36            3.8481    -2.2259    -4.0714 H       
  37 H37           -3.6833    -5.6354     0.0050 H       
  38 H38           -4.9813    -4.4366     0.2201 H       
  39 H39           -4.4099    -4.8459    -1.4152 H       
@<TRIPOS>BOND
   1    1    2 ar
   2    1   17 1
   3    1    6 ar
   4    2    3 ar
   5    2   26 1
   6    3    4 ar
   7    3    7 1
   8    4    5 ar
   9    4   27 1
  10    5    6 ar
  11    5   28 1
  12    6   29 1
  13    7    8 1
  14    7    9 1
  15    7   30 1
  16    8   12 am
  17    8   31 1
  18    9   10 2
  19    9   13 1
  20   10   11 1
  21   10   32 1
  22   11   12 am
  23   11   23 1
  24   12   16 2
  25   13   14 1
  26   13   15 2
  27   14   18 ar
  28   14   19 ar
  29   17   33 1
  30   18   22 ar
  31   18   34 1
  32   19   20 ar
  33   19   35 1
  34   20   21 ar
  35   20   24 1
  36   21   22 ar
  37   21   25 1
  38   22   36 1
  39   23   37 1
  40   23   38 1
  41   23   39 1

#	End of record

