#	Name: ASD01730042
#	Creating user name:	WinNT
#	Creation time:	15. 06. 2019 19:23

#	Modifying user name:	WinNT
#	Modification time:	15. 06. 2019 19:23

#	Program:	/corina/corina34_cracker 3.40 0067  02.08.2006

@<TRIPOS>MOLECULE
ASD01730042
  36   37    0    0    0
SMALL
NO_CHARGES


@<TRIPOS>ATOM
   1 N1            -0.0115     1.3409     0.0184 N.am    
   2 C2             0.0034    -0.0067     0.0343 C.2     
   3 S3             1.4948    -0.8457     0.0863 S.2     
   4 N4            -1.1558    -0.6938     0.0094 N.am    
   5 N5            -2.2532    -2.7327     0.0037 N.2     
   6 C6            -1.1404    -2.0685    -0.1023 C.2     
   7 S7             0.3866    -2.8997    -0.3871 S.3     
   8 C8             0.0603    -4.4322     0.5204 C.3     
   9 C9            -1.3019    -4.9533     0.1380 C.ar    
  10 C10           -2.3664    -4.0881    -0.0997 C.ar    
  11 C11           -1.4811    -6.3192     0.0242 C.ar    
  12 C12           -2.7174    -6.8374    -0.3302 C.ar    
  13 C13           -3.7825    -5.9817    -0.5729 C.ar    
  14 C14           -3.6131    -4.6199    -0.4596 C.ar    
  15 O15           -2.8857    -8.1823    -0.4404 O.3     
  16 C16           -4.1864    -8.6453    -0.8093 C.3     
  17 F17           -4.5313    -8.1197    -2.0591 F       
  18 F18           -4.1824   -10.0427    -0.8761 F       
  19 F19           -5.1187    -8.2267     0.1460 F       
  20 C20            1.2485     2.0878     0.0456 C.3     
  21 C21            0.9524     3.5886     0.0199 C.3     
  22 C22            2.2684     4.3686     0.0483 C.3     
  23 H23           -0.8564     1.8162    -0.0150 H       
  24 H24           -2.0009    -0.2215     0.0699 H       
  25 H25            0.8181    -5.1737     0.2675 H       
  26 H26            0.0867    -4.2338     1.5918 H       
  27 H27           -0.6532    -6.9867     0.2123 H       
  28 H28           -4.7452    -6.3842    -0.8512 H       
  29 H29           -4.4449    -3.9576    -0.6491 H       
  30 H30            1.7975     1.8412     0.9544 H       
  31 H31            1.8480     1.8208    -0.8248 H       
  32 H32            0.4034     3.8352    -0.8889 H       
  33 H33            0.3530     3.8556     0.8903 H       
  34 H34            2.8174     4.1221     0.9571 H       
  35 H35            2.8678     4.1016    -0.8220 H       
  36 H36            2.0574     5.4379     0.0300 H       
@<TRIPOS>BOND
   1    1    2 am
   2    1   20 1
   3    1   23 1
   4    2    3 2
   5    2    4 am
   6    4    6 1
   7    4   24 1
   8    5    6 2
   9    5   10 1
  10    6    7 1
  11    7    8 1
  12    8    9 1
  13    8   25 1
  14    8   26 1
  15    9   10 ar
  16    9   11 ar
  17   10   14 ar
  18   11   12 ar
  19   11   27 1
  20   12   13 ar
  21   12   15 1
  22   13   14 ar
  23   13   28 1
  24   14   29 1
  25   15   16 1
  26   16   17 1
  27   16   18 1
  28   16   19 1
  29   20   21 1
  30   20   30 1
  31   20   31 1
  32   21   22 1
  33   21   32 1
  34   21   33 1
  35   22   34 1
  36   22   35 1
  37   22   36 1

#	End of record

