#	Name: ASD03240931
#	Creating user name:	WinNT
#	Creation time:	15. 06. 2019 20:35

#	Modifying user name:	WinNT
#	Modification time:	15. 06. 2019 20:35

#	Program:	/corina/corina34_cracker 3.40 0067  02.08.2006

@<TRIPOS>MOLECULE
ASD03240931
  79   86    0    0    0
SMALL
NO_CHARGES


@<TRIPOS>ATOM
   1 N1            -0.0165     1.3644     0.0095 N.pl3   
   2 C2             0.0021    -0.0041     0.0020 C.2     
   3 N3             1.1520    -0.7012    -0.0131 N.2     
   4 C4             2.3201    -0.1125    -0.0215 C.2     
   5 C5             2.3794     1.3476    -0.0142 C.ar    
   6 C6             3.5983     2.0343    -0.0225 C.ar    
   7 C7             3.5625     3.4247    -0.0146 C.ar    
   8 C8             2.3153     4.0793     0.0012 C.ar    
   9 N9             1.1813     3.3950     0.0086 N.ar    
  10 C10            1.1694     2.0733     0.0020 C.ar    
  11 C11           -1.3218    -0.4220     0.0129 C.2     
  12 C12           -2.1233     0.7125     0.0269 C.2     
  13 N13           -1.3548     1.7753     0.0302 N.2     
  14 C14            2.2712     5.5595     0.0101 C.ar    
  15 C15            1.2560     6.2339    -0.6682 C.ar    
  16 C16            1.2200     7.6132    -0.6558 C.ar    
  17 C17            2.1882     8.3271     0.0276 C.ar    
  18 C18            3.1977     7.6639     0.7022 C.ar    
  19 C19            3.2415     6.2848     0.7017 C.ar    
  20 C20            2.1433     9.8334     0.0367 C.3     
  21 N21            1.3452    10.2926     1.1813 N.3     
  22 C22            1.4722    11.7443     1.3628 C.3     
  23 C23            0.7487    12.1646     2.6442 C.3     
  24 C24           -0.7276    11.7712     2.5436 C.3     
  25 C25           -0.8305    10.2620     2.3064 C.3     
  26 C26           -0.0613     9.8968     1.0348 C.3     
  27 N27           -2.4770    12.9758     3.9593 N.pl3   
  28 C28           -2.7742    13.0065     5.2796 C.2     
  29 C29           -3.8585    13.8400     5.9118 C.3     
  30 C30           -5.1477    13.6841     5.0996 C.3     
  31 C31           -5.1758    14.7218     3.9815 C.3     
  32 C32           -3.7624    14.9958     3.4697 C.3     
  33 C33           -3.1628    13.7093     2.8951 C.3     
  34 N34           -1.1488    11.6773     5.0198 N.2     
  35 N35           -1.9497    12.1985     5.8828 N.2     
  36 C36           -1.4326    12.1286     3.8266 C.2     
  37 C37            4.8213     4.2081    -0.0223 C.ar    
  38 C38            5.8335     3.9147     0.8902 C.ar    
  39 C39            7.0032     4.6469     0.8781 C.ar    
  40 C40            7.1723     5.6702    -0.0372 C.ar    
  41 C41            6.1712     5.9661    -0.9448 C.ar    
  42 C42            4.9995     5.2369    -0.9458 C.ar    
  43 C43           -3.6302     0.7208     0.0412 C.3     
  44 H44            3.2279    -0.6974    -0.0333 H       
  45 H45            4.5376     1.5015    -0.0343 H       
  46 H46           -1.6666    -1.4455     0.0105 H       
  47 H47            0.4998     5.6777    -1.2023 H       
  48 H48            0.4347     8.1365    -1.1809 H       
  49 H49            3.9507     8.2268     1.2339 H       
  50 H50            4.0274     5.7681     1.2324 H       
  51 H51            3.1566    10.2266     0.1191 H       
  52 H52            1.6898    10.1890    -0.8885 H       
  53 H53            2.5266    12.0101     1.4371 H       
  54 H54            1.0277    12.2572     0.5099 H       
  55 H55            1.2017    11.6627     3.4992 H       
  56 H56            0.8299    13.2443     2.7704 H       
  57 H57           -1.1904    12.3030     1.7122 H       
  58 H58           -0.4024     9.7301     3.1561 H       
  59 H59           -1.8777     9.9823     2.1913 H       
  60 H60           -0.4986    10.4183     0.1834 H       
  61 H61           -0.1206     8.8208     0.8709 H       
  62 H62           -4.0287    13.5021     6.9341 H       
  63 H63           -3.5562    14.8872     5.9184 H       
  64 H64           -5.1860    12.6840     4.6678 H       
  65 H65           -6.0081    13.8305     5.7525 H       
  66 H66           -5.7897    14.3500     3.1611 H       
  67 H67           -5.6067    15.6482     4.3613 H       
  68 H68           -3.8001    15.7576     2.6910 H       
  69 H69           -3.1411    15.3496     4.2924 H       
  70 H70           -2.4505    13.9597     2.1089 H       
  71 H71           -3.9588    13.0902     2.4814 H       
  72 H72            5.7023     3.1162     1.6055 H       
  73 H73            7.7879     4.4207     1.5849 H       
  74 H74            8.0894     6.2405    -0.0430 H       
  75 H75            6.3085     6.7666    -1.6566 H       
  76 H76            4.2204     5.4659    -1.6578 H       
  77 H77           -3.9838     0.7169     1.0722 H       
  78 H78           -3.9934     1.6156    -0.4642 H       
  79 H79           -4.0033    -0.1643    -0.4742 H       
@<TRIPOS>BOND
   1    1    2 1
   2    1   10 1
   3    1   13 1
   4    2    3 1
   5    2   11 2
   6    3    4 2
   7    4    5 1
   8    4   44 1
   9    5    6 ar
  10    5   10 ar
  11    6    7 ar
  12    6   45 1
  13    7    8 ar
  14    7   37 1
  15    8    9 ar
  16    8   14 1
  17    9   10 ar
  18   11   12 1
  19   11   46 1
  20   12   13 2
  21   12   43 1
  22   14   15 ar
  23   14   19 ar
  24   15   16 ar
  25   15   47 1
  26   16   17 ar
  27   16   48 1
  28   17   18 ar
  29   17   20 1
  30   18   19 ar
  31   18   49 1
  32   19   50 1
  33   20   21 1
  34   20   51 1
  35   20   52 1
  36   21   22 1
  37   21   26 1
  38   22   23 1
  39   22   53 1
  40   22   54 1
  41   23   24 1
  42   23   55 1
  43   23   56 1
  44   24   25 1
  45   24   36 1
  46   24   57 1
  47   25   26 1
  48   25   58 1
  49   25   59 1
  50   26   60 1
  51   26   61 1
  52   27   28 1
  53   27   33 1
  54   27   36 1
  55   28   29 1
  56   28   35 2
  57   29   30 1
  58   29   62 1
  59   29   63 1
  60   30   31 1
  61   30   64 1
  62   30   65 1
  63   31   32 1
  64   31   66 1
  65   31   67 1
  66   32   33 1
  67   32   68 1
  68   32   69 1
  69   33   70 1
  70   33   71 1
  71   34   35 1
  72   34   36 2
  73   37   38 ar
  74   37   42 ar
  75   38   39 ar
  76   38   72 1
  77   39   40 ar
  78   39   73 1
  79   40   41 ar
  80   40   74 1
  81   41   42 ar
  82   41   75 1
  83   42   76 1
  84   43   77 1
  85   43   78 1
  86   43   79 1

#	End of record

