#	Name: ASD01883514
#	Creating user name:	WinNT
#	Creation time:	15. 06. 2019 19:46

#	Modifying user name:	WinNT
#	Modification time:	15. 06. 2019 19:46

#	Program:	/corina/corina34_cracker 3.40 0067  02.08.2006

@<TRIPOS>MOLECULE
ASD01883514
  53   56    0    0    0
SMALL
NO_CHARGES


@<TRIPOS>ATOM
   1 N1            -0.0162     1.3417     0.0094 N.am    
   2 C2             0.0021    -0.0041     0.0020 C.2     
   3 C3            -1.2162    -0.7274     0.0102 C.2     
   4 C4            -2.4259    -0.0114     0.0261 C.2     
   5 C5            -2.3786     1.3964     0.0332 C.2     
   6 C6            -1.1850     2.0323     0.0299 C.2     
   7 O7             1.0656    -0.6000    -0.0121 O.2     
   8 C8            -1.2153    -2.1594     0.0021 C.1     
   9 N9            -1.2146    -3.2953    -0.0044 N.1     
  10 C10            1.2512     2.0765     0.0013 C.3     
  11 C11            1.6786     2.3400    -1.4440 C.3     
  12 C12            3.0023     3.1074    -1.4525 C.3     
  13 C13            4.1049     2.2289    -0.8581 C.3     
  14 C14           -3.7222    -0.7219     0.0347 C.ar    
  15 C15           -4.0780    -1.5150     1.1355 C.ar    
  16 C16           -5.2687    -2.1765     1.1596 C.ar    
  17 C17           -6.1509    -2.0721     0.0844 C.ar    
  18 C18           -5.8064    -1.2785    -1.0287 C.ar    
  19 C19           -4.5877    -0.5980    -1.0454 C.ar    
  20 N20           -7.3856    -2.6023    -0.1778 N.pl3   
  21 N21           -7.8196    -2.1571    -1.4303 N.2     
  22 C22           -6.9234    -1.3780    -1.9643 C.2     
  23 C23           -8.1331    -3.4941     0.7122 C.3     
  24 C24           -9.0029    -2.6743     1.6300 C.ar    
  25 C25          -10.2984    -2.3386     1.2677 C.ar    
  26 C26          -11.0668    -1.5858     2.1355 C.ar    
  27 N27          -10.5806    -1.1878     3.2949 N.ar    
  28 C28           -9.3534    -1.4883     3.6723 C.ar    
  29 C29           -8.5286    -2.2427     2.8593 C.ar    
  30 C30            3.3667     3.4796    -2.8911 C.3     
  31 H31           -3.2950     1.9676     0.0450 H       
  32 H32           -1.1612     3.1120     0.0354 H       
  33 H33            1.1241     3.0259     0.5214 H       
  34 H34            2.0168     1.4860     0.5046 H       
  35 H35            1.8057     1.3906    -1.9642 H       
  36 H36            0.9131     2.9305    -1.9474 H       
  37 H37            2.9001     4.0147    -0.8572 H       
  38 H38            5.0479     2.7756    -0.8642 H       
  39 H39            3.8453     1.9637     0.1668 H       
  40 H40            4.2071     1.3216    -1.4534 H       
  41 H41           -3.4010    -1.6024     1.9724 H       
  42 H42           -5.5301    -2.7838     2.0136 H       
  43 H43           -4.3160     0.0124    -1.8939 H       
  44 H44           -6.9937    -0.8921    -2.9263 H       
  45 H45           -8.7586    -4.1600     0.1177 H       
  46 H46           -7.4347    -4.0847     1.3051 H       
  47 H47          -10.7020    -2.6610     0.3193 H       
  48 H48          -12.0769    -1.3201     1.8607 H       
  49 H49           -8.9898    -1.1442     4.6292 H       
  50 H50           -7.5245    -2.4859     3.1741 H       
  51 H51            2.5812     4.1055    -3.3146 H       
  52 H52            4.3097     4.0263    -2.8971 H       
  53 H53            3.4689     2.5723    -3.4864 H       
@<TRIPOS>BOND
   1    1    2 am
   2    1   10 1
   3    1    6 1
   4    2    3 1
   5    2    7 2
   6    3    4 2
   7    3    8 1
   8    4    5 1
   9    4   14 1
  10    5    6 2
  11    5   31 1
  12    6   32 1
  13    8    9 3
  14   10   11 1
  15   10   33 1
  16   10   34 1
  17   11   12 1
  18   11   35 1
  19   11   36 1
  20   12   13 1
  21   12   30 1
  22   12   37 1
  23   13   38 1
  24   13   39 1
  25   13   40 1
  26   14   15 ar
  27   14   19 ar
  28   15   16 ar
  29   15   41 1
  30   16   17 ar
  31   16   42 1
  32   17   18 ar
  33   17   20 1
  34   18   19 ar
  35   18   22 1
  36   19   43 1
  37   20   21 1
  38   20   23 1
  39   21   22 2
  40   22   44 1
  41   23   24 1
  42   23   45 1
  43   23   46 1
  44   24   25 ar
  45   24   29 ar
  46   25   26 ar
  47   25   47 1
  48   26   27 ar
  49   26   48 1
  50   27   28 ar
  51   28   29 ar
  52   28   49 1
  53   29   50 1
  54   30   51 1
  55   30   52 1
  56   30   53 1

#	End of record

