#	Name: ASD04882352
#	Creating user name:	WinNT
#	Creation time:	15. 06. 2019 20:54

#	Modifying user name:	WinNT
#	Modification time:	15. 06. 2019 20:54

#	Program:	/corina/corina34_cracker 3.40 0067  02.08.2006

@<TRIPOS>MOLECULE
ASD04882352
  76   81    0    0    0
SMALL
NO_CHARGES


@<TRIPOS>ATOM
   1 N1            -0.0169     1.3970     0.0097 N.am    
   2 C2             0.1097     0.0022    -0.0340 C.ar    
   3 C3            -1.0276    -0.8061     0.0459 C.ar    
   4 C4            -0.9035    -2.1901     0.0027 C.ar    
   5 C5             0.3399    -2.7696    -0.1194 C.ar    
   6 C6             1.4813    -1.9670    -0.2002 C.ar    
   7 C7             1.3589    -0.5752    -0.1618 C.ar    
   8 N8            -2.2868    -0.2245     0.1694 N.3     
   9 C9            -3.1529    -0.5995    -0.9571 C.3     
  10 C10           -2.9095    -0.5838     1.4511 C.3     
  11 C11           -4.2532     0.1370     1.5823 C.3     
  12 N12           -5.1193    -0.2379     0.4558 N.3     
  13 C13           -4.4966     0.1214    -0.8259 C.3     
  14 C14            2.8132    -2.5880    -0.3310 C.2     
  15 O15            3.8057    -1.8890    -0.4012 O.2     
  16 C16            0.9210     2.1770    -0.5632 C.2     
  17 C17            0.7439     3.6400    -0.5949 C.2     
  18 O18            1.9136     1.6738    -1.0541 O.2     
  19 N19            2.9298    -3.9300    -0.3726 N.am    
  20 C20           -6.3823     0.3455     0.5797 C.ar    
  21 C21           -7.5142    -0.4555     0.6592 C.ar    
  22 C22           -6.5087     1.7281     0.6293 C.ar    
  23 C23           -7.7588     2.3016     0.7518 C.ar    
  24 C24           -8.8843     1.5012     0.8255 C.ar    
  25 C25           -8.7617     0.1247     0.7817 C.ar    
  26 C26           -7.3815    -1.9559     0.6116 C.3     
  27 N27           -0.3086     4.3381    -0.0886 N.2     
  28 C28            1.6053     4.5474    -1.1308 C.2     
  29 O29            1.0608     5.7606    -0.9457 O.3     
  30 C30           -0.1072     5.6030    -0.3070 C.2     
  31 C31           -1.0393     6.7170     0.0944 C.3     
  32 C32           -0.4965     7.7833     1.0480 C.3     
  33 C33           -0.7272     8.1215    -0.4262 C.3     
  34 C34            4.2524    -4.5467    -0.5024 C.3     
  35 C35            4.1051    -6.0694    -0.5251 C.3     
  36 N36            5.4277    -6.6860    -0.6550 N.am    
  37 C37            6.1795    -7.0172     0.4021 C.2     
  38 C38            5.9815    -6.9699    -1.8403 C.2     
  39 C39            7.3410    -7.5957    -1.6175 C.3     
  40 C40            7.4767    -7.6281    -0.0815 C.3     
  41 O41            5.8703    -6.8533     1.5627 O.2     
  42 O42            5.4740    -6.7594    -2.9209 O.2     
  43 H43           -0.7817     1.8010     0.4488 H       
  44 H44           -1.7840    -2.8123     0.0653 H       
  45 H45            0.4331    -3.8451    -0.1524 H       
  46 H46            2.2391     0.0475    -0.2241 H       
  47 H47           -2.6758    -0.3119    -1.8940 H       
  48 H48           -3.3159    -1.6772    -0.9474 H       
  49 H49           -3.0697    -1.6614     1.4881 H       
  50 H50           -2.2550    -0.2849     2.2698 H       
  51 H51           -4.7302    -0.1506     2.5192 H       
  52 H52           -4.0902     1.2147     1.5726 H       
  53 H53           -4.3364     1.1989    -0.8629 H       
  54 H54           -5.1511    -0.1776    -1.6446 H       
  55 H55            2.1381    -4.4876    -0.3165 H       
  56 H56           -5.6301     2.3537     0.5725 H       
  57 H57           -7.8577     3.3764     0.7904 H       
  58 H58           -9.8608     1.9523     0.9219 H       
  59 H59           -9.6426    -0.4974     0.8394 H       
  60 H60           -7.2601    -2.3422     1.6236 H       
  61 H61           -8.2773    -2.3858     0.1635 H       
  62 H62           -6.5110    -2.2248     0.0132 H       
  63 H63            2.5475     4.3324    -1.6129 H       
  64 H64           -2.0884     6.4389     0.1951 H       
  65 H65           -1.1886     8.2068     1.7758 H       
  66 H66            0.5348     7.6790     1.3851 H       
  67 H67            0.1524     8.2397    -1.0590 H       
  68 H68           -1.5710     8.7676    -0.6683 H       
  69 H69            4.7195    -4.2129    -1.4289 H       
  70 H70            4.8742    -4.2544     0.3438 H       
  71 H71            3.6380    -6.4031     0.4014 H       
  72 H72            3.4833    -6.3617    -1.3713 H       
  73 H73            7.3693    -8.6066    -2.0242 H       
  74 H74            8.1238    -6.9805    -2.0611 H       
  75 H75            8.3272    -7.0277     0.2412 H       
  76 H76            7.5733    -8.6541     0.2735 H       
@<TRIPOS>BOND
   1    1    2 1
   2    1   16 am
   3    1   43 1
   4    2    3 ar
   5    2    7 ar
   6    3    4 ar
   7    3    8 1
   8    4    5 ar
   9    4   44 1
  10    5    6 ar
  11    5   45 1
  12    6    7 ar
  13    6   14 1
  14    7   46 1
  15    8    9 1
  16    8   10 1
  17    9   13 1
  18    9   47 1
  19    9   48 1
  20   10   11 1
  21   10   49 1
  22   10   50 1
  23   11   12 1
  24   11   51 1
  25   11   52 1
  26   12   13 1
  27   12   20 1
  28   13   53 1
  29   13   54 1
  30   14   15 2
  31   14   19 am
  32   16   18 2
  33   16   17 1
  34   17   27 1
  35   17   28 2
  36   19   34 1
  37   19   55 1
  38   20   21 ar
  39   20   22 ar
  40   21   26 1
  41   21   25 ar
  42   22   23 ar
  43   22   56 1
  44   23   24 ar
  45   23   57 1
  46   24   25 ar
  47   24   58 1
  48   25   59 1
  49   26   60 1
  50   26   61 1
  51   26   62 1
  52   27   30 2
  53   28   29 1
  54   28   63 1
  55   29   30 1
  56   30   31 1
  57   31   32 1
  58   31   33 1
  59   31   64 1
  60   32   33 1
  61   32   65 1
  62   32   66 1
  63   33   67 1
  64   33   68 1
  65   34   35 1
  66   34   69 1
  67   34   70 1
  68   35   36 1
  69   35   71 1
  70   35   72 1
  71   36   37 am
  72   36   38 am
  73   37   41 2
  74   37   40 1
  75   38   39 1
  76   38   42 2
  77   39   40 1
  78   39   73 1
  79   39   74 1
  80   40   75 1
  81   40   76 1

#	End of record

