#	Name: ASD02440006
#	Creating user name:	WinNT
#	Creation time:	15. 06. 2019 20:21

#	Modifying user name:	WinNT
#	Modification time:	15. 06. 2019 20:21

#	Program:	/corina/corina34_cracker 3.40 0067  02.08.2006

@<TRIPOS>MOLECULE
ASD02440006
  51   52    0    0    0
SMALL
NO_CHARGES


@<TRIPOS>ATOM
   1 C1            -0.0168     1.3841     0.0097 C.ar    
   2 C2             0.0021    -0.0041     0.0020 C.ar    
   3 C3            -1.1794    -0.7127     0.0095 C.ar    
   4 C4            -2.4024    -0.0328     0.0248 C.ar    
   5 C5            -2.4204     1.3673     0.0325 C.ar    
   6 C6            -1.2316     2.0691     0.0307 C.ar    
   7 O7            -1.2451     3.4290     0.0386 O.3     
   8 O8             1.1513     2.0771     0.0022 O.3     
   9 C9            -3.6643    -0.7860     0.0323 C.2     
  10 C10           -3.6447    -2.1368     0.0244 C.2     
  11 C11           -4.8621    -2.8634     0.0317 C.2     
  12 O12           -5.9243    -2.2706     0.0450 O.2     
  13 O13           -4.8426    -4.2126     0.0238 O.3     
  14 C14           -6.1062    -4.8798     0.0318 C.3     
  15 C15           -5.9673    -6.2267     0.7442 C.3     
  16 C16           -6.5638    -5.1062    -1.3861 C.2     
  17 O17           -5.8388    -4.8168    -2.3083 O.2     
  18 O18           -7.7767    -5.6294    -1.6245 O.3     
  19 O19           -5.0966    -7.0752    -0.0069 O.3     
  20 C20           -5.3934    -6.0102     2.1207 C.2     
  21 H21           -5.9181    -5.3911     2.8332 H       
  22 O22           -4.3468    -6.5289     2.4269 O.2     
  23 C23           -5.3186    -8.4038     0.0711 C.2     
  24 C24           -4.4927    -9.3040    -0.6483 C.2     
  25 O25           -6.2275    -8.8293     0.7588 O.2     
  26 C26           -4.7150   -10.6343    -0.5702 C.2     
  27 C27           -3.8589   -11.5673    -1.3159 C.ar    
  28 C28           -4.0874   -12.9461    -1.2364 C.ar    
  29 C29           -3.2799   -13.8178    -1.9398 C.ar    
  30 C30           -2.2396   -13.3244    -2.7265 C.ar    
  31 C31           -2.0118   -11.9568    -2.8057 C.ar    
  32 C32           -2.8162   -11.0797    -2.1124 C.ar    
  33 O33           -1.4465   -14.1840    -3.4170 O.3     
  34 O34           -3.4989   -15.1579    -1.8650 O.3     
  35 H35            0.9454    -0.5298    -0.0102 H       
  36 H36           -1.1617    -1.7926     0.0032 H       
  37 H37           -3.3616     1.8967     0.0443 H       
  38 H38           -1.2447     3.8172     0.9243 H       
  39 H39            1.4811     2.2825    -0.8833 H       
  40 H40           -4.6073    -0.2596     0.0442 H       
  41 H41           -2.7018    -2.6631     0.0126 H       
  42 H42           -6.8382    -4.2653     0.5561 H       
  43 H43           -6.9476    -6.6957     0.8289 H       
  44 H44           -8.0259    -5.7561    -2.5502 H       
  45 H45           -3.6859    -8.9263    -1.2588 H       
  46 H46           -5.5219   -11.0120     0.0403 H       
  47 H47           -4.8930   -13.3271    -0.6263 H       
  48 H48           -1.2045   -11.5797    -3.4161 H       
  49 H49           -2.6369   -10.0165    -2.1760 H       
  50 H50           -1.7640   -14.3821    -4.3087 H       
  51 H51           -4.1097   -15.4946    -2.5349 H       
@<TRIPOS>BOND
   1    1    2 ar
   2    1    8 1
   3    1    6 ar
   4    2    3 ar
   5    2   35 1
   6    3    4 ar
   7    3   36 1
   8    4    5 ar
   9    4    9 1
  10    5    6 ar
  11    5   37 1
  12    6    7 1
  13    7   38 1
  14    8   39 1
  15    9   10 2
  16    9   40 1
  17   10   11 1
  18   10   41 1
  19   11   12 2
  20   11   13 1
  21   13   14 1
  22   14   15 1
  23   14   16 1
  24   14   42 1
  25   15   19 1
  26   15   20 1
  27   15   43 1
  28   16   17 2
  29   16   18 1
  30   18   44 1
  31   19   23 1
  32   20   21 1
  33   20   22 2
  34   23   24 1
  35   23   25 2
  36   24   26 2
  37   24   45 1
  38   26   27 1
  39   26   46 1
  40   27   28 ar
  41   27   32 ar
  42   28   29 ar
  43   28   47 1
  44   29   30 ar
  45   29   34 1
  46   30   31 ar
  47   30   33 1
  48   31   32 ar
  49   31   48 1
  50   32   49 1
  51   33   50 1
  52   34   51 1

#	End of record

