#	Name: ASD01880360
#	Creating user name:	WinNT
#	Creation time:	15. 06. 2019 19:40

#	Modifying user name:	WinNT
#	Modification time:	15. 06. 2019 19:40

#	Program:	/corina/corina34_cracker 3.40 0067  02.08.2006

@<TRIPOS>MOLECULE
ASD01880360
  43   46    0    0    0
SMALL
NO_CHARGES


@<TRIPOS>ATOM
   1 C1            -0.0158     1.3166     0.0093 C.ar    
   2 N2             0.0021    -0.0041     0.0020 N.ar    
   3 C3            -1.1218    -0.7055     0.0094 C.ar    
   4 C4            -2.3611    -0.0158     0.0254 C.ar    
   5 C5            -2.3234     1.3812     0.0325 C.ar    
   6 N6            -1.1363     2.0007     0.0291 N.ar    
   7 C7            -3.7205    -0.5227     0.0357 C.2     
   8 C8            -4.6572     0.4056     0.0497 C.2     
   9 S9            -3.9623     2.0156     0.0517 S.3     
  10 C10           -6.1367     0.1192     0.0623 C.3     
  11 N11           -1.0871    -2.0883     0.0012 N.pl3   
  12 C12            0.1995    -2.7886    -0.0158 C.3     
  13 C13           -0.0386    -4.2767    -0.0219 C.ar    
  14 C14           -0.3478    -6.3300     1.1704 C.ar    
  15 C15           -0.4754    -7.0084    -0.0330 C.ar    
  16 C16           -0.3786    -6.3153    -1.2309 C.ar    
  17 C17           -0.1598    -4.9514    -1.2227 C.ar    
  18 C18           -0.1300    -4.9659     1.1733 C.ar    
  19 C19            1.2933     2.0630     0.0008 C.3     
  20 O20           -0.6897    -8.3504    -0.0384 O.3     
  21 C21           -0.8111    -8.9828    -1.3141 C.3     
  22 C22           -1.0437   -10.4594    -1.1227 C.2     
  23 N23           -1.2014   -11.3555    -2.0661 N.2     
  24 N24           -1.3749   -12.5008    -1.5020 N.2     
  25 N25           -1.3319   -12.3585    -0.2233 N.2     
  26 N26           -1.1240   -11.1149     0.0501 N.pl3   
  27 H27           -3.9477    -1.5785     0.0318 H       
  28 H28           -6.4835     0.0446     1.0929 H       
  29 H29           -6.6674     0.9266    -0.4421 H       
  30 H30           -6.3292    -0.8209    -0.4548 H       
  31 H31           -1.9147    -2.5942     0.0067 H       
  32 H32            0.7553    -2.5060    -0.9099 H       
  33 H33            0.7733    -2.5161     0.8700 H       
  34 H34           -0.4230    -6.8673     2.1043 H       
  35 H35           -0.4776    -6.8412    -2.1690 H       
  36 H36           -0.0837    -4.4115    -2.1549 H       
  37 H37           -0.0305    -4.4373     2.1099 H       
  38 H38            1.5991     2.2485    -1.0289 H       
  39 H39            1.1731     3.0133     0.5209 H       
  40 H40            2.0546     1.4670     0.5042 H       
  41 H41           -1.6520    -8.5497    -1.8558 H       
  42 H42            0.1055    -8.8302    -1.8840 H       
  43 H43           -1.0464   -10.7246     0.9347 H       
@<TRIPOS>BOND
   1    1    2 ar
   2    1   19 1
   3    1    6 ar
   4    2    3 ar
   5    3    4 ar
   6    3   11 1
   7    4    5 ar
   8    4    7 1
   9    5    6 ar
  10    5    9 1
  11    7    8 2
  12    7   27 1
  13    8    9 1
  14    8   10 1
  15   10   28 1
  16   10   29 1
  17   10   30 1
  18   11   12 1
  19   11   31 1
  20   12   13 1
  21   12   32 1
  22   12   33 1
  23   13   17 ar
  24   13   18 ar
  25   14   15 ar
  26   14   18 ar
  27   14   34 1
  28   15   16 ar
  29   15   20 1
  30   16   17 ar
  31   16   35 1
  32   17   36 1
  33   18   37 1
  34   19   38 1
  35   19   39 1
  36   19   40 1
  37   20   21 1
  38   21   22 1
  39   21   41 1
  40   21   42 1
  41   22   23 2
  42   22   26 1
  43   23   24 1
  44   24   25 2
  45   25   26 1
  46   26   43 1

#	End of record

