#	Name: ASD03330795
#	Creating user name:	WinNT
#	Creation time:	15. 06. 2019 20:38

#	Modifying user name:	WinNT
#	Modification time:	15. 06. 2019 20:38

#	Program:	/corina/corina34_cracker 3.40 0067  02.08.2006

@<TRIPOS>MOLECULE
ASD03330795
  60   62    0    0    0
SMALL
NO_CHARGES


@<TRIPOS>ATOM
   1 C1             0.7794     1.4277     0.2194 C.2     
   2 N2             0.6852     0.0723     0.2676 N.pl3   
   3 C3             2.0967     1.7318     0.0551 C.2     
   4 N4             2.7828     0.5699    -0.0120 N.2     
   5 C5             1.9430    -0.4315     0.1088 C.2     
   6 C6             2.3006    -1.8663     0.0780 C.ar    
   7 C7             2.6709     3.0860    -0.0341 C.2     
   8 O8             1.9461     4.0599     0.0399 O.2     
   9 C9             4.5700     4.5916    -0.2863 C.3     
  10 N10            3.9991     3.2453    -0.1976 N.am    
  11 C11            5.8889     4.5364    -1.0598 C.3     
  12 C12            4.8233     5.1222     1.1013 C.2     
  13 O13            4.5535     4.4427     2.0690 O.2     
  14 C14           -0.5520    -0.6869     0.4692 C.3     
  15 C15           -1.6386    -0.1318    -0.4569 C.3     
  16 C16           -2.3659     1.0180     0.2326 C.3     
  17 N17           -1.4560     1.7767     1.0930 N.3     
  18 C18           -0.3730     2.3939     0.3128 C.3     
  19 C19            1.8067    -2.7326     1.0538 C.ar    
  20 C20            2.1437    -4.0709     1.0193 C.ar    
  21 C21           -2.1862     2.7867     1.8706 C.3     
  22 N22            5.3496     6.3518     1.2669 N.am    
  23 C23            2.9707    -4.5549     0.0193 C.ar    
  24 C24            5.6107     4.1582    -2.5160 C.3     
  25 C25            3.1298    -2.3613    -0.9316 C.ar    
  26 C26            3.4641    -3.7027    -0.9511 C.ar    
  27 F27            3.6082    -1.5302    -1.8832 F       
  28 C28            4.5827     5.1253    -3.1066 C.3     
  29 C29            6.9091     4.2399    -3.3211 C.3     
  30 C30            5.0620     2.7313    -2.5765 C.3     
  31 Cl31           1.5298    -5.1499     2.2329 Cl      
  32 H32            3.8720     5.2488    -0.8048 H       
  33 H33            4.5771     2.4686    -0.2567 H       
  34 H34            6.3723     5.5127    -1.0239 H       
  35 H35            6.5434     3.7901    -0.6093 H       
  36 H36           -0.3768    -1.7373     0.2367 H       
  37 H37           -0.8733    -0.5910     1.5064 H       
  38 H38           -1.1804     0.2294    -1.3776 H       
  39 H39           -2.3515    -0.9217    -0.6935 H       
  40 H40           -2.7810     1.6837    -0.5241 H       
  41 H41           -3.1782     0.6156     0.8380 H       
  42 H42           -0.0432     3.3079     0.8067 H       
  43 H43           -0.7335     2.6291    -0.6886 H       
  44 H44            1.1622    -2.3569     1.8348 H       
  45 H45           -2.9305     2.2949     2.4968 H       
  46 H46           -1.4866     3.3357     2.5009 H       
  47 H47           -2.6832     3.4790     1.1910 H       
  48 H48            5.5654     6.8953     0.4929 H       
  49 H49            5.5126     6.6934     2.1600 H       
  50 H50            3.2317    -5.6027    -0.0023 H       
  51 H51            4.1050    -4.0872    -1.7307 H       
  52 H52            4.9736     6.1419    -3.0635 H       
  53 H53            4.3845     4.8559    -4.1440 H       
  54 H54            3.6577     5.0671    -2.5330 H       
  55 H55            7.6415     3.5509    -2.9004 H       
  56 H56            6.7109     3.9705    -4.3586 H       
  57 H57            7.3000     5.2565    -3.2781 H       
  58 H58            4.0624     2.7077    -2.1425 H       
  59 H59            5.0151     2.4037    -3.6150 H       
  60 H60            5.7177     2.0658    -2.0149 H       
@<TRIPOS>BOND
   1    1    2 1
   2    1    3 2
   3    1   18 1
   4    2   14 1
   5    2    5 1
   6    3    4 1
   7    3    7 1
   8    4    5 2
   9    5    6 1
  10    6   25 ar
  11    6   19 ar
  12    7    8 2
  13    7   10 am
  14    9   10 1
  15    9   11 1
  16    9   12 1
  17    9   32 1
  18   10   33 1
  19   11   24 1
  20   11   34 1
  21   11   35 1
  22   12   13 2
  23   12   22 am
  24   14   15 1
  25   14   36 1
  26   14   37 1
  27   15   16 1
  28   15   38 1
  29   15   39 1
  30   16   17 1
  31   16   40 1
  32   16   41 1
  33   17   18 1
  34   17   21 1
  35   18   42 1
  36   18   43 1
  37   19   20 ar
  38   19   44 1
  39   20   31 1
  40   20   23 ar
  41   21   45 1
  42   21   46 1
  43   21   47 1
  44   22   48 1
  45   22   49 1
  46   23   26 ar
  47   23   50 1
  48   24   28 1
  49   24   29 1
  50   24   30 1
  51   25   26 ar
  52   25   27 1
  53   26   51 1
  54   28   52 1
  55   28   53 1
  56   28   54 1
  57   29   55 1
  58   29   56 1
  59   29   57 1
  60   30   58 1
  61   30   59 1
  62   30   60 1

#	End of record

