#	Name: ASD01028438
#	Creating user name:	WinNT
#	Creation time:	15. 06. 2019 18:57

#	Modifying user name:	WinNT
#	Modification time:	15. 06. 2019 18:57

#	Program:	/corina/corina34_cracker 3.40 0067  02.08.2006

@<TRIPOS>MOLECULE
ASD01028438
  67   71    0    0    0
SMALL
NO_CHARGES


@<TRIPOS>ATOM
   1 C1             0.1390     1.4078    -0.0289 C.ar    
   2 C2             0.1870    -0.0073    -0.0433 C.ar    
   3 C3             1.3522     2.1324    -0.0250 C.ar    
   4 C4             2.5358     1.4161    -0.0356 C.ar    
   5 C5             2.5008     0.0276    -0.0496 C.ar    
   6 N6             1.3684    -0.6359    -0.0526 N.ar    
   7 O7             1.3561     3.4881    -0.0117 O.3     
   8 C8             2.6312     4.1332    -0.0088 C.3     
   9 C9             2.4381     5.6277     0.0064 C.2     
  10 N10            2.3379     6.4152     1.1120 N.pl3   
  11 C11            2.1717     7.6966     0.6471 C.2     
  12 N12            2.1786     7.6284    -0.6743 N.2     
  13 N13            2.3419     6.4058    -1.0406 N.2     
  14 C14            2.3718     6.1623     2.4507 C.2     
  15 C15            2.2411     7.1785     3.3466 C.2     
  16 C16            2.0682     8.5074     2.8921 C.2     
  17 C17            2.0356     8.7625     1.5589 C.2     
  18 C18            2.2793     6.8923     4.8021 C.ar    
  19 C19           -1.0159    -0.7322    -0.0471 C.ar    
  20 C20           -2.2159    -0.0587    -0.0368 C.ar    
  21 C21           -2.2516     1.3391    -0.0231 C.ar    
  22 C22           -1.1007     2.0646    -0.0129 C.ar    
  23 O23           -3.3792    -0.7598    -0.0405 O.3     
  24 C24           -4.5921    -0.0043    -0.0294 C.3     
  25 C25            3.3176     7.3941     5.5850 C.ar    
  26 C26            3.3509     7.1273     6.9374 C.ar    
  27 C27            2.3503     6.3589     7.5199 C.ar    
  28 C28            1.3142     5.8577     6.7414 C.ar    
  29 C29            1.2740     6.1262     5.3895 C.ar    
  30 N30            2.3864     6.0892     8.8922 N.am    
  31 C31            1.3520     6.6362     9.7737 C.3     
  32 C32            3.3728     5.3261     9.4033 C.2     
  33 O33            4.1744     4.7928     8.6620 O.2     
  34 O34            3.4699     5.1547    10.7353 O.3     
  35 C35            4.5570     4.3201    11.2150 C.3     
  36 C36            5.8938     4.9236    10.7796 C.3     
  37 C37            4.5053     4.2433    12.7422 C.3     
  38 C38            4.4172     2.9138    10.6286 C.3     
  39 H39            3.4833     1.9345    -0.0334 H       
  40 H40            3.4309    -0.5212    -0.0578 H       
  41 H41            3.1898     3.8300     0.8768 H       
  42 H42            3.1850     3.8474    -0.9031 H       
  43 H43            2.5027     5.1497     2.8027 H       
  44 H44            1.9639     9.3146     3.6020 H       
  45 H45            1.9042     9.7728     1.2005 H       
  46 H46           -0.9992    -1.8120    -0.0584 H       
  47 H47           -3.2038     1.8487    -0.0160 H       
  48 H48           -1.1413     3.1438    -0.0024 H       
  49 H49           -4.6314     0.6329    -0.9129 H       
  50 H50           -5.4439    -0.6844    -0.0337 H       
  51 H51           -4.6262     0.6150     0.8670 H       
  52 H52            4.0957     7.9911     5.1327 H       
  53 H53            4.1554     7.5156     7.5444 H       
  54 H54            0.5376     5.2607     7.1962 H       
  55 H55            0.4685     5.7364     4.7848 H       
  56 H56            0.5232     5.9315     9.8422 H       
  57 H57            1.7709     6.8020    10.7662 H       
  58 H58            0.9922     7.5820     9.3685 H       
  59 H59            5.9933     5.9255    11.1973 H       
  60 H60            6.7098     4.2971    11.1397 H       
  61 H61            5.9305     4.9783     9.6916 H       
  62 H62            3.5530     3.8134    13.0524 H       
  63 H63            5.3213     3.6168    13.1023 H       
  64 H64            4.6049     5.2452    13.1599 H       
  65 H65            4.4540     2.9685     9.5406 H       
  66 H66            5.2332     2.2873    10.9887 H       
  67 H67            3.4648     2.4838    10.9388 H       
@<TRIPOS>BOND
   1    1    2 ar
   2    1    3 ar
   3    1   22 ar
   4    2   19 ar
   5    2    6 ar
   6    3    4 ar
   7    3    7 1
   8    4    5 ar
   9    4   39 1
  10    5    6 ar
  11    5   40 1
  12    7    8 1
  13    8    9 1
  14    8   41 1
  15    8   42 1
  16    9   10 1
  17    9   13 2
  18   10   11 1
  19   10   14 1
  20   11   12 2
  21   11   17 1
  22   12   13 1
  23   14   15 2
  24   14   43 1
  25   15   16 1
  26   15   18 1
  27   16   17 2
  28   16   44 1
  29   17   45 1
  30   18   25 ar
  31   18   29 ar
  32   19   20 ar
  33   19   46 1
  34   20   21 ar
  35   20   23 1
  36   21   22 ar
  37   21   47 1
  38   22   48 1
  39   23   24 1
  40   24   49 1
  41   24   50 1
  42   24   51 1
  43   25   26 ar
  44   25   52 1
  45   26   27 ar
  46   26   53 1
  47   27   28 ar
  48   27   30 1
  49   28   29 ar
  50   28   54 1
  51   29   55 1
  52   30   31 1
  53   30   32 am
  54   31   56 1
  55   31   57 1
  56   31   58 1
  57   32   33 2
  58   32   34 1
  59   34   35 1
  60   35   36 1
  61   35   37 1
  62   35   38 1
  63   36   59 1
  64   36   60 1
  65   36   61 1
  66   37   62 1
  67   37   63 1
  68   37   64 1
  69   38   65 1
  70   38   66 1
  71   38   67 1

#	End of record

