#	Name: ASD08150050
#	Creating user name:	WinNT
#	Creation time:	15. 06. 2019 21:15

#	Modifying user name:	WinNT
#	Modification time:	15. 06. 2019 21:15

#	Program:	/corina/corina34_cracker 3.40 0067  02.08.2006

@<TRIPOS>MOLECULE
ASD08150050
  34   36    0    0    0
SMALL
NO_CHARGES


@<TRIPOS>ATOM
   1 O1            -0.8450     0.7673     0.2326 O.3     
   2 C2            -0.4301    -0.5036     0.2012 C.2     
   3 N3             0.8913    -0.6387     0.0274 N.am    
   4 C4             1.4990     0.6958    -0.0794 C.3     
   5 C5             0.2952     1.6577     0.0643 C.3     
   6 C6             0.5215     2.4472     1.3691 C.3     
   7 C7             2.0519     2.3821     1.5954 C.3     
   8 C8             2.4027     0.9426     1.1451 C.3     
   9 O9            -1.1832    -1.4498     0.3199 O.2     
  10 S10            1.7086    -2.0768    -0.0531 S.o2    
  11 O11            3.0782    -1.7731     0.1730 O.2     
  12 O12            0.9758    -2.9998     0.7408 O.2     
  13 C13            1.5938    -2.6495    -1.7154 C.ar    
  14 C14            2.1781    -3.8498    -2.0750 C.ar    
  15 C15            2.0881    -4.2991    -3.3789 C.ar    
  16 C16            1.4133    -3.5484    -4.3237 C.ar    
  17 C17            0.8284    -2.3489    -3.9641 C.ar    
  18 C18            0.9147    -1.9016    -2.6587 C.ar    
  19 N19            2.9006    -4.6535    -1.0635 N.pl3   
  20 O20            3.3836    -5.7284    -1.3714 O.2     
  21 O21            3.0120    -4.2400     0.0768 O.2     
  22 O22            0.0967     3.8027     1.2130 O.3     
  23 H23            2.0231     0.8322    -1.0253 H       
  24 H24            0.1823     2.3052    -0.8052 H       
  25 H25           -0.0067     1.9743     2.1971 H       
  26 H26            2.5657     3.1168     0.9755 H       
  27 H27            2.2933     2.5271     2.6484 H       
  28 H28            2.1746     0.2293     1.9371 H       
  29 H29            3.4534     0.8769     0.8627 H       
  30 H30            2.5452    -5.2364    -3.6599 H       
  31 H31            1.3436    -3.8991    -5.3428 H       
  32 H32            0.3016    -1.7623    -4.7022 H       
  33 H33            0.4545    -0.9661    -2.3769 H       
  34 H34            0.2162     4.3459     2.0040 H       
@<TRIPOS>BOND
   1    1    2 1
   2    1    5 1
   3    2    3 am
   4    2    9 2
   5    3    4 1
   6    3   10 am
   7    4    5 1
   8    4    8 1
   9    4   23 1
  10    5    6 1
  11    5   24 1
  12    6    7 1
  13    6   22 1
  14    6   25 1
  15    7    8 1
  16    7   26 1
  17    7   27 1
  18    8   28 1
  19    8   29 1
  20   10   11 2
  21   10   12 2
  22   10   13 1
  23   13   14 ar
  24   13   18 ar
  25   14   15 ar
  26   14   19 1
  27   15   16 ar
  28   15   30 1
  29   16   17 ar
  30   16   31 1
  31   17   18 ar
  32   17   32 1
  33   18   33 1
  34   19   20 2
  35   19   21 2
  36   22   34 1

#	End of record

