#	Name: ASD01900919
#	Creating user name:	WinNT
#	Creation time:	15. 06. 2019 19:52

#	Modifying user name:	WinNT
#	Modification time:	15. 06. 2019 19:52

#	Program:	/corina/corina34_cracker 3.40 0067  02.08.2006

@<TRIPOS>MOLECULE
ASD01900919
  40   42    0    0    0
SMALL
NO_CHARGES


@<TRIPOS>ATOM
   1 C1            -0.0168     1.3892     0.0097 C.ar    
   2 C2             0.0021    -0.0041     0.0020 C.ar    
   3 C3             1.2224    -0.6605    -0.0132 C.ar    
   4 C4             2.3820     0.0992    -0.0202 C.ar    
   5 C5             2.2885     1.4816    -0.0119 C.ar    
   6 N6             1.1170     2.0793     0.0026 N.ar    
   7 C7            -1.3129     2.1060     0.0197 C.2     
   8 O8            -2.3540     1.4792     0.0212 O.2     
   9 N9            -1.3376     3.4535     0.0271 N.am    
  10 S10           -2.7314     5.8260     0.0466 S.3     
  11 C11           -2.5528     4.1257     0.0365 C.2     
  12 N12           -3.7170     3.5552     0.0382 N.2     
  13 C13           -4.7714     4.3490     0.0469 C.2     
  14 C14           -4.4846     5.6524     0.0529 C.2     
  15 S15           -5.6549     6.9695     0.0649 S.o2    
  16 O16           -4.9897     8.1024    -0.4765 O.2     
  17 O17           -6.8581     6.4421    -0.4769 O.2     
  18 C18           -5.9939     7.3506     1.7515 C.ar    
  19 C19           -5.2319     8.2954     2.4134 C.ar    
  20 C20           -6.5260     7.9488     4.3977 C.ar    
  21 C21           -7.0253     6.7091     2.4111 C.ar    
  22 C22           -5.4977     8.5943     3.7363 C.ar    
  23 C23           -7.2912     7.0081     3.7345 C.ar    
  24 C24           -4.6665     9.6234     4.4581 C.3     
  25 C25           -6.1847     3.8260     0.0493 C.3     
  26 H26           -0.9212    -0.5644     0.0082 H       
  27 H27            1.2690    -1.7395    -0.0191 H       
  28 H28            3.3489    -0.3818    -0.0317 H       
  29 H29            3.1899     2.0764    -0.0174 H       
  30 H30           -0.5066     3.9539     0.0259 H       
  31 H31           -4.4286     8.7996     1.8967 H       
  32 H32           -6.7336     8.1821     5.4316 H       
  33 H33           -7.6236     5.9745     1.8927 H       
  34 H34           -8.0945     6.5038     4.2512 H       
  35 H35           -5.1188    10.6074     4.3346 H       
  36 H36           -4.6208     9.3750     5.5184 H       
  37 H37           -3.6585     9.6323     4.0432 H       
  38 H38           -6.5216     3.6943     1.0776 H       
  39 H39           -6.8362     4.5373    -0.4582 H       
  40 H40           -6.2185     2.8680    -0.4695 H       
@<TRIPOS>BOND
   1    1    2 ar
   2    1    6 ar
   3    1    7 1
   4    2    3 ar
   5    2   26 1
   6    3    4 ar
   7    3   27 1
   8    4    5 ar
   9    4   28 1
  10    5    6 ar
  11    5   29 1
  12    7    8 2
  13    7    9 am
  14    9   11 1
  15    9   30 1
  16   10   11 1
  17   10   14 1
  18   11   12 2
  19   12   13 1
  20   13   14 2
  21   13   25 1
  22   14   15 1
  23   15   16 2
  24   15   17 2
  25   15   18 1
  26   18   19 ar
  27   18   21 ar
  28   19   22 ar
  29   19   31 1
  30   20   22 ar
  31   20   23 ar
  32   20   32 1
  33   21   23 ar
  34   21   33 1
  35   22   24 1
  36   23   34 1
  37   24   35 1
  38   24   36 1
  39   24   37 1
  40   25   38 1
  41   25   39 1
  42   25   40 1

#	End of record

