#	Name: ASD02198340
#	Creating user name:	WinNT
#	Creation time:	15. 06. 2019 20:19

#	Modifying user name:	WinNT
#	Modification time:	15. 06. 2019 20:19

#	Program:	/corina/corina34_cracker 3.40 0067  02.08.2006

@<TRIPOS>MOLECULE
ASD02198340
  45   48    0    0    0
SMALL
NO_CHARGES


@<TRIPOS>ATOM
   1 C1             0.7466     2.3356     2.5208 C.2     
   2 C2             0.5383     1.0634     3.0224 C.2     
   3 S3             2.1782     2.2789     1.4956 S.3     
   4 C4             2.3644     0.6116     1.8191 C.2     
   5 N5             1.4272     0.1871     2.6174 N.2     
   6 N6            -0.5087     0.7449     3.8719 N.pl3   
   7 C7            -0.0458     3.4695     2.7783 C.2     
   8 C8             0.3968     4.8030     2.3126 C.ar    
   9 O9            -1.0972     3.3536     3.3850 O.2     
  10 N10            3.3690    -0.1768     1.3046 N.pl3   
  11 C11           -0.5169     5.8541     2.2269 C.ar    
  12 C12            1.7308     5.0157     1.9629 C.ar    
  13 C13            2.1372     6.2611     1.5301 C.ar    
  14 C14            1.2252     7.2979     1.4428 C.ar    
  15 C15           -0.0979     7.0947     1.7926 C.ar    
  16 C16            3.3598    -1.5582     1.5306 C.ar    
  17 C17            2.1622    -2.2118     1.7905 C.ar    
  18 C18            2.1539    -3.5745     2.0128 C.ar    
  19 C19            3.3415    -4.2909     1.9766 C.ar    
  20 C20            4.5384    -3.6386     1.7174 C.ar    
  21 C21            4.5475    -2.2769     1.4893 C.ar    
  22 O22            3.3325    -5.6327     2.1956 O.3     
  23 C23            3.3674    -6.0694     3.4819 C.ar    
  24 C24            3.4805    -7.4256     3.7526 C.ar    
  25 C25            3.5162    -7.8669     5.0611 C.ar    
  26 C26            3.4394    -6.9584     6.1007 C.ar    
  27 C27            3.3263    -5.6064     5.8337 C.ar    
  28 C28            3.2958    -5.1594     4.5270 C.ar    
  29 H29           -1.1396     1.4302     4.1423 H       
  30 H30           -0.6109    -0.1636     4.1962 H       
  31 H31            4.0831     0.2250     0.7855 H       
  32 H32           -1.5499     5.6967     2.4997 H       
  33 H33            2.4437     4.2073     2.0313 H       
  34 H34            3.1694     6.4271     1.2592 H       
  35 H35            1.5484     8.2711     1.1037 H       
  36 H36           -0.8050     7.9080     1.7219 H       
  37 H37            1.2377    -1.6542     1.8191 H       
  38 H38            1.2227    -4.0828     2.2153 H       
  39 H39            5.4625    -4.1969     1.6898 H       
  40 H40            5.4792    -1.7693     1.2873 H       
  41 H41            3.5402    -8.1357     2.9410 H       
  42 H42            3.6039    -8.9224     5.2724 H       
  43 H43            3.4676    -7.3054     7.1230 H       
  44 H44            3.2657    -4.8990     6.6474 H       
  45 H45            3.2078    -4.1033     4.3189 H       
@<TRIPOS>BOND
   1    1    2 2
   2    1    3 1
   3    1    7 1
   4    2    6 1
   5    2    5 1
   6    3    4 1
   7    4    5 2
   8    4   10 1
   9    6   29 1
  10    6   30 1
  11    7    8 1
  12    7    9 2
  13    8   11 ar
  14    8   12 ar
  15   10   16 1
  16   10   31 1
  17   11   15 ar
  18   11   32 1
  19   12   13 ar
  20   12   33 1
  21   13   14 ar
  22   13   34 1
  23   14   15 ar
  24   14   35 1
  25   15   36 1
  26   16   17 ar
  27   16   21 ar
  28   17   18 ar
  29   17   37 1
  30   18   19 ar
  31   18   38 1
  32   19   20 ar
  33   19   22 1
  34   20   21 ar
  35   20   39 1
  36   21   40 1
  37   22   23 1
  38   23   24 ar
  39   23   28 ar
  40   24   25 ar
  41   24   41 1
  42   25   26 ar
  43   25   42 1
  44   26   27 ar
  45   26   43 1
  46   27   28 ar
  47   27   44 1
  48   28   45 1

#	End of record

