#	Name: ASD01881574
#	Creating user name:	WinNT
#	Creation time:	15. 06. 2019 19:42

#	Modifying user name:	WinNT
#	Modification time:	15. 06. 2019 19:42

#	Program:	/corina/corina34_cracker 3.40 0067  02.08.2006

@<TRIPOS>MOLECULE
ASD01881574
  46   49    0    0    0
SMALL
NO_CHARGES


@<TRIPOS>ATOM
   1 C1            -0.0169     1.3920     0.0097 C.ar    
   2 C2             0.0021    -0.0041     0.0020 C.ar    
   3 C3             1.2239    -0.6849    -0.0134 C.ar    
   4 C4             2.3999     0.0215    -0.0208 C.ar    
   5 C5             2.3877     1.4206    -0.0132 C.ar    
   6 C6             1.1651     2.1006     0.0022 C.ar    
   7 C7             3.8507    -0.3916    -0.0370 C.3     
   8 N8             4.6309     0.8511    -0.0378 N.am    
   9 C9             3.7836     1.8942    -0.0240 C.2     
  10 C10            6.0931     0.9401    -0.0506 C.3     
  11 C11            6.5470     1.6973    -1.3002 C.3     
  12 C12            6.5697     1.6847     1.1982 C.3     
  13 O13            4.1205     3.0624    -0.0206 O.2     
  14 Cl14           1.1370     3.8363     0.0112 Cl      
  15 C15           -1.2669    -0.7613     0.0106 C.2     
  16 C16           -2.5315    -0.2414     0.0260 C.2     
  17 C17           -3.3690    -1.3875     0.0282 C.2     
  18 N18           -2.5707    -2.4268     0.0147 N.2     
  19 O19           -1.4074    -2.0988    -0.0010 O.3     
  20 C20           -4.8522    -1.4052     0.0429 C.2     
  21 O21           -5.4722    -0.3604     0.0547 O.2     
  22 N22           -5.5121    -2.5804     0.0432 N.am    
  23 C23           -6.9733    -2.7426     0.0569 C.3     
  24 C24           -7.2660    -4.2576     0.0780 C.3     
  25 C25           -5.9526    -4.8574     0.6462 C.3     
  26 C26           -4.8884    -3.9160     0.0234 C.3     
  27 H27           -0.9601     1.9179     0.0170 H       
  28 H28            1.2414    -1.7647    -0.0190 H       
  29 H29            4.0829    -0.9791     0.8513 H       
  30 H30            4.0657    -0.9695    -0.9358 H       
  31 H31            6.5181    -0.0636    -0.0595 H       
  32 H32            7.6350     1.7635    -1.3097 H       
  33 H33            6.2075     1.1668    -2.1898 H       
  34 H34            6.1220     2.7009    -1.2913 H       
  35 H35            6.2463     1.1452     2.0884 H       
  36 H36            7.6576     1.7509     1.1886 H       
  37 H37            6.1446     2.6883     1.2071 H       
  38 H38           -2.8245     0.7981     0.0350 H       
  39 H39           -7.3902    -2.2720     0.9474 H       
  40 H40           -7.4045    -2.2942    -0.8382 H       
  41 H41           -8.1069    -4.4789     0.7353 H       
  42 H42           -7.4548    -4.6280    -0.9296 H       
  43 H43           -5.9374    -4.8037     1.7347 H       
  44 H44           -5.8119    -5.8830     0.3052 H       
  45 H45           -4.6642    -4.2207    -0.9989 H       
  46 H46           -3.9814    -3.9164     0.6278 H       
@<TRIPOS>BOND
   1    1    2 ar
   2    1    6 ar
   3    1   27 1
   4    2    3 ar
   5    2   15 1
   6    3    4 ar
   7    3   28 1
   8    4    5 ar
   9    4    7 1
  10    5    6 ar
  11    5    9 1
  12    6   14 1
  13    7    8 1
  14    7   29 1
  15    7   30 1
  16    8    9 am
  17    8   10 1
  18    9   13 2
  19   10   11 1
  20   10   12 1
  21   10   31 1
  22   11   32 1
  23   11   33 1
  24   11   34 1
  25   12   35 1
  26   12   36 1
  27   12   37 1
  28   15   16 2
  29   15   19 1
  30   16   17 1
  31   16   38 1
  32   17   18 2
  33   17   20 1
  34   18   19 1
  35   20   21 2
  36   20   22 am
  37   22   23 1
  38   22   26 1
  39   23   24 1
  40   23   39 1
  41   23   40 1
  42   24   25 1
  43   24   41 1
  44   24   42 1
  45   25   26 1
  46   25   43 1
  47   25   44 1
  48   26   45 1
  49   26   46 1

#	End of record

