#	Name: ASD04590512
#	Creating user name:	WinNT
#	Creation time:	15. 06. 2019 20:50

#	Modifying user name:	WinNT
#	Modification time:	15. 06. 2019 20:50

#	Program:	/corina/corina34_cracker 3.40 0067  02.08.2006

@<TRIPOS>MOLECULE
ASD04590512
  56   60    0    0    0
SMALL
NO_CHARGES


@<TRIPOS>ATOM
   1 C1            -0.0167     1.3834     0.0096 C.ar    
   2 C2             0.0021    -0.0041     0.0020 C.ar    
   3 C3             2.3948     0.0191    -0.0208 C.ar    
   4 C4             2.3756     1.4249    -0.0130 C.ar    
   5 C5             1.1624     2.0987     0.0022 C.ar    
   6 N6             3.6952    -0.3636    -0.0360 N.2     
   7 C7             4.4664     0.6967    -0.0381 C.2     
   8 N8             3.6970     1.8290    -0.0242 N.pl3   
   9 C9             5.9437     0.6731    -0.0528 C.2     
  10 C10            6.7565    -0.4840    -0.0673 C.2     
  11 C11            8.0504    -0.0800    -0.0777 C.2     
  12 N12            8.0626     1.2789    -0.0702 N.pl3   
  13 N13            6.7358     1.7273    -0.0604 N.2     
  14 N14            6.3043    -1.8134    -0.0703 N.am    
  15 C15            7.1922    -2.8272    -0.0847 C.2     
  16 O16            8.3851    -2.5907    -0.0951 O.2     
  17 C17            1.1863    -0.6848    -0.0130 C.ar    
  18 C18            6.7171    -4.2238    -0.0879 C.ar    
  19 C19            7.6369    -5.2809    -0.1028 C.ar    
  20 C20           -1.2971    -0.7677     0.0109 C.3     
  21 N21           -1.7331    -1.0083    -1.3711 N.3     
  22 C22           -2.8628    -1.9482    -1.4111 C.3     
  23 C23           -0.6195    -1.4969    -2.1973 C.3     
  24 C24           -1.1017    -1.6771    -3.6392 C.3     
  25 O25           -2.2194    -2.5691    -3.6548 O.3     
  26 C26           -3.3225    -2.1239    -2.8608 C.3     
  27 C27            7.1798    -6.5903    -0.1052 C.ar    
  28 C28            5.8239    -6.8503    -0.0933 C.ar    
  29 C29            4.9102    -5.8077    -0.0785 C.ar    
  30 C30            5.3477    -4.5000    -0.0701 C.ar    
  31 Cl31           3.2083    -6.1500    -0.0643 Cl      
  32 O32            8.9692    -5.0245    -0.1154 O.3     
  33 C33            9.8468    -6.1522    -0.1303 C.3     
  34 H34           -0.9614     1.9069     0.0170 H       
  35 H35            1.1417     3.1785     0.0079 H       
  36 H36            4.0192     2.7439    -0.0228 H       
  37 H37            8.9175    -0.7237    -0.0895 H       
  38 H38            8.8531     1.8409    -0.0748 H       
  39 H39            5.3529    -2.0021    -0.0620 H       
  40 H40            1.1893    -1.7648    -0.0185 H       
  41 H41           -1.1543    -1.7218     0.5182 H       
  42 H42           -2.0561    -0.1872     0.5354 H       
  43 H43           -2.5490    -2.9117    -1.0095 H       
  44 H44           -3.6851    -1.5545    -0.8137 H       
  45 H45            0.1957    -0.7737    -2.1739 H       
  46 H46           -0.2699    -2.4532    -1.8083 H       
  47 H47           -1.4011    -0.7113    -4.0462 H       
  48 H48           -0.2955    -2.0932    -4.2433 H       
  49 H49           -4.1224    -2.8632    -2.9020 H       
  50 H50           -3.6865    -1.1711    -3.2452 H       
  51 H51            7.8855    -7.4078    -0.1167 H       
  52 H52            5.4731    -7.8717    -0.0960 H       
  53 H53            4.6328    -3.6906    -0.0582 H       
  54 H54            9.6737    -6.7591     0.7585 H       
  55 H55            9.6552    -6.7500    -1.0214 H       
  56 H56           10.8809    -5.8078    -0.1393 H       
@<TRIPOS>BOND
   1    1    2 ar
   2    1    5 ar
   3    1   34 1
   4    2   17 ar
   5    2   20 1
   6    3    4 ar
   7    3    6 1
   8    3   17 ar
   9    4    5 ar
  10    4    8 1
  11    5   35 1
  12    6    7 2
  13    7    8 1
  14    7    9 1
  15    8   36 1
  16    9   10 1
  17    9   13 2
  18   10   11 2
  19   10   14 1
  20   11   12 1
  21   11   37 1
  22   12   13 1
  23   12   38 1
  24   14   15 am
  25   14   39 1
  26   15   16 2
  27   15   18 1
  28   17   40 1
  29   18   19 ar
  30   18   30 ar
  31   19   27 ar
  32   19   32 1
  33   20   21 1
  34   20   41 1
  35   20   42 1
  36   21   22 1
  37   21   23 1
  38   22   26 1
  39   22   43 1
  40   22   44 1
  41   23   24 1
  42   23   45 1
  43   23   46 1
  44   24   25 1
  45   24   47 1
  46   24   48 1
  47   25   26 1
  48   26   49 1
  49   26   50 1
  50   27   28 ar
  51   27   51 1
  52   28   29 ar
  53   28   52 1
  54   29   30 ar
  55   29   31 1
  56   30   53 1
  57   32   33 1
  58   33   54 1
  59   33   55 1
  60   33   56 1

#	End of record

