#	Name: ASD04591117
#	Creating user name:	WinNT
#	Creation time:	15. 06. 2019 20:52

#	Modifying user name:	WinNT
#	Modification time:	15. 06. 2019 20:52

#	Program:	/corina/corina34_cracker 3.40 0067  02.08.2006

@<TRIPOS>MOLECULE
ASD04591117
  73   78    0    0    0
SMALL
NO_CHARGES


@<TRIPOS>ATOM
   1 N1            -2.3802    -2.7034     0.0205 N.ar    
   2 C2            -1.2122    -2.0722     0.0040 C.ar    
   3 N3            -0.0582    -2.7184    -0.0182 N.ar    
   4 C4            -0.0273    -4.0481    -0.0245 C.ar    
   5 C5            -1.2518    -4.7492    -0.0069 C.ar    
   6 C6            -2.4413    -4.0238     0.0158 C.ar    
   7 N7             0.9902    -4.9643    -0.0456 N.pl3   
   8 C8             0.4788    -6.2518    -0.0425 C.2     
   9 C9            -0.9140    -6.1756    -0.0188 C.2     
  10 C10            1.0849    -7.5246    -0.0578 C.2     
  11 N11            0.3207    -8.6330    -0.0494 N.am    
  12 C12           -1.0404    -8.5588    -0.0262 C.2     
  13 C13           -1.6719    -7.3682    -0.0116 C.2     
  14 N14           -1.2017    -0.6878     0.0098 N.pl3   
  15 C15           -2.4008     0.0191    -0.0802 C.ar    
  16 C16            2.4164    -4.6305    -0.0689 C.3     
  17 C17            2.7433    -3.8012    -1.3231 C.3     
  18 C18            3.2870    -2.4458    -0.8260 C.3     
  19 C19            3.8190    -2.7488     0.5968 C.3     
  20 C20            2.7730    -3.7501     1.1467 C.3     
  21 N21           -3.5338    -0.6368    -0.2721 N.ar    
  22 C22           -4.6912    -0.0096    -0.3634 C.ar    
  23 C23           -4.7592     1.3716    -0.2608 C.ar    
  24 C24           -3.5858     2.0967    -0.0584 C.ar    
  25 C25           -2.3924     1.4046     0.0384 C.ar    
  26 N26           -5.9908     2.0298    -0.3597 N.3     
  27 C27           -7.0841     1.0719    -0.5714 C.3     
  28 C28           -8.4260     1.8078    -0.4931 C.3     
  29 N29           -8.3959     2.9358    -1.4365 N.am    
  30 C30           -7.2564     3.8637    -1.3757 C.3     
  31 C31           -5.9606     3.0468    -1.4193 C.3     
  32 O32            2.3015    -7.6216    -0.0791 O.2     
  33 C33           -9.3861     3.1142    -2.3333 C.2     
  34 O34          -10.3199     2.3375    -2.3697 O.2     
  35 O35           -9.3407     4.1529    -3.1887 O.3     
  36 C36          -10.4412     4.2829    -4.1269 C.3     
  37 C37          -11.7528     4.4427    -3.3555 C.3     
  38 C38          -10.2160     5.5117    -5.0101 C.3     
  39 C39          -10.5145     3.0311    -5.0036 C.3     
  40 H40           -3.3949    -4.5307     0.0296 H       
  41 H41            0.7480    -9.5037    -0.0604 H       
  42 H42           -1.6221    -9.4687    -0.0204 H       
  43 H43           -2.7509    -7.3259     0.0064 H       
  44 H44           -0.3605    -0.2094     0.0765 H       
  45 H45            3.0133    -5.5424    -0.0582 H       
  46 H46            3.4994    -4.3103    -1.9208 H       
  47 H47            1.8407    -3.6471    -1.9145 H       
  48 H48            4.0956    -2.0998    -1.4699 H       
  49 H49            2.4877    -1.7060    -0.7849 H       
  50 H50            4.8064    -3.2082     0.5503 H       
  51 H51            3.8415    -1.8425     1.2019 H       
  52 H52            1.8906    -3.2209     1.5064 H       
  53 H53            3.2065    -4.3560     1.9425 H       
  54 H54           -5.5958    -0.5785    -0.5203 H       
  55 H55           -3.6087     3.1732     0.0250 H       
  56 H56           -1.4644     1.9343     0.1955 H       
  57 H57           -6.9788     0.6110    -1.5536 H       
  58 H58           -7.0466     0.3011     0.1984 H       
  59 H59           -9.2334     1.1268    -0.7622 H       
  60 H60           -8.5802     2.1813     0.5193 H       
  61 H61           -7.2905     4.5419    -2.2284 H       
  62 H62           -7.2982     4.4347    -0.4482 H       
  63 H63           -5.1082     3.7083    -1.2644 H       
  64 H64           -5.8710     2.5584    -2.3896 H       
  65 H65          -11.7006     5.3344    -2.7308 H       
  66 H66          -12.5790     4.5402    -4.0598 H       
  67 H67          -11.9132     3.5672    -2.7262 H       
  68 H68           -9.2816     5.3979    -5.5596 H       
  69 H69          -11.0422     5.6093    -5.7144 H       
  70 H70          -10.1638     6.4035    -4.3854 H       
  71 H71          -10.6749     2.1557    -4.3744 H       
  72 H72          -11.3406     3.1287    -5.7079 H       
  73 H73           -9.5800     2.9173    -5.5532 H       
@<TRIPOS>BOND
   1    1    2 ar
   2    1    6 ar
   3    2    3 ar
   4    2   14 1
   5    3    4 ar
   6    4    5 ar
   7    4    7 1
   8    5    6 ar
   9    5    9 1
  10    6   40 1
  11    7    8 1
  12    7   16 1
  13    8    9 2
  14    8   10 1
  15    9   13 1
  16   10   11 am
  17   10   32 2
  18   11   12 1
  19   11   41 1
  20   12   13 2
  21   12   42 1
  22   13   43 1
  23   14   15 1
  24   14   44 1
  25   15   21 ar
  26   15   25 ar
  27   16   17 1
  28   16   20 1
  29   16   45 1
  30   17   18 1
  31   17   46 1
  32   17   47 1
  33   18   19 1
  34   18   48 1
  35   18   49 1
  36   19   20 1
  37   19   50 1
  38   19   51 1
  39   20   52 1
  40   20   53 1
  41   21   22 ar
  42   22   23 ar
  43   22   54 1
  44   23   24 ar
  45   23   26 1
  46   24   25 ar
  47   24   55 1
  48   25   56 1
  49   26   27 1
  50   26   31 1
  51   27   28 1
  52   27   57 1
  53   27   58 1
  54   28   29 1
  55   28   59 1
  56   28   60 1
  57   29   30 1
  58   29   33 am
  59   30   31 1
  60   30   61 1
  61   30   62 1
  62   31   63 1
  63   31   64 1
  64   33   34 2
  65   33   35 1
  66   35   36 1
  67   36   37 1
  68   36   38 1
  69   36   39 1
  70   37   65 1
  71   37   66 1
  72   37   67 1
  73   38   68 1
  74   38   69 1
  75   38   70 1
  76   39   71 1
  77   39   72 1
  78   39   73 1

#	End of record

