#	Name: ASD01816699
#	Creating user name:	WinNT
#	Creation time:	15. 06. 2019 19:35

#	Modifying user name:	WinNT
#	Modification time:	15. 06. 2019 19:35

#	Program:	/corina/corina34_cracker 3.40 0067  02.08.2006

@<TRIPOS>MOLECULE
ASD01816699
  67   71    0    0    0
SMALL
NO_CHARGES


@<TRIPOS>ATOM
   1 C1            -0.0167     1.3961     0.0122 C.2     
   2 C2             0.0025    -0.0052    -0.0044 C.2     
   3 C3             1.1989    -0.6602    -0.0251 C.2     
   4 C4             2.3922     0.0815    -0.0294 C.2     
   5 N5             2.3439     1.4491    -0.0125 N.am    
   6 C6             1.1420     2.0927     0.0077 C.2     
   7 C7             3.6230    -0.5887    -0.0506 C.2     
   8 C8             4.7879     0.1231    -0.0550 C.2     
   9 C9             4.7340     1.5284    -0.0381 C.2     
  10 C10            3.4813     2.1731    -0.0166 C.2     
  11 C11            3.6605    -2.0951    -0.0680 C.3     
  12 O12            3.4256     3.3913    -0.0019 O.2     
  13 C13            5.9710     2.3159    -0.0418 C.2     
  14 N14            7.1647     1.6963     0.0459 N.am    
  15 O15            5.9198     3.5292    -0.1240 O.2     
  16 N16            3.7781    -2.5660    -1.4545 N.3     
  17 C17            4.0549    -4.0074    -1.4990 C.3     
  18 C18            4.3146    -4.4339    -2.9456 C.3     
  19 C19            3.0860    -4.1046    -3.7981 C.3     
  20 C20            2.7905    -2.6057    -3.6958 C.3     
  21 C21            2.5750    -2.2322    -2.2275 C.3     
  22 C22            3.3583    -4.4673    -5.2352 C.ar    
  23 N23            4.5963    -4.6988    -5.6256 N.ar    
  24 C24            1.9277    -4.8690    -3.3075 C.1     
  25 N25            1.0337    -5.4589    -2.9289 N.1     
  26 C26            4.8818    -5.0192    -6.8727 C.ar    
  27 C27            3.8832    -5.1237    -7.8220 C.ar    
  28 C28            2.5687    -4.8875    -7.4488 C.ar    
  29 C29            2.3067    -4.5590    -6.1277 C.ar    
  30 C30            8.4025     2.4710    -0.0711 C.3     
  31 C31            9.7331     0.3581     0.0152 C.3     
  32 C32           10.0930     0.5243    -1.4625 C.3     
  33 C33            8.9612     1.2593    -2.1835 C.3     
  34 C34            8.7624     2.6373    -1.5489 C.3     
  35 C35            9.5343     1.7360     0.6498 C.3     
  36 O36            9.1982     1.5807     2.0301 O.3     
  37 H37           -0.9604     1.9212     0.0241 H       
  38 H38           -0.9228    -0.5622    -0.0005 H       
  39 H39            1.2286    -1.7397    -0.0377 H       
  40 H40            1.1153     3.1723     0.0208 H       
  41 H41            5.7398    -0.3870    -0.0709 H       
  42 H42            4.5175    -2.4439     0.5081 H       
  43 H43            2.7433    -2.4864     0.3721 H       
  44 H44            7.2041     0.7373     0.1865 H       
  45 H45            4.9332    -4.2275    -0.8922 H       
  46 H46            3.1970    -4.5543    -1.1076 H       
  47 H47            5.1808    -3.8976    -3.3332 H       
  48 H48            4.5046    -5.5067    -2.9802 H       
  49 H49            3.6327    -2.0406    -4.0952 H       
  50 H50            1.8916    -2.3722    -4.2664 H       
  51 H51            1.7240    -2.7873    -1.8327 H       
  52 H52            2.3784    -1.1629    -2.1498 H       
  53 H53            5.9081    -5.2016    -7.1553 H       
  54 H54            4.1234    -5.3857    -8.8418 H       
  55 H55            1.7676    -4.9615    -8.1693 H       
  56 H56            1.2948    -4.3688    -5.8018 H       
  57 H57            8.2609     3.4527     0.3810 H       
  58 H58            8.8121    -0.2183     0.1023 H       
  59 H59           10.5394    -0.1656     0.5288 H       
  60 H60           11.0140     1.1007    -1.5496 H       
  61 H61           10.2346    -0.4573    -1.9146 H       
  62 H62            9.2176     1.3778    -3.2363 H       
  63 H63            8.0402     0.6829    -2.0964 H       
  64 H64            7.9561     3.1609    -2.0625 H       
  65 H65            9.6834     3.2137    -1.6359 H       
  66 H66           10.4553     2.3124     0.5628 H       
  67 H67            9.8723     1.1218     2.5498 H       
@<TRIPOS>BOND
   1    1    2 1
   2    1    6 2
   3    1   37 1
   4    2    3 2
   5    2   38 1
   6    3    4 1
   7    3   39 1
   8    4    5 1
   9    4    7 2
  10    5    6 1
  11    5   10 am
  12    6   40 1
  13    7    8 1
  14    7   11 1
  15    8    9 2
  16    8   41 1
  17    9   10 1
  18    9   13 1
  19   10   12 2
  20   11   16 1
  21   11   42 1
  22   11   43 1
  23   13   14 am
  24   13   15 2
  25   14   30 1
  26   14   44 1
  27   16   17 1
  28   16   21 1
  29   17   18 1
  30   17   45 1
  31   17   46 1
  32   18   19 1
  33   18   47 1
  34   18   48 1
  35   19   20 1
  36   19   22 1
  37   19   24 1
  38   20   21 1
  39   20   49 1
  40   20   50 1
  41   21   51 1
  42   21   52 1
  43   22   23 ar
  44   22   29 ar
  45   23   26 ar
  46   24   25 3
  47   26   27 ar
  48   26   53 1
  49   27   28 ar
  50   27   54 1
  51   28   29 ar
  52   28   55 1
  53   29   56 1
  54   30   35 1
  55   30   34 1
  56   30   57 1
  57   31   32 1
  58   31   35 1
  59   31   58 1
  60   31   59 1
  61   32   33 1
  62   32   60 1
  63   32   61 1
  64   33   34 1
  65   33   62 1
  66   33   63 1
  67   34   64 1
  68   34   65 1
  69   35   36 1
  70   35   66 1
  71   36   67 1

#	End of record

