#	Name: ASD09740180
#	Creating user name:	WinNT
#	Creation time:	15. 06. 2019 21:22

#	Modifying user name:	WinNT
#	Modification time:	15. 06. 2019 21:22

#	Program:	/corina/corina34_cracker 3.40 0067  02.08.2006

@<TRIPOS>MOLECULE
ASD09740180
  32   34    0    0    0
SMALL
NO_CHARGES


@<TRIPOS>ATOM
   1 O1            -0.0144     1.2086     0.0087 O.3     
   2 N2             0.0021    -0.0041     0.0020 N.2     
   3 C3             1.2407     1.6828    -0.0008 C.2     
   4 N4             2.0451     0.6377    -0.0140 N.2     
   5 C5             1.2351    -0.4415    -0.0121 C.2     
   6 C6             1.6638    -1.8627    -0.0234 C.ar    
   7 C7             1.6451     3.1063     0.0026 C.ar    
   8 C8             3.0195    -2.1833    -0.0376 C.ar    
   9 C9             0.7120    -2.8792    -0.0141 C.ar    
  10 C10            1.1182    -4.2034    -0.0247 C.ar    
  11 C11            2.4710    -4.5144    -0.0447 C.ar    
  12 C12            3.4159    -3.5059    -0.0481 C.ar    
  13 C13            0.6896     4.1314     0.0173 C.ar    
  14 C14            1.1449     5.4388     0.0195 C.ar    
  15 N15            2.4410     5.6857     0.0080 N.ar    
  16 N16            3.3209     4.7524    -0.0055 N.ar    
  17 C17            2.9942     3.4752    -0.0029 C.ar    
  18 C18            2.9104    -5.9559    -0.0557 C.3     
  19 O19            0.1923    -5.1982    -0.0152 O.3     
  20 C20           -1.1816    -4.8056     0.0058 C.3     
  21 H21            3.7602    -1.3974    -0.0407 H       
  22 H22           -0.3401    -2.6357     0.0018 H       
  23 H23            4.4671    -3.7529    -0.0640 H       
  24 H24           -0.3671     3.9087     0.0262 H       
  25 H25            0.4393     6.2564     0.0303 H       
  26 H26            3.7640     2.7178    -0.0146 H       
  27 H27            3.0021    -6.2999    -1.0859 H       
  28 H28            3.8748    -6.0456     0.4444 H       
  29 H29            2.1723    -6.5648     0.4664 H       
  30 H30           -1.3771    -4.2150     0.9008 H       
  31 H31           -1.4024    -4.2085    -0.8790 H       
  32 H32           -1.8132    -5.6939     0.0115 H       
@<TRIPOS>BOND
   1    1    2 1
   2    1    3 1
   3    2    5 2
   4    3    4 2
   5    3    7 1
   6    4    5 1
   7    5    6 1
   8    6    8 ar
   9    6    9 ar
  10    7   13 ar
  11    7   17 ar
  12    8   12 ar
  13    8   21 1
  14    9   10 ar
  15    9   22 1
  16   10   11 ar
  17   10   19 1
  18   11   12 ar
  19   11   18 1
  20   12   23 1
  21   13   14 ar
  22   13   24 1
  23   14   15 ar
  24   14   25 1
  25   15   16 ar
  26   16   17 ar
  27   17   26 1
  28   18   27 1
  29   18   28 1
  30   18   29 1
  31   19   20 1
  32   20   30 1
  33   20   31 1
  34   20   32 1

#	End of record

