#	Name: ASD01028212
#	Creating user name:	WinNT
#	Creation time:	15. 06. 2019 18:56

#	Modifying user name:	WinNT
#	Modification time:	15. 06. 2019 18:56

#	Program:	/corina/corina34_cracker 3.40 0067  02.08.2006

@<TRIPOS>MOLECULE
ASD01028212
  49   52    0    0    0
SMALL
NO_CHARGES


@<TRIPOS>ATOM
   1 C1            -0.0166     1.3719     0.0096 C.ar    
   2 C2             0.0021    -0.0041     0.0020 C.ar    
   3 C3             1.1750     2.1035     0.0021 C.ar    
   4 C4             2.3797     1.4715    -0.0128 C.ar    
   5 C5             2.4326     0.0695    -0.0208 C.ar    
   6 C6             1.2322    -0.6815    -0.0134 C.ar    
   7 C7             3.6676    -0.6170    -0.0367 C.ar    
   8 C8             3.6411    -2.0003    -0.0444 C.ar    
   9 C9             2.4221    -2.6660    -0.0364 C.ar    
  10 N10            1.2804    -2.0188    -0.0211 N.ar    
  11 O11            4.8427     0.0593    -0.0447 O.3     
  12 C12            6.0400    -0.7207    -0.0607 C.3     
  13 C13            7.2364     0.1957    -0.0676 C.2     
  14 N14            7.8802     0.6746     1.0193 N.pl3   
  15 C15            8.9001     1.4619     0.5397 C.2     
  16 N16            8.8258     1.4222    -0.7806 N.2     
  17 N17            7.8431     0.6669    -1.1285 N.2     
  18 N18            7.7022     0.5205     2.3956 N.2     
  19 C19            8.5064     1.1253     3.2441 C.2     
  20 C20            9.5630     1.9411     2.7815 C.2     
  21 C21            9.7604     2.1085     1.4477 C.2     
  22 C22            8.3078     0.9550     4.6520 C.1     
  23 O23           -1.2065     2.0271     0.0188 O.3     
  24 C24           -1.1606     3.4553     0.0263 C.3     
  25 C25            8.1450     0.8153     5.8063 C.1     
  26 C26            7.9408     0.6402     7.2535 C.3     
  27 N27            8.9556     1.4079     7.9876 N.3     
  28 C28            8.7752     2.8511     7.7813 C.3     
  29 C29            8.9356     1.0740     9.4180 C.3     
  30 H30           -0.9239    -0.5598     0.0082 H       
  31 H31            1.1387     3.1829     0.0079 H       
  32 H32            3.2932     2.0476    -0.0188 H       
  33 H33            4.5646    -2.5602    -0.0569 H       
  34 H34            2.4134    -3.7460    -0.0425 H       
  35 H35            6.0728    -1.3543     0.8256 H       
  36 H36            6.0552    -1.3447    -0.9543 H       
  37 H37           10.2148     2.4320     3.4889 H       
  38 H38           10.5665     2.7310     1.0884 H       
  39 H39           -0.6312     3.7971     0.9157 H       
  40 H40           -0.6396     3.8068    -0.8642 H       
  41 H41           -2.1761     3.8514     0.0333 H       
  42 H42            6.9477     0.9972     7.5261 H       
  43 H43            8.0298    -0.4159     7.5078 H       
  44 H44            7.7882     3.1482     8.1357 H       
  45 H45            9.5395     3.3957     8.3357 H       
  46 H46            8.8641     3.0802     6.7193 H       
  47 H47            9.1410     0.0112     9.5459 H       
  48 H48            9.6964     1.6563     9.9377 H       
  49 H49            7.9544     1.3067     9.8317 H       
@<TRIPOS>BOND
   1    1    2 ar
   2    1    3 ar
   3    1   23 1
   4    2    6 ar
   5    2   30 1
   6    3    4 ar
   7    3   31 1
   8    4    5 ar
   9    4   32 1
  10    5    6 ar
  11    5    7 ar
  12    6   10 ar
  13    7    8 ar
  14    7   11 1
  15    8    9 ar
  16    8   33 1
  17    9   10 ar
  18    9   34 1
  19   11   12 1
  20   12   13 1
  21   12   35 1
  22   12   36 1
  23   13   14 1
  24   13   17 2
  25   14   15 1
  26   14   18 1
  27   15   16 2
  28   15   21 1
  29   16   17 1
  30   18   19 2
  31   19   20 1
  32   19   22 1
  33   20   21 2
  34   20   37 1
  35   21   38 1
  36   22   25 3
  37   23   24 1
  38   24   39 1
  39   24   40 1
  40   24   41 1
  41   25   26 1
  42   26   27 1
  43   26   42 1
  44   26   43 1
  45   27   28 1
  46   27   29 1
  47   28   44 1
  48   28   45 1
  49   28   46 1
  50   29   47 1
  51   29   48 1
  52   29   49 1

#	End of record

