#	Name: ASD01915334
#	Creating user name:	WinNT
#	Creation time:	15. 06. 2019 20:05

#	Modifying user name:	WinNT
#	Modification time:	15. 06. 2019 20:05

#	Program:	/corina/corina34_cracker 3.40 0067  02.08.2006

@<TRIPOS>MOLECULE
ASD01915334
  42   45    0    0    0
SMALL
NO_CHARGES


@<TRIPOS>ATOM
   1 C1            -0.0045     1.3259    -0.0199 C.2     
   2 N2             0.0095    -0.0259    -0.0292 N.pl3   
   3 C3            -1.3052    -0.4566    -0.0130 C.2     
   4 C4            -2.0824     0.6210     0.0055 C.2     
   5 O5            -1.2945     1.7198     0.0061 O.3     
   6 N6             1.2443     1.7436    -0.0352 N.2     
   7 C7             2.0726     0.6905    -0.0543 C.2     
   8 N8             1.3544    -0.4160    -0.0513 N.2     
   9 C9            -3.5893     0.6187     0.0268 C.3     
  10 C10           -1.7717    -1.8896    -0.0159 C.3     
  11 C11           -4.0815     1.2185     1.3455 C.3     
  12 O12           -4.0902     1.4110    -1.0821 O.3     
  13 C13           -5.2805     1.0535    -1.6002 C.2     
  14 N14           -5.8024     1.7473    -2.6311 N.am    
  15 O15           -5.8840     0.1054    -1.1384 O.2     
  16 C16           -6.9825     1.3096    -3.2430 C.ar    
  17 C17           -7.8970     2.2335    -3.7314 C.ar    
  18 C18           -9.0605     1.7984    -4.3352 C.ar    
  19 C19           -9.3152     0.4444    -4.4536 C.ar    
  20 C20           -8.4065    -0.4781    -3.9684 C.ar    
  21 C21           -7.2387    -0.0494    -3.3683 C.ar    
  22 C22            3.5491     0.7576    -0.0762 C.2     
  23 S23            4.6287    -0.6308    -0.1024 S.3     
  24 C24            6.0356     0.4242    -0.1169 C.2     
  25 C25            5.6429     1.7012    -0.1021 C.2     
  26 C26            4.2766     1.8923    -0.0850 C.2     
  27 H27           -3.9524    -0.4049    -0.0647 H       
  28 H28           -0.9071    -2.5531    -0.0325 H       
  29 H29           -2.3602    -2.0819     0.8812 H       
  30 H30           -2.3853    -2.0701    -0.8986 H       
  31 H31           -3.7184     2.2421     1.4371 H       
  32 H32           -5.1714     1.2168     1.3609 H       
  33 H33           -3.7055     0.6237     2.1779 H       
  34 H34           -5.3601     2.5499    -2.9490 H       
  35 H35           -7.6989     3.2911    -3.6388 H       
  36 H36           -9.7724     2.5164    -4.7148 H       
  37 H37          -10.2259     0.1067    -4.9259 H       
  38 H38           -8.6082    -1.5349    -4.0624 H       
  39 H39           -6.5292    -0.7704    -2.9898 H       
  40 H40            7.0625     0.0901    -0.1351 H       
  41 H41            6.3433     2.5233    -0.1073 H       
  42 H42            3.8257     2.8736    -0.0723 H       
@<TRIPOS>BOND
   1    1    2 1
   2    1    6 2
   3    1    5 1
   4    2    3 1
   5    2    8 1
   6    3    4 2
   7    3   10 1
   8    4    5 1
   9    4    9 1
  10    6    7 1
  11    7    8 2
  12    7   22 1
  13    9   11 1
  14    9   12 1
  15    9   27 1
  16   10   28 1
  17   10   29 1
  18   10   30 1
  19   11   31 1
  20   11   32 1
  21   11   33 1
  22   12   13 1
  23   13   14 am
  24   13   15 2
  25   14   16 1
  26   14   34 1
  27   16   17 ar
  28   16   21 ar
  29   17   18 ar
  30   17   35 1
  31   18   19 ar
  32   18   36 1
  33   19   20 ar
  34   19   37 1
  35   20   21 ar
  36   20   38 1
  37   21   39 1
  38   22   23 1
  39   22   26 2
  40   23   24 1
  41   24   25 2
  42   24   40 1
  43   25   26 1
  44   25   41 1
  45   26   42 1

#	End of record

