#	Name: ASD01912448
#	Creating user name:	WinNT
#	Creation time:	15. 06. 2019 19:59

#	Modifying user name:	WinNT
#	Modification time:	15. 06. 2019 19:59

#	Program:	/corina/corina34_cracker 3.40 0067  02.08.2006

@<TRIPOS>MOLECULE
ASD01912448
  46   48    0    0    0
SMALL
NO_CHARGES


@<TRIPOS>ATOM
   1 C1             0.2144     1.2378    -1.3144 C.ar    
   2 C2             0.2778    -0.1305    -1.5075 C.ar    
   3 C3             1.5159    -0.7572    -1.5493 C.ar    
   4 C4             2.6531     0.0149    -1.3950 C.ar    
   5 C5             2.5168     1.3925    -1.2034 C.ar    
   6 N6             1.3108     1.9527    -1.1699 N.ar    
   7 C7             3.6837     2.2067    -1.0420 C.1     
   8 C8             4.6404     2.8742    -0.9097 C.1     
   9 C9             5.8072     3.6885    -0.7483 C.2     
  10 N10            5.4896     7.6418    -1.3184 N.am    
  11 C11            6.8212     7.0288    -1.4057 C.3     
  12 C12            6.9031     5.8797    -0.3928 C.3     
  13 C13            5.6827     5.0023    -0.5653 C.2     
  14 C14            4.3174     5.6529    -0.5245 C.3     
  15 C15            4.3003     6.8077    -1.5341 C.3     
  16 C16            5.3602     8.9537    -1.0380 C.2     
  17 C17            4.0254     9.5886    -1.0710 C.ar    
  18 C18            3.5325    10.2434     0.0590 C.ar    
  19 C19            2.2863    10.8337     0.0216 C.ar    
  20 C20            1.5253    10.7777    -1.1328 C.ar    
  21 C21            2.0077    10.1300    -2.2560 C.ar    
  22 C22            3.2552     9.5408    -2.2338 C.ar    
  23 O23            6.3410     9.6150    -0.7580 O.2     
  24 N24            4.3450    10.3038     1.2948 N.pl3   
  25 O25            3.9693    10.9762     2.2383 O.2     
  26 O26            5.3892     9.6811     1.3681 O.2     
  27 C27           -1.1283     1.9210    -1.2750 C.3     
  28 H28           -0.6283    -0.7065    -1.6244 H       
  29 H29            1.5895    -1.8243    -1.6986 H       
  30 H30            3.6321    -0.4403    -1.4219 H       
  31 H31            6.7883     3.2376    -0.7748 H       
  32 H32            6.9796     6.6408    -2.4120 H       
  33 H33            7.5824     7.7741    -1.1752 H       
  34 H34            7.8045     5.2943    -0.5740 H       
  35 H35            6.9246     6.2836     0.6194 H       
  36 H36            3.5543     4.9215    -0.7905 H       
  37 H37            4.1242     6.0380     0.4768 H       
  38 H38            3.4019     7.4074    -1.3881 H       
  39 H39            4.3140     6.4070    -2.5477 H       
  40 H40            1.9036    11.3403     0.8952 H       
  41 H41            0.5502    11.2415    -1.1569 H       
  42 H42            1.4086    10.0896    -3.1537 H       
  43 H43            3.6329     9.0399    -3.1129 H       
  44 H44           -1.4962     1.9402    -0.2491 H       
  45 H45           -1.0276     2.9417    -1.6440 H       
  46 H46           -1.8322     1.3752    -1.9032 H       
@<TRIPOS>BOND
   1    1    2 ar
   2    1    6 ar
   3    1   27 1
   4    2    3 ar
   5    2   28 1
   6    3    4 ar
   7    3   29 1
   8    4    5 ar
   9    4   30 1
  10    5    6 ar
  11    5    7 1
  12    7    8 3
  13    8    9 1
  14    9   13 2
  15    9   31 1
  16   10   11 1
  17   10   15 1
  18   10   16 am
  19   11   12 1
  20   11   32 1
  21   11   33 1
  22   12   13 1
  23   12   34 1
  24   12   35 1
  25   13   14 1
  26   14   15 1
  27   14   36 1
  28   14   37 1
  29   15   38 1
  30   15   39 1
  31   16   17 1
  32   16   23 2
  33   17   18 ar
  34   17   22 ar
  35   18   19 ar
  36   18   24 1
  37   19   20 ar
  38   19   40 1
  39   20   21 ar
  40   20   41 1
  41   21   22 ar
  42   21   42 1
  43   22   43 1
  44   24   25 2
  45   24   26 2
  46   27   44 1
  47   27   45 1
  48   27   46 1

#	End of record

