#	Name: ASD04910015
#	Creating user name:	WinNT
#	Creation time:	15. 06. 2019 20:55

#	Modifying user name:	WinNT
#	Modification time:	15. 06. 2019 20:55

#	Program:	/corina/corina34_cracker 3.40 0067  02.08.2006

@<TRIPOS>MOLECULE
ASD04910015
  54   57    0    0    0
SMALL
NO_CHARGES


@<TRIPOS>ATOM
   1 C1             1.2604     1.4551     1.9258 C.2     
   2 C2             1.1006     0.0726     1.6715 C.2     
   3 C3             2.1816    -0.7011     1.4493 C.2     
   4 O4             2.3738     1.9457     1.9438 O.2     
   5 O5             0.1778     2.2308     2.1428 O.3     
   6 C6             3.1075    -2.8155     0.9805 C.2     
   7 C7             2.9406    -4.2595     0.7150 C.ar    
   8 C8             4.0582    -5.0638     0.4844 C.ar    
   9 C9             3.8953    -6.4112     0.2376 C.ar    
  10 C10            2.6278    -6.9659     0.2183 C.ar    
  11 C11            1.5159    -6.1744     0.4456 C.ar    
  12 C12            1.6649    -4.8267     0.6994 C.ar    
  13 O13            4.2196    -2.3255     0.9985 O.2     
  14 N14            2.0266    -2.0418     1.2028 N.am    
  15 C15            2.4576    -8.4387    -0.0520 C.3     
  16 O16            1.3616    -8.9403     0.7157 O.3     
  17 C17            1.5004   -10.1820     1.2513 C.ar    
  18 C18            2.6153   -10.9489     0.9447 C.ar    
  19 C19            2.7569   -12.2099     1.4888 C.ar    
  20 C20            1.7836   -12.7105     2.3429 C.ar    
  21 C21            0.6683   -11.9427     2.6495 C.ar    
  22 C22            0.5301   -10.6797     2.1090 C.ar    
  23 N23            1.9269   -13.9919     2.8957 N.pl3   
  24 N24            2.9951   -14.8707     2.6740 N.2     
  25 C25            2.7740   -15.9644     3.3584 C.2     
  26 C26            1.5596   -15.8181     4.0373 C.2     
  27 C27            1.0614   -14.5950     3.7412 C.2     
  28 C28            0.9220   -16.8394     4.9436 C.3     
  29 F29            1.7349   -17.9761     5.0099 F       
  30 F30            0.7727   -16.2975     6.2247 F       
  31 F31           -0.3335   -17.1928     4.4375 F       
  32 C32            2.1788    -8.6551    -1.5407 C.3     
  33 C33            1.9749   -10.0939    -2.0194 C.3     
  34 C34            0.7820    -9.1395    -1.9347 C.3     
  35 H35            0.1124    -0.3628     1.6556 H       
  36 H36            3.1698    -0.2657     1.4653 H       
  37 H37            0.3867     3.1605     2.3073 H       
  38 H38            5.0480    -4.6321     0.4988 H       
  39 H39            4.7589    -7.0345     0.0587 H       
  40 H40            0.5293    -6.6136     0.4288 H       
  41 H41            0.7965    -4.2108     0.8810 H       
  42 H42            1.1390    -2.4328     1.1884 H       
  43 H43            3.3690    -8.9671     0.2276 H       
  44 H44            3.3722   -10.5595     0.2799 H       
  45 H45            3.6246   -12.8069     1.2497 H       
  46 H46           -0.0891   -12.3317     3.3139 H       
  47 H47           -0.3353   -10.0806     2.3510 H       
  48 H48            3.4180   -16.8307     3.3927 H       
  49 H49            0.1370   -14.1770     4.1116 H       
  50 H50            2.6825    -7.9658    -2.2184 H       
  51 H51            2.3442   -10.3511    -3.0121 H       
  52 H52            2.0394   -10.8863    -1.2737 H       
  53 H53            0.0617    -9.3041    -1.1334 H       
  54 H54            0.3665    -8.7689    -2.8718 H       
@<TRIPOS>BOND
   1    1    2 1
   2    1    4 2
   3    1    5 1
   4    2    3 2
   5    2   35 1
   6    3   14 1
   7    3   36 1
   8    5   37 1
   9    6    7 1
  10    6   13 2
  11    6   14 am
  12    7    8 ar
  13    7   12 ar
  14    8    9 ar
  15    8   38 1
  16    9   10 ar
  17    9   39 1
  18   10   11 ar
  19   10   15 1
  20   11   12 ar
  21   11   40 1
  22   12   41 1
  23   14   42 1
  24   15   16 1
  25   15   32 1
  26   15   43 1
  27   16   17 1
  28   17   18 ar
  29   17   22 ar
  30   18   19 ar
  31   18   44 1
  32   19   20 ar
  33   19   45 1
  34   20   21 ar
  35   20   23 1
  36   21   22 ar
  37   21   46 1
  38   22   47 1
  39   23   24 1
  40   23   27 1
  41   24   25 2
  42   25   26 1
  43   25   48 1
  44   26   27 2
  45   26   28 1
  46   27   49 1
  47   28   29 1
  48   28   30 1
  49   28   31 1
  50   32   33 1
  51   32   34 1
  52   32   50 1
  53   33   34 1
  54   33   51 1
  55   33   52 1
  56   34   53 1
  57   34   54 1

#	End of record

