#	Name: ASD09116046
#	Creating user name:	WinNT
#	Creation time:	15. 06. 2019 21:20

#	Modifying user name:	WinNT
#	Modification time:	15. 06. 2019 21:20

#	Program:	/corina/corina34_cracker 3.40 0067  02.08.2006

@<TRIPOS>MOLECULE
ASD09116046
  26   27    0    0    0
SMALL
NO_CHARGES


@<TRIPOS>ATOM
   1 C1            -0.0188     1.5354     0.0105 C.3     
   2 C2             0.0021    -0.0041     0.0020 C.3     
   3 C3            -0.4308    -0.5342    -1.3491 C.3     
   4 C4             0.5414    -0.4658    -2.4848 C.3     
   5 C5             0.6093     0.9091    -3.0889 C.ar    
   6 C6             1.4193     1.8482    -2.4621 C.ar    
   7 C7             2.1608     1.4372    -1.2195 C.3     
   8 C8             1.4550     2.0290    -0.0009 C.3     
   9 C9            -0.0853     1.2716    -4.2217 C.ar    
  10 C10            0.0745     2.5777    -4.6755 C.ar    
  11 N11            0.8682     3.4057    -4.0215 N.ar    
  12 N12            1.5128     3.0609    -2.9639 N.ar    
  13 Cl13          -0.7659     3.1157    -6.0961 Cl      
  14 H14           -0.5382     1.9026    -0.8747 H       
  15 H15           -0.5211     1.8930     0.9093 H       
  16 H16            1.0126    -0.3511     0.2175 H       
  17 H17           -0.6767    -0.3771     0.7689 H       
  18 H18           -0.7143    -1.5786    -1.2191 H       
  19 H19           -1.3261     0.0115    -1.6470 H       
  20 H20            1.5310    -0.7419    -2.1209 H       
  21 H21            0.2378    -1.1759    -3.2540 H       
  22 H22            2.1702     0.3499    -1.1432 H       
  23 H23            3.1840     1.8100    -1.2652 H       
  24 H24            1.4756     3.1173    -0.0593 H       
  25 H25            1.9579     1.6999     0.9084 H       
  26 H26           -0.7268     0.5717    -4.7365 H       
@<TRIPOS>BOND
   1    1    2 1
   2    1    8 1
   3    1   14 1
   4    1   15 1
   5    2    3 1
   6    2   16 1
   7    2   17 1
   8    3    4 1
   9    3   18 1
  10    3   19 1
  11    4    5 1
  12    4   20 1
  13    4   21 1
  14    5    6 ar
  15    5    9 ar
  16    6    7 1
  17    6   12 ar
  18    7    8 1
  19    7   22 1
  20    7   23 1
  21    8   24 1
  22    8   25 1
  23    9   10 ar
  24    9   26 1
  25   10   11 ar
  26   10   13 1
  27   11   12 ar

#	End of record

