#	Name: ASD01811253
#	Creating user name:	WinNT
#	Creation time:	15. 06. 2019 19:26

#	Modifying user name:	WinNT
#	Modification time:	15. 06. 2019 19:26

#	Program:	/corina/corina34_cracker 3.40 0067  02.08.2006

@<TRIPOS>MOLECULE
ASD01811253
  63   68    0    0    0
SMALL
NO_CHARGES


@<TRIPOS>ATOM
   1 C1            -0.1544     1.3044    -0.1043 C.ar    
   2 C2            -0.2246    -0.0809    -0.2227 C.ar    
   3 N3            -1.5570    -0.4918    -0.3030 N.am    
   4 C4            -2.4132     0.5464    -0.2448 C.2     
   5 C5            -1.5766     1.7891    -0.1054 C.3     
   6 C6            -1.9195     2.5570     1.1738 C.3     
   7 N7            -2.3153     3.9226     0.7574 N.3     
   8 C8            -2.8027     3.7956    -0.6409 C.3     
   9 C9            -1.8288     2.7629    -1.2672 C.3     
  10 C10           -3.3658     4.4568     1.6345 C.3     
  11 C11           -2.8335     4.5414     3.0620 C.3     
  12 C12           -3.9821     4.8320     4.0316 C.3     
  13 S13           -4.6922     6.4561     3.6303 S.3     
  14 C14           -5.0564     6.2894     1.8575 C.3     
  15 C15           -3.7868     5.8348     1.1326 C.3     
  16 C16            1.0633     1.9394    -0.0102 C.ar    
  17 C17            2.2333     1.2004    -0.0322 C.ar    
  18 C18            2.1757    -0.1761    -0.1486 C.ar    
  19 C19            0.9574    -0.8168    -0.2429 C.ar    
  20 O20           -3.6238     0.4900    -0.2917 O.2     
  21 C21           -1.9748    -1.8896    -0.4356 C.3     
  22 C22           -2.1670    -2.4886     0.9339 C.ar    
  23 C23           -3.3345    -2.2415     1.6380 C.ar    
  24 C24           -3.5143    -2.7887     2.8946 C.ar    
  25 C25           -2.5196    -3.5893     3.4511 C.ar    
  26 C26           -1.3485    -3.8341     2.7378 C.ar    
  27 C27           -1.1802    -3.2874     1.4812 C.ar    
  28 F28           -4.2979    -1.4647     1.0961 F       
  29 C29           -2.7067    -4.1795     4.8006 C.2     
  30 C30           -1.8193    -4.9775     5.4617 C.2     
  31 N31           -2.3667    -5.2980     6.6514 N.pl3   
  32 N32           -3.6233    -4.6862     6.7339 N.2     
  33 C33           -3.8300    -4.0123     5.6337 C.2     
  34 C34           -1.7527    -6.1414     7.6800 C.3     
  35 H35           -2.7465     2.0702     1.6907 H       
  36 H36           -1.0474     2.6039     1.8259 H       
  37 H37           -3.8255     3.4192    -0.6587 H       
  38 H38           -2.7348     4.7517    -1.1599 H       
  39 H39           -0.9011     3.2445    -1.5761 H       
  40 H40           -2.2974     2.2496    -2.1069 H       
  41 H41           -4.2266     3.7886     1.6115 H       
  42 H42           -2.3644     3.5947     3.3300 H       
  43 H43           -2.0949     5.3405     3.1260 H       
  44 H44           -4.7483     4.0634     3.9309 H       
  45 H45           -3.6036     4.8413     5.0537 H       
  46 H46           -5.8436     5.5492     1.7144 H       
  47 H47           -5.3799     7.2511     1.4591 H       
  48 H48           -2.9860     6.5494     1.3226 H       
  49 H49           -3.9797     5.7862     0.0609 H       
  50 H50            1.1058     3.0147     0.0805 H       
  51 H51            3.1892     1.6979     0.0410 H       
  52 H52            3.0888    -0.7526    -0.1658 H       
  53 H53            0.9205    -1.8923    -0.3335 H       
  54 H54           -2.9132    -1.9375    -0.9880 H       
  55 H55           -1.2083    -2.4486    -0.9723 H       
  56 H56           -4.4240    -2.5957     3.4439 H       
  57 H57           -0.5745    -4.4540     3.1657 H       
  58 H58           -0.2724    -3.4775     0.9280 H       
  59 H59           -0.8534    -5.2953     5.0977 H       
  60 H60           -4.7114    -3.4332     5.4009 H       
  61 H61           -1.1678    -5.5198     8.3580 H       
  62 H62           -2.5327    -6.6563     8.2409 H       
  63 H63           -1.1008    -6.8755     7.2066 H       
@<TRIPOS>BOND
   1    1    2 ar
   2    1   16 ar
   3    1    5 1
   4    2    3 1
   5    2   19 ar
   6    3    4 am
   7    3   21 1
   8    4    5 1
   9    4   20 2
  10    5    6 1
  11    5    9 1
  12    6    7 1
  13    6   35 1
  14    6   36 1
  15    7    8 1
  16    7   10 1
  17    8    9 1
  18    8   37 1
  19    8   38 1
  20    9   39 1
  21    9   40 1
  22   10   11 1
  23   10   15 1
  24   10   41 1
  25   11   12 1
  26   11   42 1
  27   11   43 1
  28   12   13 1
  29   12   44 1
  30   12   45 1
  31   13   14 1
  32   14   15 1
  33   14   46 1
  34   14   47 1
  35   15   48 1
  36   15   49 1
  37   16   17 ar
  38   16   50 1
  39   17   18 ar
  40   17   51 1
  41   18   19 ar
  42   18   52 1
  43   19   53 1
  44   21   22 1
  45   21   54 1
  46   21   55 1
  47   22   23 ar
  48   22   27 ar
  49   23   24 ar
  50   23   28 1
  51   24   25 ar
  52   24   56 1
  53   25   26 ar
  54   25   29 1
  55   26   27 ar
  56   26   57 1
  57   27   58 1
  58   29   30 2
  59   29   33 1
  60   30   31 1
  61   30   59 1
  62   31   32 1
  63   31   34 1
  64   32   33 2
  65   33   60 1
  66   34   61 1
  67   34   62 1
  68   34   63 1

#	End of record

