#	Name: ASD04880319
#	Creating user name:	WinNT
#	Creation time:	15. 06. 2019 20:53

#	Modifying user name:	WinNT
#	Modification time:	15. 06. 2019 20:53

#	Program:	/corina/corina34_cracker 3.40 0067  02.08.2006

@<TRIPOS>MOLECULE
ASD04880319
  49   51    0    0    0
SMALL
NO_CHARGES


@<TRIPOS>ATOM
   1 C1             0.0125     1.3433    -0.5265 C.ar    
   2 C2             0.0060    -0.0478    -0.6007 C.ar    
   3 C3            -1.1727    -0.7447    -0.4111 C.ar    
   4 C4            -2.3556    -0.0506    -0.1448 C.ar    
   5 C5            -2.3415     1.3445    -0.0715 C.ar    
   6 C6            -1.1607     2.0325    -0.2565 C.ar    
   7 C7            -3.6159    -0.7886     0.0578 C.2     
   8 O8             1.1726     2.0268    -0.7137 O.3     
   9 C9             1.1079     3.4515    -0.6240 C.3     
  10 O10            1.1593    -0.7203    -0.8600 O.3     
  11 C11            1.0792    -2.1457    -0.9218 C.3     
  12 N12           -3.7426    -2.0696     0.0124 N.2     
  13 N13           -5.0412    -2.5217     0.2379 N.am    
  14 C14           -5.9155    -1.3609     0.4696 C.3     
  15 C15           -4.9574    -0.1585     0.3572 C.3     
  16 C16           -5.4325    -3.8114     0.2430 C.2     
  17 N17           -4.5331    -4.7894     0.0170 N.am    
  18 O18           -6.5971    -4.0926     0.4516 O.2     
  19 C19           -4.9179    -6.1308     0.1184 C.ar    
  20 C20           -6.1897    -6.5214    -0.2789 C.ar    
  21 C21           -4.9128     0.6171     1.6753 C.3     
  22 C22           -5.3793     0.7583    -0.7926 C.3     
  23 C23           -4.0266    -7.0747     0.6114 C.ar    
  24 C24           -4.4082    -8.3986     0.7109 C.ar    
  25 C25           -5.6762    -8.7857     0.3200 C.ar    
  26 C26           -6.5668    -7.8482    -0.1772 C.ar    
  27 F27           -7.8057    -8.2293    -0.5581 F       
  28 H28           -1.1792    -1.8232    -0.4690 H       
  29 H29           -3.2543     1.8838     0.1342 H       
  30 H30           -1.1511     3.1109    -0.1996 H       
  31 H31            0.4188     3.8321    -1.3779 H       
  32 H32            0.7562     3.7375     0.3673 H       
  33 H33            2.0995     3.8716    -0.7928 H       
  34 H34            0.7238    -2.5314     0.0337 H       
  35 H35            0.3865    -2.4368    -1.7114 H       
  36 H36            2.0663    -2.5562    -1.1348 H       
  37 H37           -6.6937    -1.3088    -0.2919 H       
  38 H38           -6.3550    -1.4046     1.4662 H       
  39 H39           -3.6191    -4.5633    -0.2160 H       
  40 H40           -6.8836    -5.7902    -0.6665 H       
  41 H41           -4.5639    -0.0399     2.4719 H       
  42 H42           -4.2313     1.4621     1.5767 H       
  43 H43           -5.9113     0.9818     1.9162 H       
  44 H44           -6.3893     1.1264    -0.6120 H       
  45 H45           -4.6913     1.6013    -0.8564 H       
  46 H46           -5.3581     0.2003    -1.7288 H       
  47 H47           -3.0352    -6.7739     0.9165 H       
  48 H48           -3.7146    -9.1323     1.0943 H       
  49 H49           -5.9718    -9.8215     0.3982 H       
@<TRIPOS>BOND
   1    1    2 ar
   2    1    8 1
   3    1    6 ar
   4    2    3 ar
   5    2   10 1
   6    3    4 ar
   7    3   28 1
   8    4    5 ar
   9    4    7 1
  10    5    6 ar
  11    5   29 1
  12    6   30 1
  13    7   12 2
  14    7   15 1
  15    8    9 1
  16    9   31 1
  17    9   32 1
  18    9   33 1
  19   10   11 1
  20   11   34 1
  21   11   35 1
  22   11   36 1
  23   12   13 1
  24   13   14 1
  25   13   16 am
  26   14   15 1
  27   14   37 1
  28   14   38 1
  29   15   21 1
  30   15   22 1
  31   16   17 am
  32   16   18 2
  33   17   19 1
  34   17   39 1
  35   19   20 ar
  36   19   23 ar
  37   20   26 ar
  38   20   40 1
  39   21   41 1
  40   21   42 1
  41   21   43 1
  42   22   44 1
  43   22   45 1
  44   22   46 1
  45   23   24 ar
  46   23   47 1
  47   24   25 ar
  48   24   48 1
  49   25   26 ar
  50   25   49 1
  51   26   27 1

#	End of record

