#	Name: ASD01180039
#	Creating user name:	WinNT
#	Creation time:	15. 06. 2019 19:06

#	Modifying user name:	WinNT
#	Modification time:	15. 06. 2019 19:06

#	Program:	/corina/corina34_cracker 3.40 0067  02.08.2006

@<TRIPOS>MOLECULE
ASD01180039
  39   40    0    0    0
SMALL
NO_CHARGES


@<TRIPOS>ATOM
   1 N1             0.0651     1.2401     0.5123 N.ar    
   2 C2             0.0441    -0.0379     0.2208 C.ar    
   3 C3             1.1814    -0.6690    -0.3142 C.ar    
   4 N4             2.2877     0.0162    -0.5310 N.ar    
   5 C5             2.3258     1.3224    -0.2392 C.ar    
   6 C6             3.4895     2.0800    -0.4591 C.ar    
   7 C7             3.4988     3.4078    -0.1529 C.ar    
   8 C8             2.3698     4.0280     0.3765 C.ar    
   9 C9             1.2257     3.3252     0.6026 C.ar    
  10 C10            1.1779     1.9543     0.2996 C.ar    
  11 S11           -1.4221    -0.9735     0.5024 S.o2    
  12 O12           -0.9501    -2.2512     0.9075 O.2     
  13 O13           -2.1910    -0.1640     1.3815 O.2     
  14 C14           -2.2143    -1.0747    -1.1263 C.3     
  15 C15            2.3545    -2.7123    -1.0564 C.3     
  16 N16            1.1397    -2.0222    -0.6158 N.pl3   
  17 C17            3.4234    -2.6092     0.0334 C.3     
  18 C18            2.0367    -4.1853    -1.3215 C.3     
  19 Cl19           4.9086     1.3271    -1.1171 Cl      
  20 C20            2.8722    -2.0630    -2.3415 C.3     
  21 C21            2.4152     5.4982     0.7045 C.3     
  22 F22            3.6806     6.0067     0.3923 F       
  23 F23            1.4440     6.1729    -0.0429 F       
  24 F24            2.1633     5.6796     2.0686 F       
  25 H25            4.3942     3.9872    -0.3230 H       
  26 H26            0.3581     3.8199     1.0136 H       
  27 H27           -1.5429    -1.5714    -1.8267 H       
  28 H28           -3.1404    -1.6437    -1.0452 H       
  29 H29           -2.4356    -0.0697    -1.4858 H       
  30 H30            0.3061    -2.5117    -0.5349 H       
  31 H31            4.3273    -3.1226    -0.2945 H       
  32 H32            3.6498    -1.5599     0.2222 H       
  33 H33            3.0546    -3.0718     0.9489 H       
  34 H34            1.6679    -4.6478    -0.4060 H       
  35 H35            1.2752    -4.2587    -2.0979 H       
  36 H36            2.9406    -4.6987    -1.6493 H       
  37 H37            3.7761    -2.5764    -2.6694 H       
  38 H38            2.1107    -2.1364    -3.1179 H       
  39 H39            3.0986    -1.0136    -2.1527 H       
@<TRIPOS>BOND
   1    1    2 ar
   2    1   10 ar
   3    2    3 ar
   4    2   11 1
   5    3    4 ar
   6    3   16 1
   7    4    5 ar
   8    5    6 ar
   9    5   10 ar
  10    6    7 ar
  11    6   19 1
  12    7    8 ar
  13    7   25 1
  14    8    9 ar
  15    8   21 1
  16    9   10 ar
  17    9   26 1
  18   11   12 2
  19   11   13 2
  20   11   14 1
  21   14   27 1
  22   14   28 1
  23   14   29 1
  24   15   17 1
  25   15   18 1
  26   15   20 1
  27   15   16 1
  28   16   30 1
  29   17   31 1
  30   17   32 1
  31   17   33 1
  32   18   34 1
  33   18   35 1
  34   18   36 1
  35   20   37 1
  36   20   38 1
  37   20   39 1
  38   21   22 1
  39   21   23 1
  40   21   24 1

#	End of record

