#	Name: ASD03540598
#	Creating user name:	WinNT
#	Creation time:	15. 06. 2019 20:43

#	Modifying user name:	WinNT
#	Modification time:	15. 06. 2019 20:43

#	Program:	/corina/corina34_cracker 3.40 0067  02.08.2006

@<TRIPOS>MOLECULE
ASD03540598
  59   64    0    0    0
SMALL
NO_CHARGES


@<TRIPOS>ATOM
   1 C1            -0.0184     1.5028     0.0103 C.2     
   2 C2             0.0021    -0.0041     0.0020 C.3     
   3 O3             1.0197     2.1211     0.0037 O.2     
   4 O4            -1.1898     2.1580     0.0194 O.3     
   5 C5             1.4295    -0.4870    -0.0142 C.ar    
   6 C6             2.0956    -0.7149     1.1754 C.ar    
   7 C7             3.4050    -1.1579     1.1606 C.ar    
   8 C8             4.0481    -1.3733    -0.0440 C.ar    
   9 C9             3.3817    -1.1463    -1.2336 C.ar    
  10 C10            2.0709    -0.7075    -1.2187 C.ar    
  11 C11            5.4759    -1.8553    -0.0602 C.3     
  12 N12            5.5140    -5.3593    -1.3261 N.pl3   
  13 C13            5.4947    -3.9955    -1.2730 C.2     
  14 N14            5.4968    -3.3201    -0.0672 N.am    
  15 C15            5.5182    -3.9904     1.1036 C.2     
  16 C16            5.5395    -5.4650     1.0789 C.ar    
  17 C17            5.5626    -6.2047     2.2556 C.ar    
  18 C18            5.5827    -7.5965     2.1910 C.ar    
  19 C19            5.5795    -8.2400     0.9479 C.ar    
  20 C20            5.5567    -7.5070    -0.2171 C.ar    
  21 C21            5.5366    -6.1190    -0.1662 C.ar    
  22 N22            5.4828    -4.5676    -3.3233 N.2     
  23 N23            5.4762    -3.5676    -2.5160 N.2     
  24 C24            5.5112    -5.6858    -2.6525 C.2     
  25 O25            5.5203    -3.3892     2.1609 O.2     
  26 C26            5.6078    -8.3930     3.4347 C.2     
  27 N27            5.6272    -9.7392     3.3725 N.am    
  28 O28            5.6109    -7.8343     4.5144 O.2     
  29 C29            5.6521   -10.5292     4.6060 C.3     
  30 O30            5.9810   -15.9927     3.3238 O.3     
  31 C31            7.3625   -16.1805     3.6839 C.3     
  32 O32            7.9303   -14.8631     3.5606 O.3     
  33 C33            6.8962   -13.9988     3.7773 C.ar    
  34 C34            5.6975   -14.6935     3.6317 C.ar    
  35 C35            6.8770   -12.6502     4.0925 C.ar    
  36 C36            5.6704   -11.9964     4.2625 C.ar    
  37 C37            4.4812   -12.6858     4.1185 C.ar    
  38 C38            4.4927   -14.0322     3.8034 C.ar    
  39 H39           -0.4983    -0.3791     0.8948 H       
  40 H40           -0.5153    -0.3696    -0.8850 H       
  41 H41           -1.1523     3.1243     0.0245 H       
  42 H42            1.5932    -0.5466     2.1165 H       
  43 H43            3.9256    -1.3353     2.0900 H       
  44 H44            3.8843    -1.3143    -2.1747 H       
  45 H45            1.5491    -0.5336    -2.1482 H       
  46 H46            5.9757    -1.4805    -0.9534 H       
  47 H47            5.9932    -1.4888     0.8265 H       
  48 H48            5.5653    -5.7044     3.2127 H       
  49 H49            5.5955    -9.3190     0.9025 H       
  50 H50            5.5549    -8.0118    -1.1719 H       
  51 H51            5.5231    -6.6827    -3.0677 H       
  52 H52            5.6247   -10.1850     2.5110 H       
  53 H53            6.5446   -10.2792     5.1796 H       
  54 H54            4.7650   -10.3058     5.1985 H       
  55 H55            7.4455   -16.5389     4.7099 H       
  56 H56            7.8471   -16.8724     2.9950 H       
  57 H57            7.8047   -12.1092     4.2063 H       
  58 H58            3.5408   -12.1717     4.2520 H       
  59 H59            3.5619   -14.5682     3.6908 H       
@<TRIPOS>BOND
   1    1    2 1
   2    1    3 2
   3    1    4 1
   4    2    5 1
   5    2   39 1
   6    2   40 1
   7    4   41 1
   8    5    6 ar
   9    5   10 ar
  10    6    7 ar
  11    6   42 1
  12    7    8 ar
  13    7   43 1
  14    8    9 ar
  15    8   11 1
  16    9   10 ar
  17    9   44 1
  18   10   45 1
  19   11   14 1
  20   11   46 1
  21   11   47 1
  22   12   13 1
  23   12   21 1
  24   12   24 1
  25   13   14 1
  26   13   23 2
  27   14   15 am
  28   15   16 1
  29   15   25 2
  30   16   17 ar
  31   16   21 ar
  32   17   18 ar
  33   17   48 1
  34   18   19 ar
  35   18   26 1
  36   19   20 ar
  37   19   49 1
  38   20   21 ar
  39   20   50 1
  40   22   23 1
  41   22   24 2
  42   24   51 1
  43   26   27 am
  44   26   28 2
  45   27   29 1
  46   27   52 1
  47   29   36 1
  48   29   53 1
  49   29   54 1
  50   30   31 1
  51   30   34 1
  52   31   32 1
  53   31   55 1
  54   31   56 1
  55   32   33 1
  56   33   34 ar
  57   33   35 ar
  58   34   38 ar
  59   35   36 ar
  60   35   57 1
  61   36   37 ar
  62   37   38 ar
  63   37   58 1
  64   38   59 1

#	End of record

