#	Name: ASD08150206
#	Creating user name:	WinNT
#	Creation time:	15. 06. 2019 21:15

#	Modifying user name:	WinNT
#	Modification time:	15. 06. 2019 21:15

#	Program:	/corina/corina34_cracker 3.40 0067  02.08.2006

@<TRIPOS>MOLECULE
ASD08150206
  64   68    0    0    0
SMALL
NO_CHARGES


@<TRIPOS>ATOM
   1 N1            -0.0157     1.2953    -0.0516 N.2     
   2 C2             0.0018    -0.0027    -0.0877 C.2     
   3 N3             1.1481    -0.7345    -0.1046 N.am    
   4 C4             2.3556    -0.1235    -0.0845 C.2     
   5 C5             2.3701     1.3459    -0.0440 C.ar    
   6 C6             3.5601     2.0707    -0.0212 C.ar    
   7 C7             3.5159     3.4470     0.0160 C.ar    
   8 C8             2.2980     4.1145     0.0314 C.ar    
   9 C9             1.1112     3.4174     0.0098 C.ar    
  10 C10            1.1295     2.0215    -0.0285 C.ar    
  11 O11            3.3896    -0.7658    -0.0988 O.2     
  12 C12            4.8857     1.3540    -0.0367 C.3     
  13 C13            1.0783    -2.1340    -0.1428 C.ar    
  14 C14            1.0404    -2.8643     1.0433 C.ar    
  15 C15            0.9709    -4.2473     0.9993 C.ar    
  16 C16            0.9394    -4.8997    -0.2193 C.ar    
  17 C17            0.9774    -4.1757    -1.3966 C.ar    
  18 C18            1.0410    -2.7954    -1.3614 C.ar    
  19 O19            1.0720    -2.2214     2.2407 O.3     
  20 C20            1.0299    -3.0346     3.4150 C.3     
  21 C21            1.0741    -2.1409     4.6561 C.3     
  22 C22            1.0290    -3.0115     5.9134 C.3     
  23 N23            1.0715    -2.1535     7.1050 N.3     
  24 C24            0.7929    -2.9281     8.3217 C.3     
  25 C25            2.3615    -1.4582     7.2074 C.3     
  26 C26           -1.3149    -0.7353    -0.1115 C.3     
  27 N27           -3.9986     1.5256     0.6757 N.2     
  28 C28           -3.0841     0.6653     1.0181 C.2     
  29 N29           -2.4134     0.2337    -0.0874 N.pl3   
  30 C30           -2.9555     0.8735    -1.1732 C.ar    
  31 N31           -2.7245     0.8607    -2.4818 N.ar    
  32 C32           -3.4366     1.6107    -3.2963 C.ar    
  33 N33           -4.4019     2.4034    -2.8679 N.ar    
  34 C34           -4.7052     2.4827    -1.5763 C.ar    
  35 C35           -3.9729     1.7004    -0.6674 C.ar    
  36 N36           -5.7183     3.3167    -1.1368 N.pl3   
  37 H37            4.4362     4.0119     0.0337 H       
  38 H38            2.2819     5.1940     0.0610 H       
  39 H39            0.1703     3.9475     0.0228 H       
  40 H40            5.1532     1.1069    -1.0641 H       
  41 H41            5.6523     1.9987     0.3933 H       
  42 H42            4.8105     0.4382     0.5495 H       
  43 H43            0.9418    -4.8159     1.9170 H       
  44 H44            0.8852    -5.9778    -0.2517 H       
  45 H45            0.9532    -4.6897    -2.3461 H       
  46 H46            1.0660    -2.2323    -2.2826 H       
  47 H47            0.1092    -3.6181     3.4201 H       
  48 H48            1.8869    -3.7080     3.4215 H       
  49 H49            1.9947    -1.5574     4.6510 H       
  50 H50            0.2170    -1.4674     4.6496 H       
  51 H51            0.1084    -3.5951     5.9184 H       
  52 H52            1.8861    -3.6850     5.9199 H       
  53 H53            1.5396    -3.7146     8.4306 H       
  54 H54            0.8306    -2.2687     9.1888 H       
  55 H55           -0.1983    -3.3757     8.2484 H       
  56 H56            2.5107    -0.8373     6.3240 H       
  57 H57            2.3659    -0.8300     8.0981 H       
  58 H58            3.1650    -2.1916     7.2759 H       
  59 H59           -1.3801    -1.3360    -1.0187 H       
  60 H60           -1.3847    -1.3855     0.7606 H       
  61 H61           -2.8857     0.3413     2.0291 H       
  62 H62           -3.2231     1.5768    -4.3544 H       
  63 H63           -6.2165     3.8521    -1.7740 H       
  64 H64           -5.9303     3.3659    -0.1915 H       
@<TRIPOS>BOND
   1    1    2 2
   2    1   10 1
   3    2    3 1
   4    2   26 1
   5    3    4 am
   6    3   13 1
   7    4    5 1
   8    4   11 2
   9    5    6 ar
  10    5   10 ar
  11    6    7 ar
  12    6   12 1
  13    7    8 ar
  14    7   37 1
  15    8    9 ar
  16    8   38 1
  17    9   10 ar
  18    9   39 1
  19   12   40 1
  20   12   41 1
  21   12   42 1
  22   13   14 ar
  23   13   18 ar
  24   14   15 ar
  25   14   19 1
  26   15   16 ar
  27   15   43 1
  28   16   17 ar
  29   16   44 1
  30   17   18 ar
  31   17   45 1
  32   18   46 1
  33   19   20 1
  34   20   21 1
  35   20   47 1
  36   20   48 1
  37   21   22 1
  38   21   49 1
  39   21   50 1
  40   22   23 1
  41   22   51 1
  42   22   52 1
  43   23   24 1
  44   23   25 1
  45   24   53 1
  46   24   54 1
  47   24   55 1
  48   25   56 1
  49   25   57 1
  50   25   58 1
  51   26   29 1
  52   26   59 1
  53   26   60 1
  54   27   28 2
  55   27   35 1
  56   28   29 1
  57   28   61 1
  58   29   30 1
  59   30   31 ar
  60   30   35 ar
  61   31   32 ar
  62   32   33 ar
  63   32   62 1
  64   33   34 ar
  65   34   35 ar
  66   34   36 1
  67   36   63 1
  68   36   64 1

#	End of record

