#	Name: ASD02210006
#	Creating user name:	WinNT
#	Creation time:	15. 06. 2019 20:20

#	Modifying user name:	WinNT
#	Modification time:	15. 06. 2019 20:20

#	Program:	/corina/corina34_cracker 3.40 0067  02.08.2006

@<TRIPOS>MOLECULE
ASD02210006
  34   36    0    0    0
SMALL
NO_CHARGES


@<TRIPOS>ATOM
   1 C1            -0.0921     1.2834    -0.2816 C.ar    
   2 C2            -0.1407    -0.0650     0.0037 C.ar    
   3 C3             1.0251    -0.8221     0.0622 C.ar    
   4 C4             2.2434    -0.2556    -0.1598 C.ar    
   5 C5             2.3369     1.1153    -0.4540 C.ar    
   6 C6             3.5809     1.7270    -0.6870 C.ar    
   7 C7             3.6351     3.0574    -0.9690 C.ar    
   8 C8             2.4740     3.8253    -1.0303 C.ar    
   9 C9             1.2520     3.2663    -0.8101 C.ar    
  10 C10            1.1571     1.8971    -0.5165 C.ar    
  11 S11           -0.2027     4.2571    -0.8922 S.o2    
  12 O12           -1.0420     3.6573    -1.8695 O.2     
  13 O13           -0.6109     4.4827     0.4500 O.2     
  14 O14            0.2064     5.6126    -1.4506 O.3     
  15 N15           -1.2659     2.0318    -0.3430 N.pl3   
  16 C16           -2.3185     1.6143    -1.1610 C.ar    
  17 C17           -3.5575     2.2368    -1.0735 C.ar    
  18 C18           -4.5959     1.8215    -1.8836 C.ar    
  19 C19           -4.4036     0.7870    -2.7810 C.ar    
  20 C20           -3.1718     0.1648    -2.8705 C.ar    
  21 C21           -2.1272     0.5794    -2.0680 C.ar    
  22 H22           -1.0945    -0.5386     0.1841 H       
  23 H23            0.9629    -1.8765     0.2876 H       
  24 H24            3.1374    -0.8595    -0.1093 H       
  25 H25            4.4892     1.1443    -0.6421 H       
  26 H26            4.5921     3.5248    -1.1476 H       
  27 H27            2.5443     4.8792    -1.2554 H       
  28 H28           -0.5250     6.2391    -1.5376 H       
  29 H29           -1.3521     2.8427     0.1823 H       
  30 H30           -3.7085     3.0443    -0.3724 H       
  31 H31           -5.5592     2.3050    -1.8161 H       
  32 H32           -5.2175     0.4639    -3.4132 H       
  33 H33           -3.0252    -0.6430    -3.5721 H       
  34 H34           -1.1641     0.0963    -2.1418 H       
@<TRIPOS>BOND
   1    1    2 ar
   2    1   10 ar
   3    1   15 1
   4    2    3 ar
   5    2   22 1
   6    3    4 ar
   7    3   23 1
   8    4    5 ar
   9    4   24 1
  10    5    6 ar
  11    5   10 ar
  12    6    7 ar
  13    6   25 1
  14    7    8 ar
  15    7   26 1
  16    8    9 ar
  17    8   27 1
  18    9   10 ar
  19    9   11 1
  20   11   12 2
  21   11   13 2
  22   11   14 1
  23   14   28 1
  24   15   16 1
  25   15   29 1
  26   16   17 ar
  27   16   21 ar
  28   17   18 ar
  29   17   30 1
  30   18   19 ar
  31   18   31 1
  32   19   20 ar
  33   19   32 1
  34   20   21 ar
  35   20   33 1
  36   21   34 1

#	End of record

