#	Name: ASD01811340
#	Creating user name:	WinNT
#	Creation time:	15. 06. 2019 19:26

#	Modifying user name:	WinNT
#	Modification time:	15. 06. 2019 19:26

#	Program:	/corina/corina34_cracker 3.40 0067  02.08.2006

@<TRIPOS>MOLECULE
ASD01811340
  70   73    0    0    0
SMALL
NO_CHARGES


@<TRIPOS>ATOM
   1 N1            -0.0183     1.3812    -0.4583 N.am    
   2 C2             0.1668     0.3061    -1.2497 C.2     
   3 O3             1.2581     0.0945    -1.7423 O.2     
   4 N4            -0.8577    -0.5345    -1.4950 N.am    
   5 C5            -0.6565    -1.7032    -2.3553 C.3     
   6 N6            -3.4010    -4.9760    -2.1949 N.3     
   7 C7            -3.0869    -4.4482    -3.5288 C.3     
   8 C8            -1.7926    -3.6342    -3.4651 C.3     
   9 C9            -1.9670    -2.4845    -2.4689 C.3     
  10 C10           -2.3410    -3.0584    -1.0995 C.3     
  11 C11           -3.6194    -3.8892    -1.2318 C.3     
  12 C12           -4.5606    -5.8764    -2.2446 C.3     
  13 C13            1.0683     2.1957    -0.1187 C.ar    
  14 C14            0.8813     3.5595     0.0730 C.ar    
  15 C15            1.9510     4.3680     0.4081 C.ar    
  16 C16            3.2121     3.8266     0.5545 C.ar    
  17 C17            3.4102     2.4581     0.3646 C.ar    
  18 C18            2.3294     1.6412     0.0320 C.ar    
  19 C19           -0.4923     4.1587    -0.0854 C.3     
  20 C20            4.7602     1.8753     0.5204 C.2     
  21 O21            4.9104     0.8518     1.1587 O.2     
  22 N22            5.8241     2.4790    -0.0453 N.am    
  23 C23            7.1560     1.8618     0.0175 C.3     
  24 C24            7.7170     1.7540    -1.4040 C.3     
  25 C25            7.6947     3.1351    -2.0629 C.3     
  26 C26            6.2517     3.6375    -2.1499 C.3     
  27 C27            5.6731     3.7638    -0.7418 C.3     
  28 F28            8.4539     4.0282    -1.2992 F       
  29 C29            8.2775     3.0394    -3.4494 C.ar    
  30 C30            8.6500     4.1904    -4.1208 C.ar    
  31 C31            9.1841     4.1100    -5.3901 C.ar    
  32 C32            9.3488     2.8634    -5.9971 C.ar    
  33 C33            8.9711     1.7058    -5.3136 C.ar    
  34 C34            8.4428     1.8005    -4.0428 C.ar    
  35 C35            9.9021     2.7724    -7.3147 C.1     
  36 N36           10.3411     2.7002    -8.3600 N.1     
  37 H37           -0.9052     1.5929    -0.1274 H       
  38 H38           -1.7283    -0.3657    -1.1020 H       
  39 H39           -0.3419    -1.3752    -3.3460 H       
  40 H40            0.1123    -2.3440    -1.9236 H       
  41 H41           -2.9613    -5.2762    -4.2266 H       
  42 H42           -3.9020    -3.8086    -3.8675 H       
  43 H43           -0.9743    -4.2766    -3.1397 H       
  44 H44           -1.5681    -3.2297    -4.4520 H       
  45 H45           -2.7586    -1.8198    -2.8148 H       
  46 H46           -1.5313    -3.6918    -0.7369 H       
  47 H47           -2.5083    -2.2425    -0.3963 H       
  48 H48           -4.4319    -3.2522    -1.5812 H       
  49 H49           -3.8805    -4.3110    -0.2613 H       
  50 H50           -4.3431    -6.7126    -2.9090 H       
  51 H51           -4.7714    -6.2529    -1.2437 H       
  52 H52           -5.4278    -5.3317    -2.6180 H       
  53 H53            1.7996     5.4272     0.5554 H       
  54 H54            4.0456     4.4618     0.8157 H       
  55 H55            2.4758     0.5808    -0.1118 H       
  56 H56           -1.0108     4.1374     0.8731 H       
  57 H57           -0.4017     5.1900    -0.4266 H       
  58 H58           -1.0580     3.5822    -0.8174 H       
  59 H59            7.8168     2.4798     0.6253 H       
  60 H60            7.0773     0.8668     0.4556 H       
  61 H61            8.7424     1.3868    -1.3635 H       
  62 H62            7.1055     1.0638    -1.9851 H       
  63 H63            6.2343     4.6108    -2.6404 H       
  64 H64            5.6540     2.9295    -2.7240 H       
  65 H65            4.6163     4.0235    -0.8044 H       
  66 H66            6.2105     4.5401    -0.1972 H       
  67 H67            8.5220     5.1540    -3.6501 H       
  68 H68            9.4738     5.0093    -5.9134 H       
  69 H69            9.0958     0.7384    -5.7772 H       
  70 H70            8.1541     0.9057    -3.5113 H       
@<TRIPOS>BOND
   1    1    2 am
   2    1   13 1
   3    1   37 1
   4    2    3 2
   5    2    4 am
   6    4    5 1
   7    4   38 1
   8    5    9 1
   9    5   39 1
  10    5   40 1
  11    6    7 1
  12    6   11 1
  13    6   12 1
  14    7    8 1
  15    7   41 1
  16    7   42 1
  17    8    9 1
  18    8   43 1
  19    8   44 1
  20    9   10 1
  21    9   45 1
  22   10   11 1
  23   10   46 1
  24   10   47 1
  25   11   48 1
  26   11   49 1
  27   12   50 1
  28   12   51 1
  29   12   52 1
  30   13   14 ar
  31   13   18 ar
  32   14   15 ar
  33   14   19 1
  34   15   16 ar
  35   15   53 1
  36   16   17 ar
  37   16   54 1
  38   17   18 ar
  39   17   20 1
  40   18   55 1
  41   19   56 1
  42   19   57 1
  43   19   58 1
  44   20   21 2
  45   20   22 am
  46   22   23 1
  47   22   27 1
  48   23   24 1
  49   23   59 1
  50   23   60 1
  51   24   25 1
  52   24   61 1
  53   24   62 1
  54   25   26 1
  55   25   28 1
  56   25   29 1
  57   26   27 1
  58   26   63 1
  59   26   64 1
  60   27   65 1
  61   27   66 1
  62   29   30 ar
  63   29   34 ar
  64   30   31 ar
  65   30   67 1
  66   31   32 ar
  67   31   68 1
  68   32   33 ar
  69   32   35 1
  70   33   34 ar
  71   33   69 1
  72   34   70 1
  73   35   36 3

#	End of record

