#	Name: ASD00844896
#	Creating user name:	WinNT
#	Creation time:	15. 06. 2019 18:51

#	Modifying user name:	WinNT
#	Modification time:	15. 06. 2019 18:51

#	Program:	/corina/corina34_cracker 3.40 0067  02.08.2006

@<TRIPOS>MOLECULE
ASD00844896
  89   94    0    0    0
SMALL
NO_CHARGES


@<TRIPOS>ATOM
   1 F1             5.6844    -1.9876    -2.1636 F       
   2 C2             0.6469     1.3386    -0.6720 C.ar    
   3 C3             0.9323    -0.0025    -0.8823 C.ar    
   4 C4             0.8447    -0.9015     0.1710 C.ar    
   5 C5             0.4738    -0.4592     1.4258 C.ar    
   6 C6             0.1893     0.8781     1.6328 C.ar    
   7 C7             0.2763     1.7759     0.5851 C.ar    
   8 C8             1.1536    -2.3592    -0.0541 C.3     
   9 C9             0.8650    -3.1615     1.1966 C.2     
  10 C10            0.3465    -2.9003    -1.2359 C.3     
  11 C11           -1.1183    -2.6265    -1.0113 C.2     
  12 N12           -2.0299    -3.0629    -1.9030 N.am    
  13 O13           -1.4768    -2.0135    -0.0282 O.2     
  14 C14           -3.4471    -2.7016    -1.7624 C.3     
  15 C15           -4.2863    -3.9831    -1.7768 C.3     
  16 C16           -3.9644    -4.7848    -3.0400 C.3     
  17 C17           -2.4849    -5.1764    -3.0345 C.3     
  18 C18           -1.6244    -3.9038    -3.0375 C.3     
  19 N19           -4.7917    -5.9983    -3.0737 N.3     
  20 C20           -4.5963    -6.7342    -4.3306 C.3     
  21 C21           -5.4122    -8.0285    -4.2930 C.3     
  22 N22           -6.8313    -7.7042    -4.0910 N.3     
  23 C23           -7.0267    -6.9683    -2.8341 C.3     
  24 C24           -6.2107    -5.6740    -2.8717 C.3     
  25 H25           -7.1987    -7.1855    -4.8746 H       
  26 O26           -0.2113    -3.2816     1.7426 O.2     
  27 N27            2.0242    -3.7161     1.5885 N.am    
  28 C28            2.6346    -2.5571    -0.2856 C.ar    
  29 C29            3.0833    -3.3819     0.7409 C.ar    
  30 C30            3.4978    -2.0916    -1.2527 C.ar    
  31 C31            4.8361    -2.4423    -1.2155 C.ar    
  32 C32            5.3052    -3.2708    -0.1909 C.ar    
  33 C33            4.4258    -3.7390     0.7849 C.ar    
  34 C34            1.9012    -6.3437     2.3977 C.ar    
  35 C35            0.6540    -6.7212     1.9223 C.ar    
  36 C36            2.9264    -7.2681     2.4542 C.ar    
  37 C37            2.7102    -8.5682     2.0368 C.ar    
  38 C38            1.4678    -8.9470     1.5624 C.ar    
  39 C39            0.4394    -8.0268     1.5044 C.ar    
  40 H40            1.3014    -9.9633     1.2370 H       
  41 O41           -0.3562    -5.8138     1.8662 O.3     
  42 C42           -1.6135    -6.2729     1.3656 C.3     
  43 C43           -2.6190    -5.1198     1.3776 C.3     
  44 S44            2.1797    -4.6849     2.9225 S.o2    
  45 O45            3.5436    -4.6118     3.3147 O.2     
  46 O46            1.1032    -4.3517     3.7880 O.2     
  47 O47            1.2966    -0.4352    -2.1180 O.3     
  48 C48            1.2670     0.5246    -3.1763 C.3     
  49 C49            1.7839    -0.1200    -4.4640 C.3     
  50 F50            3.0638    -0.6402    -4.2438 F       
  51 F51            0.9209    -1.1520    -4.8479 F       
  52 C52            6.6883    -3.6389    -0.1444 C.1     
  53 N53            7.7855    -3.9309    -0.1075 N.1     
  54 H54            0.7187     2.0410    -1.4892 H       
  55 H55            0.4055    -1.1586     2.2460 H       
  56 H56           -0.1012     1.2218     2.6146 H       
  57 H57            0.0536     2.8199     0.7493 H       
  58 H58            0.6715    -2.4091    -2.1531 H       
  59 H59            0.5060    -3.9751    -1.3232 H       
  60 H60           -3.5985    -2.1763    -0.8194 H       
  61 H61           -3.7448    -2.0605    -2.5921 H       
  62 H62           -4.0518    -4.5816    -0.8965 H       
  63 H63           -5.3452    -3.7247    -1.7700 H       
  64 H64           -4.1759    -4.1769    -3.9197 H       
  65 H65           -2.2673    -5.7636    -2.1424 H       
  66 H66           -2.2617    -5.7672    -3.9229 H       
  67 H67           -1.7747    -3.3632    -3.9720 H       
  68 H68           -0.5733    -4.1732    -2.9338 H       
  69 H69           -4.9280    -6.1194    -5.1673 H       
  70 H70           -3.5398    -6.9737    -4.4513 H       
  71 H71           -5.2917    -8.5619    -5.2359 H       
  72 H72           -5.0622    -8.6554    -3.4729 H       
  73 H73           -8.0831    -6.7288    -2.7134 H       
  74 H74           -6.6949    -7.5831    -1.9974 H       
  75 H75           -6.3312    -5.1406    -1.9288 H       
  76 H76           -6.5608    -5.0471    -3.6918 H       
  77 H77            3.1297    -1.4522    -2.0415 H       
  78 H78            4.7884    -4.3787     1.5760 H       
  79 H79            3.8977    -6.9747     2.8243 H       
  80 H80            3.5132    -9.2892     2.0811 H       
  81 H81           -0.5310    -8.3233     1.1345 H       
  82 H82           -1.4880    -6.6349     0.3451 H       
  83 H83           -1.9817    -7.0826     1.9956 H       
  84 H84           -2.7445    -4.7578     2.3980 H       
  85 H85           -2.2508    -4.3101     0.7475 H       
  86 H86           -3.5780    -5.4699     0.9957 H       
  87 H87            0.2434     0.8676    -3.3272 H       
  88 H88            1.8997     1.3729    -2.9152 H       
  89 H89            1.8274     0.6300    -5.2537 H       
@<TRIPOS>BOND
   1    1   31 1
   2    2    3 ar
   3    2    7 ar
   4    2   54 1
   5    3    4 ar
   6    3   47 1
   7    4    5 ar
   8    4    8 1
   9    5    6 ar
  10    5   55 1
  11    6    7 ar
  12    6   56 1
  13    7   57 1
  14    8    9 1
  15    8   10 1
  16    8   28 1
  17    9   26 2
  18    9   27 am
  19   10   11 1
  20   10   58 1
  21   10   59 1
  22   11   12 am
  23   11   13 2
  24   12   14 1
  25   12   18 1
  26   14   15 1
  27   14   60 1
  28   14   61 1
  29   15   16 1
  30   15   62 1
  31   15   63 1
  32   16   17 1
  33   16   19 1
  34   16   64 1
  35   17   18 1
  36   17   65 1
  37   17   66 1
  38   18   67 1
  39   18   68 1
  40   19   20 1
  41   19   24 1
  42   20   21 1
  43   20   69 1
  44   20   70 1
  45   21   22 1
  46   21   71 1
  47   21   72 1
  48   22   23 1
  49   22   25 1
  50   23   24 1
  51   23   73 1
  52   23   74 1
  53   24   75 1
  54   24   76 1
  55   27   44 am
  56   27   29 1
  57   28   29 ar
  58   28   30 ar
  59   29   33 ar
  60   30   31 ar
  61   30   77 1
  62   31   32 ar
  63   32   33 ar
  64   32   52 1
  65   33   78 1
  66   34   35 ar
  67   34   36 ar
  68   34   44 1
  69   35   41 1
  70   35   39 ar
  71   36   37 ar
  72   36   79 1
  73   37   38 ar
  74   37   80 1
  75   38   39 ar
  76   38   40 1
  77   39   81 1
  78   41   42 1
  79   42   43 1
  80   42   82 1
  81   42   83 1
  82   43   84 1
  83   43   85 1
  84   43   86 1
  85   44   45 2
  86   44   46 2
  87   47   48 1
  88   48   49 1
  89   48   87 1
  90   48   88 1
  91   49   50 1
  92   49   51 1
  93   49   89 1
  94   52   53 3

#	End of record

