#	Name: ASD05490040
#	Creating user name:	WinNT
#	Creation time:	15. 06. 2019 21:01

#	Modifying user name:	WinNT
#	Modification time:	15. 06. 2019 21:01

#	Program:	/corina/corina34_cracker 3.40 0067  02.08.2006

@<TRIPOS>MOLECULE
ASD05490040
  66   70    0    0    0
SMALL
NO_CHARGES


@<TRIPOS>ATOM
   1 O1            -0.0173     1.4248     0.0099 O.3     
   2 N2             2.7162     5.3699     0.0053 N.am    
   3 N3             2.2880     1.3303    -0.0126 N.ar    
   4 C4             3.4867     1.9104    -0.0211 C.ar    
   5 C5             1.1817     2.0564     0.0018 C.ar    
   6 N6             1.2086     3.3789     0.0091 N.ar    
   7 C7             2.3660     4.0319     0.0015 C.ar    
   8 C8             3.5555     3.3024    -0.0142 C.ar    
   9 N9             4.6434     1.1447    -0.0366 N.pl3   
  10 C10            4.0594     5.4635    -0.0126 C.2     
  11 N11            4.5983     4.2283    -0.0196 N.am    
  12 O12            4.6902     6.5042    -0.0150 O.2     
  13 C13            1.7812     6.4976     0.0199 C.3     
  14 C14            1.4739     6.8769     1.4457 C.ar    
  15 C15            0.4135     6.2806     2.1040 C.ar    
  16 C16            0.0021    -0.0041     0.0020 C.3     
  17 C17           -1.4333    -0.5336     0.0129 C.3     
  18 C18           -1.4126    -2.0635     0.0045 C.3     
  19 C19           -2.8479    -2.5931     0.0153 C.3     
  20 C20            2.2566     7.8158     2.0930 C.ar    
  21 C21            1.9799     8.1665     3.3989 C.ar    
  22 C22            0.9095     7.5732     4.0650 C.ar    
  23 C23            0.1275     6.6242     3.4098 C.ar    
  24 C24            0.6071     7.9463     5.4691 C.ar    
  25 C25           -0.4644     7.3567     6.1456 C.ar    
  26 C26            1.3902     8.8856     6.1362 C.ar    
  27 N27            1.1230     9.2175     7.3829 N.ar    
  28 C28            0.1157     8.6823     8.0450 C.ar    
  29 C29           -0.7049     7.7387     7.4540 C.ar    
  30 C30           -0.1414     9.1010     9.4696 C.3     
  31 N31            0.6983     8.3037    10.3735 N.3     
  32 C32            0.6544     8.8402    11.7462 C.3     
  33 C33            0.1824     7.6969    12.6690 C.3     
  34 C34            0.5308     6.4236    11.8541 C.3     
  35 C35            0.2535     6.8941    10.4045 C.3     
  36 H36            4.5841     0.1765    -0.0414 H       
  37 H37            5.5114     1.5775    -0.0427 H       
  38 H38            5.5456     4.0197    -0.0267 H       
  39 H39            2.2297     7.3481    -0.4936 H       
  40 H40            0.8594     6.2120    -0.4868 H       
  41 H41           -0.1920     5.5452     1.5952 H       
  42 H42            0.5123    -0.3556    -0.8948 H       
  43 H43            0.5293    -0.3651     0.8851 H       
  44 H44           -1.9435    -0.1821     0.9097 H       
  45 H45           -1.9605    -0.1726    -0.8702 H       
  46 H46           -0.9024    -2.4150    -0.8923 H       
  47 H47           -0.8854    -2.4246     0.8875 H       
  48 H48           -3.3581    -2.2415     0.9121 H       
  49 H49           -3.3751    -2.2320    -0.8677 H       
  50 H50           -2.8332    -3.6829     0.0093 H       
  51 H51            3.0860     8.2750     1.5758 H       
  52 H52            2.5921     8.8992     3.9037 H       
  53 H53           -0.7036     6.1615     3.9214 H       
  54 H54           -1.0891     6.6219     5.6595 H       
  55 H55            2.2240     9.3458     5.6268 H       
  56 H56           -1.5270     7.3078     8.0061 H       
  57 H57            0.0997    10.1575     9.5870 H       
  58 H58           -1.1917     8.9390     9.7120 H       
  59 H59            1.6482     9.1726    12.0463 H       
  60 H60           -0.0483     9.6719    11.7970 H       
  61 H61            0.7286     7.7124    13.6121 H       
  62 H62           -0.8917     7.7610    12.8434 H       
  63 H63            1.5786     6.1522    11.9828 H       
  64 H64           -0.1221     5.5945    12.1271 H       
  65 H65           -0.8113     6.8272    10.1810 H       
  66 H66            0.8290     6.2989     9.6957 H       
@<TRIPOS>BOND
   1    1   16 1
   2    1    5 1
   3    2   13 1
   4    2    7 1
   5    2   10 am
   6    3    4 ar
   7    3    5 ar
   8    4    9 1
   9    4    8 ar
  10    5    6 ar
  11    6    7 ar
  12    7    8 ar
  13    8   11 1
  14    9   36 1
  15    9   37 1
  16   10   11 am
  17   10   12 2
  18   11   38 1
  19   13   14 1
  20   13   39 1
  21   13   40 1
  22   14   20 ar
  23   14   15 ar
  24   15   23 ar
  25   15   41 1
  26   16   17 1
  27   16   42 1
  28   16   43 1
  29   17   18 1
  30   17   44 1
  31   17   45 1
  32   18   19 1
  33   18   46 1
  34   18   47 1
  35   19   48 1
  36   19   49 1
  37   19   50 1
  38   20   21 ar
  39   20   51 1
  40   21   22 ar
  41   21   52 1
  42   22   23 ar
  43   22   24 1
  44   23   53 1
  45   24   25 ar
  46   24   26 ar
  47   25   29 ar
  48   25   54 1
  49   26   27 ar
  50   26   55 1
  51   27   28 ar
  52   28   29 ar
  53   28   30 1
  54   29   56 1
  55   30   31 1
  56   30   57 1
  57   30   58 1
  58   31   32 1
  59   31   35 1
  60   32   33 1
  61   32   59 1
  62   32   60 1
  63   33   34 1
  64   33   61 1
  65   33   62 1
  66   34   35 1
  67   34   63 1
  68   34   64 1
  69   35   65 1
  70   35   66 1

#	End of record

