#	Name: ASD02800002
#	Creating user name:	WinNT
#	Creation time:	15. 06. 2019 20:26

#	Modifying user name:	WinNT
#	Modification time:	15. 06. 2019 20:26

#	Program:	/corina/corina34_cracker 3.40 0067  02.08.2006

@<TRIPOS>MOLECULE
ASD02800002
  44   45    0    0    0
SMALL
NO_CHARGES


@<TRIPOS>ATOM
   1 O1            -0.0175     1.4400     0.0100 O.3     
   2 C2             0.0021    -0.0041     0.0020 C.3     
   3 C3             1.3704     1.8394    -0.0011 C.3     
   4 C4             1.1520    -0.3885     0.9592 C.3     
   5 C5             2.0729     0.8522     0.9571 C.3     
   6 O6             0.6481    -0.6358     2.2734 O.3     
   7 C7            -1.3278    -0.5576     0.5178 C.3     
   8 O8            -2.3700    -0.2279    -0.4027 O.3     
   9 P9            -3.9061    -0.6539    -0.1772 P.3     
  10 O10           -4.3650    -0.1654     1.1423 O.2     
  11 O11           -4.8180    -0.0070    -1.3357 O.3     
  12 O12           -4.0313    -2.2582    -0.2287 O.3     
  13 P13           -6.3913     0.3041    -1.4779 P.3     
  14 O14           -6.7675     0.4670    -3.0349 O.3     
  15 P15           -8.1524     0.4755    -3.8558 P.3     
  16 O16           -7.8591     0.1573    -5.4065 O.3     
  17 O17           -7.1695    -0.8125    -0.8965 O.2     
  18 O18           -6.7417     1.6670    -0.6957 O.3     
  19 O19           -9.0596    -0.5553    -3.3037 O.2     
  20 O20           -8.8439     1.9237    -3.7267 O.3     
  21 N21            1.5098     3.2128     0.4894 N.am    
  22 C22            0.9869     3.5541     1.6814 C.2     
  23 N23            1.0984     4.7952     2.1515 N.2     
  24 C24            1.7306     5.7297     1.4538 C.2     
  25 C25            2.2907     5.4049     0.2005 C.2     
  26 C26            2.1733     4.1371    -0.2616 C.2     
  27 O27            0.4007     2.7128     2.3423 O.2     
  28 N28            1.8390     7.0085     1.9496 N.pl3   
  29 Br29           3.1967     6.7174    -0.8156 Br      
  30 H30            0.2045    -0.3753    -1.0026 H       
  31 H31            1.7827     1.7510    -1.0063 H       
  32 H32            1.6861    -1.2612     0.5835 H       
  33 H33            3.0622     0.5929     0.5803 H       
  34 H34            2.1438     1.2770     1.9584 H       
  35 H35            1.3281    -0.8813     2.9156 H       
  36 H36           -1.2574    -1.6411     0.6141 H       
  37 H37           -1.5506    -0.1200     1.4909 H       
  38 H38           -3.7471    -2.6482    -1.0667 H       
  39 H39           -8.6503     0.1463    -5.9623 H       
  40 H40           -6.2666     2.4424    -1.0245 H       
  41 H41           -8.3044     2.6492    -4.0697 H       
  42 H42            2.5938     3.8634    -1.2180 H       
  43 H43            1.4526     7.2289     2.8116 H       
  44 H44            2.3019     7.6897     1.4371 H       
@<TRIPOS>BOND
   1    1    2 1
   2    1    3 1
   3    2    4 1
   4    2    7 1
   5    2   30 1
   6    3    5 1
   7    3   21 1
   8    3   31 1
   9    4    5 1
  10    4    6 1
  11    4   32 1
  12    5   33 1
  13    5   34 1
  14    6   35 1
  15    7    8 1
  16    7   36 1
  17    7   37 1
  18    8    9 1
  19    9   10 2
  20    9   11 1
  21    9   12 1
  22   11   13 1
  23   12   38 1
  24   13   14 1
  25   13   17 2
  26   13   18 1
  27   14   15 1
  28   15   16 1
  29   15   19 2
  30   15   20 1
  31   16   39 1
  32   18   40 1
  33   20   41 1
  34   21   22 am
  35   21   26 1
  36   22   23 1
  37   22   27 2
  38   23   24 2
  39   24   25 1
  40   24   28 1
  41   25   26 2
  42   25   29 1
  43   26   42 1
  44   28   43 1
  45   28   44 1

#	End of record

