#	Name: ASD03091178
#	Creating user name:	WinNT
#	Creation time:	15. 06. 2019 20:30

#	Modifying user name:	WinNT
#	Modification time:	15. 06. 2019 20:30

#	Program:	/corina/corina34_cracker 3.40 0067  02.08.2006

@<TRIPOS>MOLECULE
ASD03091178
  67   71    0    0    0
SMALL
NO_CHARGES


@<TRIPOS>ATOM
   1 C1            -0.0285     1.4685     0.0326 C.2     
   2 C2             0.0039    -0.0380     0.0105 C.3     
   3 O3             1.0086     2.0974     0.0347 O.2     
   4 N4            -1.2099     2.1171     0.0442 N.am    
   5 C5            -1.2413     3.5816     0.0656 C.3     
   6 C6            -2.5604     4.0722    -0.5345 C.3     
   7 C7            -1.1239     4.0732     1.5097 C.3     
   8 N8             3.3298    -1.0140     1.2303 N.2     
   9 C9             2.0872    -0.6113     1.1701 C.2     
  10 N10            1.3952    -0.4963    -0.0053 N.am    
  11 C11            1.9887    -0.8042    -1.1821 C.2     
  12 C12            3.3864    -1.2594    -1.1385 C.ar    
  13 C13            4.0840    -1.5990    -2.2953 C.ar    
  14 C14            5.3990    -2.0213    -2.1958 C.ar    
  15 C15            6.0208    -2.1069    -0.9499 C.ar    
  16 C16            5.3498    -1.7779     0.1924 C.ar    
  17 C17            4.0212    -1.3474     0.1215 C.ar    
  18 C18            1.3973    -0.2643     2.4304 C.ar    
  19 C19            0.1880    -0.8792     2.7600 C.ar    
  20 C20           -0.4506    -0.5508     3.9377 C.ar    
  21 C21            0.1045     0.3861     4.7915 C.ar    
  22 C22            1.3025     0.9992     4.4709 C.ar    
  23 C23            1.9548     0.6753     3.2990 C.ar    
  24 C24           -1.7560    -1.2135     4.2951 C.3     
  25 F25           -1.5026    -2.3770     5.0295 F       
  26 F26           -2.5293    -0.3364     5.0632 F       
  27 F27           -2.4480    -1.5423     3.1246 F       
  28 O28            1.3882    -0.7082    -2.2367 O.2     
  29 N29            7.1066    -2.0618    -6.1219 N.3     
  30 C30            5.9226    -2.8632    -5.7764 C.3     
  31 C31            5.2420    -2.3085    -4.5347 C.3     
  32 N32            6.1075    -2.3643    -3.3505 N.3     
  33 C33            7.2811    -1.4972    -3.5254 C.3     
  34 C34            8.4561    -2.2973    -4.0676 C.3     
  35 C35            8.3105    -2.6634    -5.5309 C.3     
  36 C36            7.0100    -0.6386    -5.8779 C.3     
  37 C37            6.9007    -0.3144    -4.3970 C.3     
  38 H38           -0.4961    -0.4251     0.8984 H       
  39 H39           -0.5079    -0.3994    -0.8814 H       
  40 H40           -2.0393     1.6142     0.0384 H       
  41 H41           -0.4086     3.9715    -0.5198 H       
  42 H42           -3.3931     3.6823     0.0508 H       
  43 H43           -2.5838     5.1619    -0.5186 H       
  44 H44           -2.6441     3.7220    -1.5633 H       
  45 H45           -1.9566     3.6833     2.0951 H       
  46 H46           -0.1841     3.7237     1.9372 H       
  47 H47           -1.1473     5.1628     1.5256 H       
  48 H48            3.6038    -1.5340    -3.2605 H       
  49 H49            7.0469    -2.4383    -0.8883 H       
  50 H50            5.8444    -1.8499     1.1498 H       
  51 H51           -0.2466    -1.6101     2.0942 H       
  52 H52           -0.3999     0.6402     5.7120 H       
  53 H53            1.7304     1.7296     5.1416 H       
  54 H54            2.8923     1.1513     3.0520 H       
  55 H55            5.2202    -2.8439    -6.6097 H       
  56 H56            6.2280    -3.8926    -5.5889 H       
  57 H57            4.9624    -1.2712    -4.7190 H       
  58 H58            4.3387    -2.8863    -4.3393 H       
  59 H59            7.5604    -1.1065    -2.5469 H       
  60 H60            9.3659    -1.7100    -3.9431 H       
  61 H61            8.5528    -3.2140    -3.4860 H       
  62 H62            8.2479    -3.7477    -5.6219 H       
  63 H63            9.1875    -2.3120    -6.0746 H       
  64 H64            7.8963    -0.1497    -6.2823 H       
  65 H65            6.1296    -0.2510    -6.3905 H       
  66 H66            5.8742    -0.0246    -4.1726 H       
  67 H67            7.5614     0.5217    -4.1677 H       
@<TRIPOS>BOND
   1    1    2 1
   2    1    3 2
   3    1    4 am
   4    2   10 1
   5    2   38 1
   6    2   39 1
   7    4    5 1
   8    4   40 1
   9    5    6 1
  10    5    7 1
  11    5   41 1
  12    6   42 1
  13    6   43 1
  14    6   44 1
  15    7   45 1
  16    7   46 1
  17    7   47 1
  18    8    9 2
  19    8   17 1
  20    9   10 1
  21    9   18 1
  22   10   11 am
  23   11   12 1
  24   11   28 2
  25   12   13 ar
  26   12   17 ar
  27   13   14 ar
  28   13   48 1
  29   14   15 ar
  30   14   32 1
  31   15   16 ar
  32   15   49 1
  33   16   17 ar
  34   16   50 1
  35   18   19 ar
  36   18   23 ar
  37   19   20 ar
  38   19   51 1
  39   20   21 ar
  40   20   24 1
  41   21   22 ar
  42   21   52 1
  43   22   23 ar
  44   22   53 1
  45   23   54 1
  46   24   25 1
  47   24   26 1
  48   24   27 1
  49   29   30 1
  50   29   35 1
  51   29   36 1
  52   30   31 1
  53   30   55 1
  54   30   56 1
  55   31   32 1
  56   31   57 1
  57   31   58 1
  58   32   33 1
  59   33   34 1
  60   33   37 1
  61   33   59 1
  62   34   35 1
  63   34   60 1
  64   34   61 1
  65   35   62 1
  66   35   63 1
  67   36   37 1
  68   36   64 1
  69   36   65 1
  70   37   66 1
  71   37   67 1

#	End of record

