#	Name: ASD01411017
#	Creating user name:	WinNT
#	Creation time:	15. 06. 2019 19:19

#	Modifying user name:	WinNT
#	Modification time:	15. 06. 2019 19:19

#	Program:	/corina/corina34_cracker 3.40 0067  02.08.2006

@<TRIPOS>MOLECULE
ASD01411017
  73   78    0    0    0
SMALL
NO_CHARGES


@<TRIPOS>ATOM
   1 C1            -0.3639     3.4714    -0.1029 C.ar    
   2 C2            -0.0011     2.2685     0.5318 C.ar    
   3 C3            -0.9796     1.3575     0.9126 C.ar    
   4 C4            -2.2964     1.6246     0.6727 C.ar    
   5 C5            -2.6759     2.8168     0.0420 C.ar    
   6 C6            -1.7112     3.7433    -0.3415 C.ar    
   7 N7             0.7819     4.1531    -0.3549 N.2     
   8 C8             1.8082     3.4603     0.0758 C.2     
   9 N9             1.3746     2.2865     0.6324 N.pl3   
  10 C10            2.2157     1.2436     1.2251 C.3     
  11 C11            1.7908     1.0091     2.6760 C.3     
  12 C12            2.6692    -0.0800     3.2950 C.3     
  13 C13            2.5085    -1.3776     2.5005 C.3     
  14 C14            2.9335    -1.1431     1.0495 C.3     
  15 C15            2.0551    -0.0540     0.4305 C.3     
  16 C16           -4.1042     3.0932    -0.2115 C.2     
  17 O17           -4.4354     4.1272    -0.7586 O.2     
  18 N18           -5.0405     2.1993     0.1635 N.am    
  19 C19           -6.4620     2.5284     0.0312 C.3     
  20 C20           -6.8699     2.7983    -1.3942 C.2     
  21 O21           -7.7316     3.6175    -1.6335 O.2     
  22 C22            3.2206     3.8823    -0.0247 C.2     
  23 C23           -7.3922     1.5464     0.7628 C.3     
  24 C24           -8.2263     2.7695     1.1792 C.3     
  25 C25           -6.9407     3.6019     1.0228 C.3     
  26 N26           -6.2772     2.1293    -2.4030 N.am    
  27 C27           -6.6301     2.4039    -3.7240 C.ar    
  28 C28           -6.4834     1.4223    -4.6997 C.ar    
  29 C29           -6.8298     1.6889    -6.0045 C.ar    
  30 C30           -7.3309     2.9498    -6.3498 C.ar    
  31 C31           -7.4772     3.9341    -5.3649 C.ar    
  32 C32           -7.1331     3.6568    -4.0616 C.ar    
  33 C33           -7.7017     3.2395    -7.7419 C.2     
  34 C34           -8.1851     4.4569    -8.0729 C.2     
  35 C35            4.3901     3.0216    -0.2470 C.2     
  36 C36            5.4539     3.8405    -0.2656 C.2     
  37 O37            5.0391     5.1026    -0.0769 O.3     
  38 C38            3.7083     5.1505     0.0637 C.2     
  39 C39           -8.5429     4.7363    -9.4160 C.2     
  40 O40           -8.4147     3.8800   -10.2704 O.2     
  41 O41           -9.0257     5.9522    -9.7466 O.3     
  42 H42           -0.6970     0.4357     1.3993 H       
  43 H43           -3.0511     0.9118     0.9707 H       
  44 H44           -2.0027     4.6628    -0.8273 H       
  45 H45            3.2587     1.5593     1.1984 H       
  46 H46            1.9052     1.9335     3.2421 H       
  47 H47            0.7478     0.6935     2.7027 H       
  48 H48            3.7122     0.2356     3.2684 H       
  49 H49            2.3665    -0.2471     4.3287 H       
  50 H50            3.1343    -2.1535     2.9414 H       
  51 H51            1.4656    -1.6932     2.5271 H       
  52 H52            3.9764    -0.8275     1.0228 H       
  53 H53            2.8190    -2.0675     0.4834 H       
  54 H54            1.0121    -0.3696     0.4572 H       
  55 H55            2.3578     0.1131    -0.6032 H       
  56 H56           -4.7733     1.3381     0.5210 H       
  57 H57           -7.9197     0.8650     0.0953 H       
  58 H58           -6.9168     1.0364     1.6006 H       
  59 H59           -9.0045     3.0317     0.4625 H       
  60 H60           -8.5930     2.7193     2.2044 H       
  61 H61           -6.3411     3.6543     1.9316 H       
  62 H62           -7.1053     4.5779     0.5662 H       
  63 H63           -5.6053     1.4568    -2.2102 H       
  64 H64           -6.0967     0.4500    -4.4323 H       
  65 H65           -6.7149     0.9268    -6.7611 H       
  66 H66           -7.8630     4.9083    -5.6268 H       
  67 H67           -7.2459     4.4153    -3.3011 H       
  68 H68           -7.5879     2.4792    -8.5004 H       
  69 H69           -8.2990     5.2172    -7.3143 H       
  70 H70            4.3935     1.9487    -0.3705 H       
  71 H71            6.4791     3.5327    -0.4093 H       
  72 H72            3.1221     6.0427     0.2268 H       
  73 H73           -9.2413     6.0481   -10.6843 H       
@<TRIPOS>BOND
   1    1    2 ar
   2    1    7 1
   3    1    6 ar
   4    2    3 ar
   5    2    9 1
   6    3    4 ar
   7    3   42 1
   8    4    5 ar
   9    4   43 1
  10    5    6 ar
  11    5   16 1
  12    6   44 1
  13    7    8 2
  14    8    9 1
  15    8   22 1
  16    9   10 1
  17   10   11 1
  18   10   15 1
  19   10   45 1
  20   11   12 1
  21   11   46 1
  22   11   47 1
  23   12   13 1
  24   12   48 1
  25   12   49 1
  26   13   14 1
  27   13   50 1
  28   13   51 1
  29   14   15 1
  30   14   52 1
  31   14   53 1
  32   15   54 1
  33   15   55 1
  34   16   17 2
  35   16   18 am
  36   18   19 1
  37   18   56 1
  38   19   20 1
  39   19   23 1
  40   19   25 1
  41   20   21 2
  42   20   26 am
  43   22   35 1
  44   22   38 2
  45   23   24 1
  46   23   57 1
  47   23   58 1
  48   24   25 1
  49   24   59 1
  50   24   60 1
  51   25   61 1
  52   25   62 1
  53   26   27 1
  54   26   63 1
  55   27   28 ar
  56   27   32 ar
  57   28   29 ar
  58   28   64 1
  59   29   30 ar
  60   29   65 1
  61   30   31 ar
  62   30   33 1
  63   31   32 ar
  64   31   66 1
  65   32   67 1
  66   33   34 2
  67   33   68 1
  68   34   39 1
  69   34   69 1
  70   35   36 2
  71   35   70 1
  72   36   37 1
  73   36   71 1
  74   37   38 1
  75   38   72 1
  76   39   40 2
  77   39   41 1
  78   41   73 1

#	End of record

