#	Name: ASD05313057
#	Creating user name:	WinNT
#	Creation time:	15. 06. 2019 20:58

#	Modifying user name:	WinNT
#	Modification time:	15. 06. 2019 20:58

#	Program:	/corina/corina34_cracker 3.40 0067  02.08.2006

@<TRIPOS>MOLECULE
ASD05313057
  38   41    0    0    0
SMALL
NO_CHARGES


@<TRIPOS>ATOM
   1 C1            -0.0722     0.8174     1.0239 C.2     
   2 C2             0.1138    -0.6189     0.5964 C.3     
   3 N3             0.9305     1.7309     1.0502 N.pl3   
   4 N4             1.4570    -0.7183    -0.0053 N.am    
   5 C5             2.5713    -0.0368     0.6707 C.3     
   6 C6             2.3172     1.4753     0.6641 C.3     
   7 N7            -0.9039     2.6405     1.7078 N.2     
   8 N8            -1.1569     1.4084     1.4265 N.2     
   9 C9             0.3721     2.8906     1.4945 C.2     
  10 C10            1.0648     4.1810     1.7009 C.ar    
  11 C11            0.3478     5.2843     2.1643 C.ar    
  12 C12            1.0087     6.4847     2.3531 C.ar    
  13 C13            2.3687     6.5445     2.0721 C.ar    
  14 C14            3.0180     5.4093     1.6146 C.ar    
  15 N15            2.3648     4.2779     1.4487 N.ar    
  16 F16            3.0506     7.6983     2.2429 F       
  17 C17            1.6574    -1.4141    -1.1421 C.2     
  18 O18            2.7491    -1.4035    -1.6767 O.2     
  19 C19            0.5501    -2.1900    -1.7384 C.ar    
  20 C20            0.3186    -2.1379    -3.1152 C.ar    
  21 C21           -0.7192    -2.8665    -3.6655 C.ar    
  22 C22           -1.5271    -3.6451    -2.8549 C.ar    
  23 C23           -1.3021    -3.6995    -1.4908 C.ar    
  24 C24           -0.2658    -2.9827    -0.9294 C.ar    
  25 Cl25          -1.0102    -2.8045    -5.3758 Cl      
  26 Cl26           1.3311    -1.1605    -4.1319 Cl      
  27 H27            0.0447    -1.2768     1.4627 H       
  28 H28           -0.6441    -0.8894    -0.1388 H       
  29 H29            2.6432    -0.3893     1.6996 H       
  30 H30            3.5020    -0.2519     0.1456 H       
  31 H31            2.4954     1.8700    -0.3362 H       
  32 H32            2.9880     1.9607     1.3730 H       
  33 H33           -0.7088     5.2025     2.3724 H       
  34 H34            0.4798     7.3559     2.7105 H       
  35 H35            4.0746     5.4518     1.3948 H       
  36 H36           -2.3370    -4.2124    -3.2892 H       
  37 H37           -1.9366    -4.3089    -0.8643 H       
  38 H38           -0.0892    -3.0307     0.1350 H       
@<TRIPOS>BOND
   1    1    2 1
   2    1    3 1
   3    1    8 2
   4    2    4 1
   5    2   27 1
   6    2   28 1
   7    3    6 1
   8    3    9 1
   9    4    5 1
  10    4   17 am
  11    5    6 1
  12    5   29 1
  13    5   30 1
  14    6   31 1
  15    6   32 1
  16    7    8 1
  17    7    9 2
  18    9   10 1
  19   10   11 ar
  20   10   15 ar
  21   11   12 ar
  22   11   33 1
  23   12   13 ar
  24   12   34 1
  25   13   14 ar
  26   13   16 1
  27   14   15 ar
  28   14   35 1
  29   17   18 2
  30   17   19 1
  31   19   20 ar
  32   19   24 ar
  33   20   21 ar
  34   20   26 1
  35   21   22 ar
  36   21   25 1
  37   22   23 ar
  38   22   36 1
  39   23   24 ar
  40   23   37 1
  41   24   38 1

#	End of record

