#	Name: ASD01208439
#	Creating user name:	WinNT
#	Creation time:	15. 06. 2019 19:09

#	Modifying user name:	WinNT
#	Modification time:	15. 06. 2019 19:09

#	Program:	/corina/corina34_cracker 3.40 0067  02.08.2006

@<TRIPOS>MOLECULE
ASD01208439
  39   40    0    0    0
SMALL
NO_CHARGES


@<TRIPOS>ATOM
   1 N1            -0.0165     1.3653     0.0095 N.am    
   2 C2             0.0021    -0.0041     0.0020 C.2     
   3 C3             1.2885    -0.4145    -0.0125 C.2     
   4 C4             2.1065     0.7279    -0.0141 C.2     
   5 C5             1.2876     1.8182    -0.0005 C.2     
   6 C6            -1.1200     2.1390     0.0192 C.2     
   7 O7            -1.6117     2.4822     1.0751 O.2     
   8 O8            -1.6769     2.5312    -1.1413 O.3     
   9 S9             0.6435     4.6218     0.0203 S.3     
  10 C10            1.7170     3.2250     0.0026 C.2     
  11 N11            2.9544     3.6394    -0.0070 N.2     
  12 C12            3.1473     4.9387    -0.0019 C.2     
  13 C13            2.0435     5.6923     0.0127 C.2     
  14 C14            4.5280     5.5425    -0.0118 C.3     
  15 C15            5.3382     4.9820     1.1588 C.3     
  16 O16            6.6056     5.6394     1.2190 O.3     
  17 O17            5.1807     5.2187    -1.2412 O.3     
  18 Br18          -1.5172    -1.1300     0.0110 Br      
  19 C19           -2.8637     3.3632    -1.0550 C.3     
  20 C20           -2.5288     4.6530    -0.3032 C.3     
  21 C21           -3.3498     3.7061    -2.4646 C.3     
  22 C22           -3.9632     2.6073    -0.3062 C.3     
  23 H23            1.6284    -1.4396    -0.0209 H       
  24 H24            3.1864     0.7402    -0.0239 H       
  25 H25            2.0145     6.7719     0.0188 H       
  26 H26            4.4517     6.6255     0.0847 H       
  27 H27            4.7966     5.1510     2.0894 H       
  28 H28            5.4903     3.9121     1.0161 H       
  29 H29            7.1736     5.3334     1.9393 H       
  30 H30            5.2833     4.2694    -1.3938 H       
  31 H31           -1.7455     5.1916    -0.8366 H       
  32 H32           -3.4197     5.2776    -0.2384 H       
  33 H33           -2.1825     4.4087     0.7011 H       
  34 H34           -3.5885     2.7873    -3.0002 H       
  35 H35           -4.2408     4.3307    -2.3998 H       
  36 H36           -2.5666     4.2447    -2.9981 H       
  37 H37           -3.6168     2.3630     0.6981 H       
  38 H38           -4.8541     3.2319    -0.2414 H       
  39 H39           -4.2018     1.6884    -0.8418 H       
@<TRIPOS>BOND
   1    1    2 1
   2    1    5 1
   3    1    6 am
   4    2    3 2
   5    2   18 1
   6    3    4 1
   7    3   23 1
   8    4    5 2
   9    4   24 1
  10    5   10 1
  11    6    7 2
  12    6    8 1
  13    8   19 1
  14    9   10 1
  15    9   13 1
  16   10   11 2
  17   11   12 1
  18   12   13 2
  19   12   14 1
  20   13   25 1
  21   14   15 1
  22   14   17 1
  23   14   26 1
  24   15   16 1
  25   15   27 1
  26   15   28 1
  27   16   29 1
  28   17   30 1
  29   19   20 1
  30   19   22 1
  31   19   21 1
  32   20   31 1
  33   20   32 1
  34   20   33 1
  35   21   34 1
  36   21   35 1
  37   21   36 1
  38   22   37 1
  39   22   38 1
  40   22   39 1

#	End of record

