#	Name: ASD01680017
#	Creating user name:	WinNT
#	Creation time:	15. 06. 2019 19:22

#	Modifying user name:	WinNT
#	Modification time:	15. 06. 2019 19:22

#	Program:	/corina/corina34_cracker 3.40 0067  02.08.2006

@<TRIPOS>MOLECULE
ASD01680017
  75   78    0    0    0
SMALL
NO_CHARGES


@<TRIPOS>ATOM
   1 N1             0.0443     1.4003     0.1639 N.am    
   2 C2             0.0202    -0.0651     0.0040 C.3     
   3 C3             1.4291    -0.5353     0.4437 C.3     
   4 C4             2.3236     0.6096    -0.1008 C.3     
   5 C5             1.4389     1.8597     0.0895 C.3     
   6 C6            -1.0340     2.1887     0.3429 C.2     
   7 O7            -2.1506     1.7126     0.2882 O.2     
   8 O8            -0.8739     3.5040     0.5822 O.3     
   9 C9            -1.0521    -0.6815     0.9047 C.3     
  10 N10           -0.8422    -0.2404     2.2859 N.pl3   
  11 C11           -1.7546    -0.5918     3.2739 C.ar    
  12 C12           -2.8650    -1.3628     2.9444 C.ar    
  13 C13           -3.7646    -1.7052     3.9374 C.ar    
  14 C14           -3.5230    -1.2636     5.2317 C.ar    
  15 C15           -2.4009    -0.5017     5.4877 C.ar    
  16 N16           -1.5563    -0.1946     4.5212 N.ar    
  17 O17            3.5255     0.7196     0.6643 O.3     
  18 C18            4.6461     1.2020    -0.0798 C.3     
  19 C19            5.8521     1.2778     0.8208 C.2     
  20 N20            7.0319     1.7088     0.3322 N.am    
  21 O21            5.7609     0.9509     1.9851 O.2     
  22 C22            8.2042     1.7825     1.2076 C.3     
  23 C23            9.4040     2.2989     0.4109 C.3     
  24 N24            9.0607     3.5785    -0.2145 N.am    
  25 C25            9.7077     3.9801    -1.3265 C.2     
  26 O26           10.5771     3.2799    -1.8110 O.2     
  27 C27            9.3641     5.2604    -1.9522 C.2     
  28 C28            9.9459     5.7745    -3.0767 C.2     
  29 C29            9.4313     6.9946    -3.4458 C.2     
  30 C30            8.4616     7.4652    -2.6527 C.2     
  31 S31            8.1321     6.3771    -1.3805 S.3     
  32 C32           11.0429     5.0739    -3.8362 C.3     
  33 C33           10.5770     2.4913     1.3373 C.2     
  34 O34           11.0750     3.5851     1.4624 O.2     
  35 O35           11.0684     1.4477     2.0236 O.3     
  36 C36           -2.0796     4.2922     0.7649 C.3     
  37 C37           -1.7060     5.7297     1.0205 C.ar    
  38 C38           -1.5702     6.6073    -0.0389 C.ar    
  39 C39           -1.2275     7.9258     0.1955 C.ar    
  40 C40           -1.0210     8.3668     1.4893 C.ar    
  41 C41           -1.1577     7.4894     2.5487 C.ar    
  42 C42           -1.5046     6.1719     2.3146 C.ar    
  43 H43           -0.1602    -0.3301    -1.0378 H       
  44 H44            1.4976    -0.6018     1.5295 H       
  45 H45            1.6863    -1.4869    -0.0214 H       
  46 H46            2.5496     0.4540    -1.1557 H       
  47 H47            1.5624     2.5337    -0.7582 H       
  48 H48            1.7111     2.3693     1.0138 H       
  49 H49           -2.0379    -0.3618     0.5670 H       
  50 H50           -0.9863    -1.7684     0.8564 H       
  51 H51           -0.0666     0.2970     2.5108 H       
  52 H52           -3.0223    -1.6890     1.9269 H       
  53 H53           -4.6357    -2.3023     3.7113 H       
  54 H54           -4.2064    -1.5134     6.0298 H       
  55 H55           -2.2091    -0.1562     6.4929 H       
  56 H56            4.8524     0.5229    -0.9070 H       
  57 H57            4.4222     2.1943    -0.4715 H       
  58 H58            7.1048     1.9703    -0.5990 H       
  59 H59            7.9979     2.4616     2.0349 H       
  60 H60            8.4281     0.7902     1.5993 H       
  61 H61            9.6658     1.5757    -0.3614 H       
  62 H62            8.3677     4.1366     0.1718 H       
  63 H63            9.7840     7.5341    -4.3124 H       
  64 H64            7.9527     8.4062    -2.8006 H       
  65 H65           10.6035     4.4321    -4.5998 H       
  66 H66           11.6866     5.8147    -4.3107 H       
  67 H67           11.6321     4.4684    -3.1476 H       
  68 H68           11.8214     1.6201     2.6053 H       
  69 H69           -2.6936     4.2306    -0.1335 H       
  70 H70           -2.6407     3.9059     1.6158 H       
  71 H71           -1.7315     6.2628    -1.0496 H       
  72 H72           -1.1207     8.6114    -0.6322 H       
  73 H73           -0.7525     9.3968     1.6723 H       
  74 H74           -0.9960     7.8338     3.5594 H       
  75 H75           -1.6150     5.4873     3.1425 H       
@<TRIPOS>BOND
   1    1    2 1
   2    1    5 1
   3    1    6 am
   4    2    3 1
   5    2    9 1
   6    2   43 1
   7    3    4 1
   8    3   44 1
   9    3   45 1
  10    4    5 1
  11    4   17 1
  12    4   46 1
  13    5   47 1
  14    5   48 1
  15    6    7 2
  16    6    8 1
  17    8   36 1
  18    9   10 1
  19    9   49 1
  20    9   50 1
  21   10   11 1
  22   10   51 1
  23   11   12 ar
  24   11   16 ar
  25   12   13 ar
  26   12   52 1
  27   13   14 ar
  28   13   53 1
  29   14   15 ar
  30   14   54 1
  31   15   16 ar
  32   15   55 1
  33   17   18 1
  34   18   19 1
  35   18   56 1
  36   18   57 1
  37   19   20 am
  38   19   21 2
  39   20   22 1
  40   20   58 1
  41   22   23 1
  42   22   59 1
  43   22   60 1
  44   23   24 1
  45   23   33 1
  46   23   61 1
  47   24   25 am
  48   24   62 1
  49   25   26 2
  50   25   27 1
  51   27   28 2
  52   27   31 1
  53   28   29 1
  54   28   32 1
  55   29   30 2
  56   29   63 1
  57   30   31 1
  58   30   64 1
  59   32   65 1
  60   32   66 1
  61   32   67 1
  62   33   34 2
  63   33   35 1
  64   35   68 1
  65   36   37 1
  66   36   69 1
  67   36   70 1
  68   37   38 ar
  69   37   42 ar
  70   38   39 ar
  71   38   71 1
  72   39   40 ar
  73   39   72 1
  74   40   41 ar
  75   40   73 1
  76   41   42 ar
  77   41   74 1
  78   42   75 1

#	End of record

