#	Name: ASD01900683
#	Creating user name:	WinNT
#	Creation time:	15. 06. 2019 19:52

#	Modifying user name:	WinNT
#	Modification time:	15. 06. 2019 19:52

#	Program:	/corina/corina34_cracker 3.40 0067  02.08.2006

@<TRIPOS>MOLECULE
ASD01900683
  38   41    0    0    0
SMALL
NO_CHARGES


@<TRIPOS>ATOM
   1 C1            -0.0183     1.4026     0.1326 C.ar    
   2 C2            -0.0082     0.0178     0.1216 C.ar    
   3 C3             1.1830    -0.6776     0.0631 C.ar    
   4 C4             2.3875     0.0114     0.0139 C.ar    
   5 C5             2.3724     1.4127     0.0292 C.ar    
   6 O6             3.5587    -0.6568    -0.0552 O.3     
   7 C7             4.7338    -0.0515     0.1916 C.2     
   8 C8             4.8718     1.2983     0.2222 C.2     
   9 C9             3.6748     2.1255    -0.0108 C.2     
  10 C10            5.9198    -0.8878     0.4395 C.2     
  11 N11            7.1189    -0.3074     0.6913 N.2     
  12 C12            8.1890    -1.0082     0.9154 C.2     
  13 N13            8.1622    -2.3757     0.9086 N.pl3   
  14 C14            6.9694    -3.0311     0.6581 C.2     
  15 C15            5.8108    -2.2682     0.4213 C.2     
  16 C16            1.1701     2.1048     0.0866 C.ar    
  17 C17            9.1281    -3.3144     1.1103 C.2     
  18 C18            8.5773    -4.5474     0.9938 C.2     
  19 C19            7.2176    -4.3900     0.7090 C.2     
  20 C20            6.2129    -5.4931     0.4974 C.3     
  21 C21           10.5762    -3.0284     1.4140 C.3     
  22 N22            3.7548     3.4147    -0.2395 N.2     
  23 O23            2.5959     4.1424    -0.6033 O.3     
  24 H24           -0.9575     1.9344     0.1728 H       
  25 H25           -0.9418    -0.5238     0.1595 H       
  26 H26            1.1779    -1.7576     0.0560 H       
  27 H27            5.8326     1.7536     0.4121 H       
  28 H28            9.1214    -0.4996     1.1113 H       
  29 H29            4.8631    -2.7467     0.2228 H       
  30 H30            1.1641     3.1847     0.0944 H       
  31 H31            9.0979    -5.4874     1.1021 H       
  32 H32            5.7601    -5.7602     1.4523 H       
  33 H33            5.4381    -5.1520    -0.1893 H       
  34 H34            6.7136    -6.3648     0.0762 H       
  35 H35           10.7145    -2.9603     2.4930 H       
  36 H36           11.1962    -3.8328     1.0183 H       
  37 H37           10.8652    -2.0852     0.9504 H       
  38 H38            2.7536     5.0850    -0.7512 H       
@<TRIPOS>BOND
   1    1    2 ar
   2    1   16 ar
   3    1   24 1
   4    2    3 ar
   5    2   25 1
   6    3    4 ar
   7    3   26 1
   8    4    5 ar
   9    4    6 1
  10    5   16 ar
  11    5    9 1
  12    6    7 1
  13    7    8 2
  14    7   10 1
  15    8    9 1
  16    8   27 1
  17    9   22 2
  18   10   11 1
  19   10   15 2
  20   11   12 2
  21   12   13 1
  22   12   28 1
  23   13   14 1
  24   13   17 1
  25   14   15 1
  26   14   19 2
  27   15   29 1
  28   16   30 1
  29   17   18 2
  30   17   21 1
  31   18   19 1
  32   18   31 1
  33   19   20 1
  34   20   32 1
  35   20   33 1
  36   20   34 1
  37   21   35 1
  38   21   36 1
  39   21   37 1
  40   22   23 1
  41   23   38 1

#	End of record

