#	Name: ASD04880390
#	Creating user name:	WinNT
#	Creation time:	15. 06. 2019 20:53

#	Modifying user name:	WinNT
#	Modification time:	15. 06. 2019 20:53

#	Program:	/corina/corina34_cracker 3.40 0067  02.08.2006

@<TRIPOS>MOLECULE
ASD04880390
  52   55    0    0    0
SMALL
NO_CHARGES


@<TRIPOS>ATOM
   1 C1            -0.0119     1.3681    -0.2645 C.ar    
   2 C2             0.0109    -0.0185    -0.3035 C.ar    
   3 C3             1.2264    -0.6993    -0.2920 C.ar    
   4 C4             2.4137     0.0067    -0.2410 C.ar    
   5 C5             2.3911     1.4033    -0.2017 C.ar    
   6 C6             1.1683     2.0793    -0.2139 C.ar    
   7 C7             3.6541     2.1615    -0.1468 C.2     
   8 N8             4.8333     1.6419    -0.1311 N.2     
   9 N9             5.8660     2.5757    -0.0771 N.am    
  10 C10            5.2846     3.9273    -0.0530 C.3     
  11 C11            3.7659     3.6688    -0.1067 C.3     
  12 O12            1.2447    -2.0586    -0.3304 O.3     
  13 C13            7.1824     2.2880    -0.0511 C.2     
  14 C14            9.4063    -0.7421     0.0217 C.ar    
  15 C15            8.9863     0.5701    -0.0709 C.ar    
  16 C16            7.6300     0.8828     0.0478 C.ar    
  17 C17            6.6999    -0.1331     0.2601 C.ar    
  18 C18            7.1306    -1.4551     0.3525 C.ar    
  19 C19            8.4906    -1.7536     0.2319 C.ar    
  20 O20            8.0020     3.1844    -0.1090 O.2     
  21 C21            3.1669     4.2764    -1.3489 C.ar    
  22 C22            2.1267     5.1807    -1.2435 C.ar    
  23 C23            1.5772     5.7381    -2.3829 C.ar    
  24 C24            2.0682     5.3915    -3.6277 C.ar    
  25 C25            3.1090     4.4878    -3.7331 C.ar    
  26 C26            3.6614     3.9338    -2.5935 C.ar    
  27 O27           -1.1556    -0.7147    -0.3528 O.3     
  28 C28            2.5262    -2.6908    -0.3158 C.3     
  29 C29           -2.3652     0.0461    -0.3614 C.3     
  30 C30            6.1820    -2.5054     0.5710 C.1     
  31 N31            5.4294    -3.3385     0.7444 N.1     
  32 H32           -0.9563     1.8919    -0.2781 H       
  33 H33            3.3566    -0.5199    -0.2313 H       
  34 H34            1.1476     3.1587    -0.1839 H       
  35 H35            5.5571     4.4458     0.8662 H       
  36 H36            5.6038     4.4977    -0.9253 H       
  37 H37            3.2810     4.0645     0.7857 H       
  38 H38           10.4557    -0.9786    -0.0749 H       
  39 H39            9.7080     1.3565    -0.2354 H       
  40 H40            5.6502     0.1032     0.3529 H       
  41 H41            8.8259    -2.7777     0.3033 H       
  42 H42            1.7431     5.4515    -0.2709 H       
  43 H43            0.7640     6.4441    -2.3006 H       
  44 H44            1.6384     5.8264    -4.5180 H       
  45 H45            3.4924     4.2168    -4.7057 H       
  46 H46            4.4770     3.2306    -2.6756 H       
  47 H47            3.1017    -2.3655    -1.1824 H       
  48 H48            3.0563    -2.4164     0.5962 H       
  49 H49            2.3980    -3.7727    -0.3500 H       
  50 H50           -2.4219     0.6488     0.5450 H       
  51 H51           -2.3772     0.6996    -1.2337 H       
  52 H52           -3.2193    -0.6299    -0.4022 H       
@<TRIPOS>BOND
   1    1    2 ar
   2    1    6 ar
   3    1   32 1
   4    2    3 ar
   5    2   27 1
   6    3    4 ar
   7    3   12 1
   8    4    5 ar
   9    4   33 1
  10    5    6 ar
  11    5    7 1
  12    6   34 1
  13    7    8 2
  14    7   11 1
  15    8    9 1
  16    9   10 1
  17    9   13 am
  18   10   11 1
  19   10   35 1
  20   10   36 1
  21   11   21 1
  22   11   37 1
  23   12   28 1
  24   13   16 1
  25   13   20 2
  26   14   15 ar
  27   14   19 ar
  28   14   38 1
  29   15   16 ar
  30   15   39 1
  31   16   17 ar
  32   17   18 ar
  33   17   40 1
  34   18   19 ar
  35   18   30 1
  36   19   41 1
  37   21   22 ar
  38   21   26 ar
  39   22   23 ar
  40   22   42 1
  41   23   24 ar
  42   23   43 1
  43   24   25 ar
  44   24   44 1
  45   25   26 ar
  46   25   45 1
  47   26   46 1
  48   27   29 1
  49   28   47 1
  50   28   48 1
  51   28   49 1
  52   29   50 1
  53   29   51 1
  54   29   52 1
  55   30   31 3

#	End of record

