#	Name: ASD05740046
#	Creating user name:	WinNT
#	Creation time:	15. 06. 2019 21:02

#	Modifying user name:	WinNT
#	Modification time:	15. 06. 2019 21:02

#	Program:	/corina/corina34_cracker 3.40 0067  02.08.2006

@<TRIPOS>MOLECULE
ASD05740046
  47   50    0    0    0
SMALL
NO_CHARGES


@<TRIPOS>ATOM
   1 C1             0.3460     1.4963     0.0181 C.3     
   2 C2            -0.1179    -4.1872     2.1914 C.ar    
   3 C3             0.0383    -4.8853     0.9930 C.ar    
   4 N4            -0.0878    -2.8753     2.2212 N.ar    
   5 C5             0.0922    -2.1579     1.1145 C.ar    
   6 C6             0.2568    -2.7916    -0.1293 C.ar    
   7 C7             0.2289    -4.1810    -0.1881 C.ar    
   8 C8             0.1224    -0.6918     1.1679 C.2     
   9 C9             0.3087    -0.0103     0.0098 C.2     
  10 C10            0.4670    -0.7151    -1.2037 C.2     
  11 O11            0.4384    -2.0564    -1.2456 O.3     
  12 C12            1.7764     1.9629     0.1024 C.2     
  13 C13            2.5667     2.2047    -0.9426 C.2     
  14 O14            0.6331    -0.0914    -2.2363 O.2     
  15 O15            0.0047    -6.2424     0.9825 O.3     
  16 C16            0.0014    -6.8695    -0.2191 C.2     
  17 C17           -0.0494     0.0379     2.4752 C.3     
  18 S18            2.6518     2.2776     1.5948 S.3     
  19 C19            4.0900     2.7352     0.6918 C.2     
  20 C20            3.8476     2.6260    -0.6226 C.2     
  21 N21            5.2997     3.1440     1.2565 N.am    
  22 S22            5.3050     4.2356     2.5018 S.o2    
  23 O23            6.6824     4.4275     2.7937 O.2     
  24 O24            4.4996     5.3077     2.0315 O.2     
  25 N25           -0.1047    -6.2758    -1.3655 N.2     
  26 S26            0.1441    -8.5585    -0.4425 S.3     
  27 C27            0.0370    -8.3471    -2.1883 C.2     
  28 C28           -0.0898    -7.0431    -2.4399 C.2     
  29 C29            4.4797     3.3703     3.8659 C.3     
  30 C30            4.4216     4.2863     5.0900 C.3     
  31 H31           -0.1067     1.8760    -0.8979 H       
  32 H32           -0.2090     1.8687     0.8791 H       
  33 H33           -0.2706    -4.7356     3.1091 H       
  34 H34            0.3526    -4.6984    -1.1280 H       
  35 H35            2.2342     2.0812    -1.9626 H       
  36 H36           -0.1856    -0.6850     3.2796 H       
  37 H37            0.8368     0.6404     2.6743 H       
  38 H38           -0.9239     0.6860     2.4174 H       
  39 H39            4.5896     2.8560    -1.3729 H       
  40 H40            6.1369     2.7886     0.9195 H       
  41 H41            0.0721    -9.1351    -2.9260 H       
  42 H42           -0.1755    -6.6474    -3.4411 H       
  43 H43            3.4672     3.1007     3.5654 H       
  44 H44            5.0377     2.4674     4.1138 H       
  45 H45            5.4341     4.5559     5.3904 H       
  46 H46            3.8637     5.1892     4.8420 H       
  47 H47            3.9257     3.7663     5.9097 H       
@<TRIPOS>BOND
   1    1    9 1
   2    1   12 1
   3    1   31 1
   4    1   32 1
   5    2    3 ar
   6    2    4 ar
   7    2   33 1
   8    3   15 1
   9    3    7 ar
  10    4    5 ar
  11    5    6 ar
  12    5    8 1
  13    6    7 ar
  14    6   11 1
  15    7   34 1
  16    8    9 2
  17    8   17 1
  18    9   10 1
  19   10   11 1
  20   10   14 2
  21   12   13 2
  22   12   18 1
  23   13   20 1
  24   13   35 1
  25   15   16 1
  26   16   26 1
  27   16   25 2
  28   17   36 1
  29   17   37 1
  30   17   38 1
  31   18   19 1
  32   19   20 2
  33   19   21 1
  34   20   39 1
  35   21   22 am
  36   21   40 1
  37   22   23 2
  38   22   24 2
  39   22   29 1
  40   25   28 1
  41   26   27 1
  42   27   28 2
  43   27   41 1
  44   28   42 1
  45   29   30 1
  46   29   43 1
  47   29   44 1
  48   30   45 1
  49   30   46 1
  50   30   47 1

#	End of record

