#	Name: ASD07930814
#	Creating user name:	WinNT
#	Creation time:	15. 06. 2019 21:13

#	Modifying user name:	WinNT
#	Modification time:	15. 06. 2019 21:13

#	Program:	/corina/corina34_cracker 3.40 0067  02.08.2006

@<TRIPOS>MOLECULE
ASD07930814
  39   40    0    0    0
SMALL
NO_CHARGES


@<TRIPOS>ATOM
   1 C1            -0.0169     1.3924     0.0097 C.ar    
   2 C2             0.0021    -0.0041     0.0020 C.ar    
   3 N3             1.1294     2.0684     0.0024 N.ar    
   4 N4             1.1552    -0.6451    -0.0124 N.ar    
   5 C5             2.2909     0.0324    -0.0196 C.ar    
   6 C6             2.2772     1.4168    -0.0121 C.ar    
   7 C7            -1.3059     2.1172     0.0197 C.2     
   8 N8            -2.4990     1.5654     0.0228 N.2     
   9 C9            -3.4285     2.5258     0.0323 C.2     
  10 C10           -2.8040     3.7226     0.0352 C.2     
  11 N11           -1.4600     3.4729     0.0333 N.pl3   
  12 C12           -0.3882     4.4716     0.0405 C.3     
  13 O13           -0.9582     5.7819     0.0546 O.3     
  14 C14            0.0070     6.8356     0.0626 C.3     
  15 C15           -0.7121     8.1859     0.0774 C.3     
  16 Si16           0.5463     9.5597     0.0879 Si      
  17 C17            1.6098     9.4392    -1.4370 C.3     
  18 C18           -0.3294    11.2039     0.1059 C.3     
  19 C19            1.6169     9.4096     1.6051 C.3     
  20 H20           -0.9250    -0.5580     0.0083 H       
  21 H21            3.2326    -0.4962    -0.0311 H       
  22 H22            3.2078     1.9648    -0.0180 H       
  23 H23           -4.4973     2.3708     0.0365 H       
  24 H24           -3.2767     4.6936     0.0425 H       
  25 H25            0.2300     4.3347     0.9278 H       
  26 H26            0.2258     4.3521    -0.8521 H       
  27 H27            0.6334     6.7478     0.9503 H       
  28 H28            0.6293     6.7651    -0.8295 H       
  29 H29           -1.3385     8.2738    -0.8103 H       
  30 H30           -1.3344     8.2564     0.9696 H       
  31 H31            0.9834     9.5270    -2.3247 H       
  32 H32            2.3460    10.2429    -1.4309 H       
  33 H33            2.1221     8.4772    -1.4475 H       
  34 H34           -0.9517    11.2744     0.9981 H       
  35 H35            0.4068    12.0076     0.1120 H       
  36 H36           -0.9558    11.2917    -0.7818 H       
  37 H37            2.1292     8.4475     1.5946 H       
  38 H38            2.3531    10.2133     1.6112 H       
  39 H39            0.9946     9.4800     2.4973 H       
@<TRIPOS>BOND
   1    1    2 ar
   2    1    3 ar
   3    1    7 1
   4    2    4 ar
   5    2   20 1
   6    3    6 ar
   7    4    5 ar
   8    5    6 ar
   9    5   21 1
  10    6   22 1
  11    7    8 2
  12    7   11 1
  13    8    9 1
  14    9   10 2
  15    9   23 1
  16   10   11 1
  17   10   24 1
  18   11   12 1
  19   12   13 1
  20   12   25 1
  21   12   26 1
  22   13   14 1
  23   14   15 1
  24   14   27 1
  25   14   28 1
  26   15   16 1
  27   15   29 1
  28   15   30 1
  29   16   17 1
  30   16   18 1
  31   16   19 1
  32   17   31 1
  33   17   32 1
  34   17   33 1
  35   18   34 1
  36   18   35 1
  37   18   36 1
  38   19   37 1
  39   19   38 1
  40   19   39 1

#	End of record

