#	Name: ASD01811775
#	Creating user name:	WinNT
#	Creation time:	15. 06. 2019 19:27

#	Modifying user name:	WinNT
#	Modification time:	15. 06. 2019 19:27

#	Program:	/corina/corina34_cracker 3.40 0067  02.08.2006

@<TRIPOS>MOLECULE
ASD01811775
  59   63    0    0    0
SMALL
NO_CHARGES


@<TRIPOS>ATOM
   1 C1            -0.0167     1.3805     0.0096 C.ar    
   2 C2             0.0021    -0.0041     0.0020 C.ar    
   3 C3            -1.1845    -0.7161     0.0090 C.ar    
   4 C4            -2.3942    -0.0535     0.0241 C.ar    
   5 C5            -2.4213     1.3425     0.0323 C.ar    
   6 C6            -1.2177     2.0512     0.0304 C.ar    
   7 C7             1.2777     2.1522     0.0014 C.3     
   8 C8             1.3184    -0.7376    -0.0144 C.3     
   9 C9            -1.1549    -2.2228    -0.0004 C.3     
  10 C10           -1.0078    -2.7311     1.4107 C.ar    
  11 C11           -2.1294    -2.8896     2.2079 C.ar    
  12 C12           -1.9985    -3.3553     3.5032 C.ar    
  13 C13           -0.7367    -3.6651     4.0043 C.ar    
  14 C14            0.3875    -3.5038     3.1969 C.ar    
  15 C15            0.2461    -3.0433     1.9036 C.ar    
  16 F16           -3.3525    -2.5884     1.7194 F       
  17 C17           -0.5897    -4.1650     5.3943 C.2     
  18 N18           -1.5745    -4.3709     6.2870 N.2     
  19 N19           -1.0574    -4.8076     7.3807 N.2     
  20 N20            0.2204    -4.9047     7.2672 N.pl3   
  21 C21            0.5714    -4.5137     6.0213 C.2     
  22 C22            1.1397    -5.3668     8.3101 C.3     
  23 C23           -3.5309     2.3149     0.0477 C.2     
  24 N24           -3.0504     3.5703     0.0501 N.am    
  25 C25           -1.5841     3.5142     0.0402 C.3     
  26 O26           -4.7107     2.0226     0.0563 O.2     
  27 C27           -3.8575     4.7928     0.0640 C.3     
  28 C28           -4.1248     5.2110     1.5113 C.3     
  29 O29           -2.8976     5.6000     2.1393 O.3     
  30 C30           -2.9627     6.9806     2.5305 C.3     
  31 C31           -4.4735     7.2850     2.6903 C.3     
  32 C32           -5.0697     6.4316     1.5378 C.3     
  33 H33           -3.3180    -0.6130     0.0291 H       
  34 H34            1.5800     2.3437    -1.0282 H       
  35 H35            1.1390     3.0999     0.5217 H       
  36 H36            2.0504     1.5710     0.5048 H       
  37 H37            1.6456    -0.9199     1.0092 H       
  38 H38            1.1977    -1.6891    -0.5323 H       
  39 H39            2.0641    -0.1342    -0.5322 H       
  40 H40           -2.0831    -2.6018    -0.4281 H       
  41 H41           -0.3118    -2.5659    -0.5999 H       
  42 H42           -2.8729    -3.4782     4.1251 H       
  43 H43            1.3680    -3.7429     3.5815 H       
  44 H44            1.1175    -2.9183     1.2779 H       
  45 H45            1.5687    -4.4780     5.6085 H       
  46 H46            1.2647    -6.4468     8.2318 H       
  47 H47            2.1063    -4.8791     8.1845 H       
  48 H48            0.7319    -5.1183     9.2900 H       
  49 H49           -1.1849     3.9949     0.9333 H       
  50 H50           -1.1966     4.0028    -0.8538 H       
  51 H51           -3.3198     5.5891    -0.4508 H       
  52 H52           -4.8052     4.6083    -0.4418 H       
  53 H53           -4.5737     4.3822     2.0586 H       
  54 H54           -2.4444     7.1303     3.4776 H       
  55 H55           -2.5289     7.6140     1.7567 H       
  56 H56           -4.8418     6.9483     3.6594 H       
  57 H57           -4.6787     8.3450     2.5409 H       
  58 H58           -5.0297     6.9737     0.5930 H       
  59 H59           -6.0905     6.1270     1.7686 H       
@<TRIPOS>BOND
   1    1    2 ar
   2    1    7 1
   3    1    6 ar
   4    2    3 ar
   5    2    8 1
   6    3    4 ar
   7    3    9 1
   8    4    5 ar
   9    4   33 1
  10    5    6 ar
  11    5   23 1
  12    6   25 1
  13    7   34 1
  14    7   35 1
  15    7   36 1
  16    8   37 1
  17    8   38 1
  18    8   39 1
  19    9   10 1
  20    9   40 1
  21    9   41 1
  22   10   11 ar
  23   10   15 ar
  24   11   12 ar
  25   11   16 1
  26   12   13 ar
  27   12   42 1
  28   13   14 ar
  29   13   17 1
  30   14   15 ar
  31   14   43 1
  32   15   44 1
  33   17   18 1
  34   17   21 2
  35   18   19 2
  36   19   20 1
  37   20   21 1
  38   20   22 1
  39   21   45 1
  40   22   46 1
  41   22   47 1
  42   22   48 1
  43   23   24 am
  44   23   26 2
  45   24   25 1
  46   24   27 1
  47   25   49 1
  48   25   50 1
  49   27   28 1
  50   27   51 1
  51   27   52 1
  52   28   29 1
  53   28   32 1
  54   28   53 1
  55   29   30 1
  56   30   31 1
  57   30   54 1
  58   30   55 1
  59   31   32 1
  60   31   56 1
  61   31   57 1
  62   32   58 1
  63   32   59 1

#	End of record

