#	Name: ASD08150294
#	Creating user name:	WinNT
#	Creation time:	15. 06. 2019 21:15

#	Modifying user name:	WinNT
#	Modification time:	15. 06. 2019 21:15

#	Program:	/corina/corina34_cracker 3.40 0067  02.08.2006

@<TRIPOS>MOLECULE
ASD08150294
  39   40    0    0    0
SMALL
NO_CHARGES


@<TRIPOS>ATOM
   1 N1            -0.0568     1.5757     0.0768 N.3     
   2 O2            -0.1536     0.1291     0.2723 O.3     
   3 C3             1.3463     2.0038    -0.0000 C.3     
   4 C4             1.4096     3.5297    -0.0929 C.3     
   5 O5             2.5825     2.1535     3.4405 O.3     
   6 C6             3.7260     2.4444     2.6194 C.3     
   7 O7             3.4355     2.0587     1.2695 O.3     
   8 C8             2.0910     1.5378     1.2526 C.3     
   9 C9             1.4601     2.1547     2.5259 C.3     
  10 C10            4.0287     3.9433     2.6720 C.3     
  11 C11            4.9372     1.6605     3.1287 C.3     
  12 C12           -0.8017     1.9966    -1.1173 C.3     
  13 C13           -2.2743     1.7620    -0.8993 C.ar    
  14 C14           -3.0577     2.7562    -0.3436 C.ar    
  15 C15           -4.4085     2.5410    -0.1436 C.ar    
  16 C16           -4.9759     1.3318    -0.4997 C.ar    
  17 C17           -4.1927     0.3380    -1.0563 C.ar    
  18 C18           -2.8428     0.5548    -1.2603 C.ar    
  19 H19           -1.0610    -0.2003     0.3290 H       
  20 H20            1.8118     1.5664    -0.8833 H       
  21 H21            2.4508     3.8474    -0.1499 H       
  22 H22            0.8791     3.8617    -0.9853 H       
  23 H23            0.9441     3.9671     0.7903 H       
  24 H24            2.0987     0.4496     1.3150 H       
  25 H25            0.6497     1.5301     2.9018 H       
  26 H26            1.1123     3.1702     2.3363 H       
  27 H27            4.2633     4.2308     3.6968 H       
  28 H28            4.8800     4.1648     2.0284 H       
  29 H29            3.1582     4.5020     2.3281 H       
  30 H30            4.7137     0.5938     3.1100 H       
  31 H31            5.7962     1.8630     2.4889 H       
  32 H32            5.1647     1.9662     4.1499 H       
  33 H33           -0.6259     3.0566    -1.3004 H       
  34 H34           -0.4652     1.4185    -1.9780 H       
  35 H35           -2.6144     3.7009    -0.0654 H       
  36 H36           -5.0204     3.3175     0.2912 H       
  37 H37           -6.0311     1.1635    -0.3428 H       
  38 H38           -4.6360    -0.6068    -1.3342 H       
  39 H39           -2.2315    -0.2204    -1.6985 H       
@<TRIPOS>BOND
   1    1    2 1
   2    1    3 1
   3    1   12 1
   4    2   19 1
   5    3    4 1
   6    3    8 1
   7    3   20 1
   8    4   21 1
   9    4   22 1
  10    4   23 1
  11    5    6 1
  12    5    9 1
  13    6    7 1
  14    6   10 1
  15    6   11 1
  16    7    8 1
  17    8    9 1
  18    8   24 1
  19    9   25 1
  20    9   26 1
  21   10   27 1
  22   10   28 1
  23   10   29 1
  24   11   30 1
  25   11   31 1
  26   11   32 1
  27   12   13 1
  28   12   33 1
  29   12   34 1
  30   13   14 ar
  31   13   18 ar
  32   14   15 ar
  33   14   35 1
  34   15   16 ar
  35   15   36 1
  36   16   17 ar
  37   16   37 1
  38   17   18 ar
  39   17   38 1
  40   18   39 1

#	End of record

