#	Name: ASD01881357
#	Creating user name:	WinNT
#	Creation time:	15. 06. 2019 19:42

#	Modifying user name:	WinNT
#	Modification time:	15. 06. 2019 19:42

#	Program:	/corina/corina34_cracker 3.40 0067  02.08.2006

@<TRIPOS>MOLECULE
ASD01881357
  52   53    0    0    0
SMALL
NO_CHARGES


@<TRIPOS>ATOM
   1 C1            -0.0116     1.4686     0.1146 C.2     
   2 C2             0.0079    -0.0060     0.1006 C.ar    
   3 C3             1.2270    -0.6907     0.0961 C.ar    
   4 C4             1.2397    -2.0714     0.0834 C.ar    
   5 C5             0.0384    -2.7797     0.0752 C.ar    
   6 C6            -1.1719    -2.0999     0.0793 C.ar    
   7 C7            -1.1919    -0.7221     0.0977 C.ar    
   8 O8             1.0326     2.0899     0.1223 O.2     
   9 O9            -1.1873     2.1269     0.1134 O.3     
  10 O10            2.4237    -2.7405     0.0785 O.3     
  11 C11            3.6149    -1.9513     0.0870 C.3     
  12 O12            0.0526    -4.1374     0.0627 O.3     
  13 C13           -1.2137    -4.7994     0.0549 C.3     
  14 C14           -0.9974    -6.3140     0.0413 C.3     
  15 C15           -2.3532    -7.0228     0.0328 C.3     
  16 C16           -2.1368    -8.5374     0.0192 C.3     
  17 O17           -3.4032    -9.1994     0.0113 O.3     
  18 C18           -3.3890   -10.5560    -0.0011 C.ar    
  19 C19           -4.5856   -11.2589    -0.0092 C.ar    
  20 C20           -4.5734   -12.6426    -0.0224 C.ar    
  21 C21           -3.3442   -13.3268    -0.0274 C.ar    
  22 C22           -2.1459   -12.6001    -0.0190 C.ar    
  23 C23           -2.1739   -11.2358    -0.0114 C.ar    
  24 C24           -5.8968   -10.5161    -0.0033 C.3     
  25 O25           -5.7394   -13.3350    -0.0300 O.3     
  26 C26           -3.3169   -14.7913    -0.0408 C.2     
  27 O27           -4.3515   -15.4183     0.0529 O.2     
  28 C28           -2.0038   -15.5193    -0.1710 C.3     
  29 H29            2.1566    -0.1409     0.1021 H       
  30 H30           -2.1000    -2.6521     0.0721 H       
  31 H31           -2.1350    -0.1958     0.1056 H       
  32 H32           -1.1494     3.0931     0.1229 H       
  33 H33            3.6350    -1.3142    -0.7972 H       
  34 H34            3.6331    -1.3305     0.9827 H       
  35 H35            4.4854    -2.6073     0.0819 H       
  36 H36           -1.7750    -4.5206     0.9466 H       
  37 H37           -1.7725    -4.5043    -0.8332 H       
  38 H38           -0.4360    -6.5928    -0.8505 H       
  39 H39           -0.4386    -6.6092     0.9294 H       
  40 H40           -2.9145    -6.7440     0.9246 H       
  41 H41           -2.9120    -6.7276    -0.8553 H       
  42 H42           -1.5755    -8.8162    -0.8726 H       
  43 H43           -1.5781    -8.8326     0.9073 H       
  44 H44           -1.1995   -13.1204    -0.0228 H       
  45 H45           -1.2479   -10.6801    -0.0095 H       
  46 H46           -6.2118   -10.3269    -1.0295 H       
  47 H47           -6.6521   -11.1164     0.5039 H       
  48 H48           -5.7748    -9.5678     0.5200 H       
  49 H49           -6.0769   -13.5274    -0.9155 H       
  50 H50           -1.2034   -14.7982    -0.3365 H       
  51 H51           -1.8060   -16.0782     0.7436 H       
  52 H52           -2.0523   -16.2081    -1.0144 H       
@<TRIPOS>BOND
   1    1    2 1
   2    1    8 2
   3    1    9 1
   4    2    3 ar
   5    2    7 ar
   6    3    4 ar
   7    3   29 1
   8    4    5 ar
   9    4   10 1
  10    5    6 ar
  11    5   12 1
  12    6    7 ar
  13    6   30 1
  14    7   31 1
  15    9   32 1
  16   10   11 1
  17   11   33 1
  18   11   34 1
  19   11   35 1
  20   12   13 1
  21   13   14 1
  22   13   36 1
  23   13   37 1
  24   14   15 1
  25   14   38 1
  26   14   39 1
  27   15   16 1
  28   15   40 1
  29   15   41 1
  30   16   17 1
  31   16   42 1
  32   16   43 1
  33   17   18 1
  34   18   19 ar
  35   18   23 ar
  36   19   20 ar
  37   19   24 1
  38   20   21 ar
  39   20   25 1
  40   21   22 ar
  41   21   26 1
  42   22   23 ar
  43   22   44 1
  44   23   45 1
  45   24   46 1
  46   24   47 1
  47   24   48 1
  48   25   49 1
  49   26   27 2
  50   26   28 1
  51   28   50 1
  52   28   51 1
  53   28   52 1

#	End of record

