#	Name: ASD00960222
#	Creating user name:	WinNT
#	Creation time:	15. 06. 2019 18:53

#	Modifying user name:	WinNT
#	Modification time:	15. 06. 2019 18:53

#	Program:	/corina/corina34_cracker 3.40 0067  02.08.2006

@<TRIPOS>MOLECULE
ASD00960222
  38   41    0    0    0
SMALL
NO_CHARGES


@<TRIPOS>ATOM
   1 C1             0.1240     1.4553     0.6762 C.2     
   2 C2             0.1933     0.0922     0.9293 C.2     
   3 N3             1.3385     1.8743     0.2061 N.pl3   
   4 C4             2.1853     0.7985     0.1545 C.2     
   5 C5             1.4846    -0.3295     0.6045 C.2     
   6 N6             1.8229     3.1261    -0.2002 N.2     
   7 C7             3.0565     3.2468    -0.6161 C.2     
   8 N8             3.8873     2.2110    -0.6708 N.2     
   9 C9             3.5056     0.9986    -0.3045 C.2     
  10 N10            4.3894    -0.0609    -0.3708 N.pl3   
  11 C11            2.0129    -1.7053     0.7144 C.2     
  12 N12            3.2089    -2.0823     1.2618 N.pl3   
  13 N13            3.2726    -3.4786     1.1410 N.2     
  14 N14            2.1950    -3.8846     0.5665 N.2     
  15 C15            1.4015    -2.8511     0.2954 C.2     
  16 C16           -1.0526     2.3008     0.8732 C.2     
  17 O17           -2.0862     1.8164     1.2940 O.2     
  18 O18           -0.9919     3.6183     0.5882 O.3     
  19 C19           -2.1788     4.3842     0.8045 C.3     
  20 C20           -1.9231     5.8224     0.4341 C.ar    
  21 C21           -2.1565     6.2555    -0.8577 C.ar    
  22 C22           -1.9219     7.5747    -1.1974 C.ar    
  23 C23           -1.4543     8.4610    -0.2452 C.ar    
  24 C24           -1.2218     8.0282     1.0469 C.ar    
  25 C25           -1.4605     6.7099     1.3877 C.ar    
  26 H26           -0.6050    -0.5286     1.3083 H       
  27 H27            3.4114     4.2188    -0.9253 H       
  28 H28            5.3277     0.1011    -0.5559 H       
  29 H29            4.0716    -0.9668    -0.2324 H       
  30 H30            3.8786    -1.5007     1.6544 H       
  31 H31            0.4355    -2.9090    -0.1840 H       
  32 H32           -2.9847     3.9877     0.1868 H       
  33 H33           -2.4633     4.3246     1.8550 H       
  34 H34           -2.5218     5.5631    -1.6017 H       
  35 H35           -2.1035     7.9129    -2.2069 H       
  36 H36           -1.2703     9.4916    -0.5108 H       
  37 H37           -0.8562     8.7205     1.7908 H       
  38 H38           -1.2824     6.3726     2.3981 H       
@<TRIPOS>BOND
   1    1    2 2
   2    1    3 1
   3    1   16 1
   4    2    5 1
   5    2   26 1
   6    3    4 1
   7    3    6 1
   8    4    5 2
   9    4    9 1
  10    5   11 1
  11    6    7 2
  12    7    8 1
  13    7   27 1
  14    8    9 2
  15    9   10 1
  16   10   28 1
  17   10   29 1
  18   11   12 1
  19   11   15 2
  20   12   13 1
  21   12   30 1
  22   13   14 2
  23   14   15 1
  24   15   31 1
  25   16   17 2
  26   16   18 1
  27   18   19 1
  28   19   20 1
  29   19   32 1
  30   19   33 1
  31   20   21 ar
  32   20   25 ar
  33   21   22 ar
  34   21   34 1
  35   22   23 ar
  36   22   35 1
  37   23   24 ar
  38   23   36 1
  39   24   25 ar
  40   24   37 1
  41   25   38 1

#	End of record

