#	Name: ASD05473024
#	Creating user name:	WinNT
#	Creation time:	15. 06. 2019 21:00

#	Modifying user name:	WinNT
#	Modification time:	15. 06. 2019 21:00

#	Program:	/corina/corina34_cracker 3.40 0067  02.08.2006

@<TRIPOS>MOLECULE
ASD05473024
  46   48    0    0    0
SMALL
NO_CHARGES


@<TRIPOS>ATOM
   1 C1            -0.8732    -0.2146    -1.0691 C.2     
   2 C2            -0.0741     0.1304     0.1611 C.3     
   3 C3             1.2848    -0.5701     0.0996 C.3     
   4 C4             2.1534    -0.1015     1.2687 C.3     
   5 O5            -0.3671    -0.8588    -1.9572 O.2     
   6 O6            -2.1489     0.1891    -1.1758 O.3     
   7 C7             2.4657     1.3639     1.1068 C.2     
   8 N8             2.1992     2.3242     2.0327 N.pl3   
   9 C9             2.6329     3.5278     1.5126 C.ar    
  10 C10            3.1638     3.2333     0.2453 C.ar    
  11 N11            3.0344     1.8939     0.0635 N.2     
  12 C12            3.6893     4.2648    -0.5370 C.ar    
  13 C13            3.6817     5.5562    -0.0599 C.ar    
  14 C14            3.1561     5.8417     1.1927 C.ar    
  15 C15            2.6335     4.8356     1.9770 C.ar    
  16 C16            1.0857    -2.0613     0.1878 C.ar    
  17 C17            1.5130    -2.8778    -0.8426 C.ar    
  18 C18            1.3303    -4.2456    -0.7617 C.ar    
  19 C19            0.7207    -4.7970     0.3497 C.ar    
  20 C20            0.2942    -3.9806     1.3805 C.ar    
  21 C21            0.4808    -2.6132     1.3016 C.ar    
  22 I22            4.4704     7.1024    -1.2331 I       
  23 C23            0.5207    -6.2881     0.4374 C.3     
  24 C24            1.7394    -6.9277     1.1057 C.3     
  25 C25            1.5363    -8.4416     1.1947 C.3     
  26 H26            0.0750     1.2092     0.2069 H       
  27 H27           -0.6132    -0.1999     1.0490 H       
  28 H28            1.7780    -0.3244    -0.8408 H       
  29 H29            1.6175    -0.2576     2.2049 H       
  30 H30            3.0824    -0.6716     1.2824 H       
  31 H31           -2.6209    -0.0562    -1.9833 H       
  32 H32            1.7820     2.1887     2.8978 H       
  33 H33            4.1002     4.0498    -1.5124 H       
  34 H34            3.1563     6.8590     1.5552 H       
  35 H35            2.2257     5.0645     2.9505 H       
  36 H36            1.9892    -2.4470    -1.7109 H       
  37 H37            1.6635    -4.8834    -1.5670 H       
  38 H38           -0.1823    -4.4113     2.2487 H       
  39 H39            0.1509    -1.9757     2.1085 H       
  40 H40           -0.3708    -6.5010     1.0275 H       
  41 H41            0.3992    -6.6980    -0.5652 H       
  42 H42            2.6308    -6.7148     0.5156 H       
  43 H43            1.8608    -6.5178     2.1083 H       
  44 H44            2.4045    -8.8972     1.6708 H       
  45 H45            0.6448    -8.6545     1.7848 H       
  46 H46            1.4148    -8.8514     0.1921 H       
@<TRIPOS>BOND
   1    1    2 1
   2    1    5 2
   3    1    6 1
   4    2    3 1
   5    2   26 1
   6    2   27 1
   7    3    4 1
   8    3   16 1
   9    3   28 1
  10    4    7 1
  11    4   29 1
  12    4   30 1
  13    6   31 1
  14    7    8 1
  15    7   11 2
  16    8    9 1
  17    8   32 1
  18    9   10 ar
  19    9   15 ar
  20   10   11 1
  21   10   12 ar
  22   12   13 ar
  23   12   33 1
  24   13   14 ar
  25   13   22 1
  26   14   15 ar
  27   14   34 1
  28   15   35 1
  29   16   17 ar
  30   16   21 ar
  31   17   18 ar
  32   17   36 1
  33   18   19 ar
  34   18   37 1
  35   19   20 ar
  36   19   23 1
  37   20   21 ar
  38   20   38 1
  39   21   39 1
  40   23   24 1
  41   23   40 1
  42   23   41 1
  43   24   25 1
  44   24   42 1
  45   24   43 1
  46   25   44 1
  47   25   45 1
  48   25   46 1

#	End of record

