#	Name: ASD02560297
#	Creating user name:	WinNT
#	Creation time:	15. 06. 2019 20:25

#	Modifying user name:	WinNT
#	Modification time:	15. 06. 2019 20:25

#	Program:	/corina/corina34_cracker 3.40 0067  02.08.2006

@<TRIPOS>MOLECULE
ASD02560297
  36   38    0    0    0
SMALL
NO_CHARGES


@<TRIPOS>ATOM
   1 C1             0.0088     1.3239     0.2471 C.2     
   2 O2             0.0161    -0.0220     0.1307 O.3     
   3 C3            -1.2600    -0.4381     0.1158 C.2     
   4 N4            -2.0417     0.6087     0.2191 N.2     
   5 C5            -1.2737     1.7116     0.3071 C.2     
   6 N6            -1.6794    -1.7512     0.0089 N.pl3   
   7 C7             1.2174     2.2223     0.3052 C.3     
   8 C8            -3.0381    -2.0633     0.1264 C.ar    
   9 C9            -3.5618    -3.1562    -0.5520 C.ar    
  10 C10           -4.9033    -3.4627    -0.4342 C.ar    
  11 C11           -5.7261    -2.6813     0.3596 C.ar    
  12 C12           -5.2061    -1.5912     1.0368 C.ar    
  13 C13           -3.8641    -1.2841     0.9261 C.ar    
  14 F14           -7.0381    -2.9827     0.4730 F       
  15 C15            1.6434     2.3990     1.7399 C.ar    
  16 C16            2.5543     1.5240     2.3040 C.ar    
  17 C17            1.1281     3.4396     2.4915 C.ar    
  18 C18            1.5195     3.6014     3.8087 C.ar    
  19 C19            2.4254     2.7233     4.3735 C.ar    
  20 C20            2.9450     1.6867     3.6212 C.ar    
  21 Cl21          -0.0092     4.5428     1.7821 Cl      
  22 Cl22           3.2066     0.2216     1.3595 Cl      
  23 C23           -1.7675     3.1292     0.4401 C.3     
  24 H24           -1.0316    -2.4560    -0.1475 H       
  25 H25            2.0318     1.7728    -0.2629 H       
  26 H26            0.9690     3.1937    -0.1223 H       
  27 H27           -2.9206    -3.7657    -1.1714 H       
  28 H28           -5.3111    -4.3123    -0.9618 H       
  29 H29           -5.8496    -0.9829     1.6551 H       
  30 H30           -3.4588    -0.4340     1.4548 H       
  31 H31            1.1175     4.4140     4.3955 H       
  32 H32            2.7309     2.8502     5.4016 H       
  33 H33            3.6528     1.0010     4.0631 H       
  34 H34           -1.8733     3.3796     1.4956 H       
  35 H35           -1.0525     3.8081    -0.0245 H       
  36 H36           -2.7340     3.2252    -0.0547 H       
@<TRIPOS>BOND
   1    1    2 1
   2    1    7 1
   3    1    5 2
   4    2    3 1
   5    3    4 2
   6    3    6 1
   7    4    5 1
   8    5   23 1
   9    6    8 1
  10    6   24 1
  11    7   15 1
  12    7   25 1
  13    7   26 1
  14    8    9 ar
  15    8   13 ar
  16    9   10 ar
  17    9   27 1
  18   10   11 ar
  19   10   28 1
  20   11   12 ar
  21   11   14 1
  22   12   13 ar
  23   12   29 1
  24   13   30 1
  25   15   16 ar
  26   15   17 ar
  27   16   22 1
  28   16   20 ar
  29   17   18 ar
  30   17   21 1
  31   18   19 ar
  32   18   31 1
  33   19   20 ar
  34   19   32 1
  35   20   33 1
  36   23   34 1
  37   23   35 1
  38   23   36 1

#	End of record

