#	Name: ASD06350015
#	Creating user name:	WinNT
#	Creation time:	15. 06. 2019 21:06

#	Modifying user name:	WinNT
#	Modification time:	15. 06. 2019 21:06

#	Program:	/corina/corina34_cracker 3.40 0067  02.08.2006

@<TRIPOS>MOLECULE
ASD06350015
  45   48    0    0    0
SMALL
NO_CHARGES


@<TRIPOS>ATOM
   1 F1             1.5387     1.5145    -0.3554 F       
   2 C2             1.2967     2.8330    -0.1874 C.ar    
   3 C3             0.7662     3.2921     1.0067 C.ar    
   4 C4             0.5181     4.6394     1.1804 C.ar    
   5 C5             0.8014     5.5342     0.1569 C.ar    
   6 C6             1.3337     5.0719    -1.0395 C.ar    
   7 C7             1.5848     3.7244    -1.2075 C.ar    
   8 N8             0.5501     6.9011     0.3309 N.am    
   9 C9             1.5756     7.7349     0.6334 C.2     
  10 C10            1.3721     9.0656     0.8091 C.2     
  11 C11            0.0907     9.6009     0.6797 C.2     
  12 C12           -0.9683     8.7496     0.3689 C.2     
  13 C13           -0.7053     7.3673     0.1896 C.2     
  14 O14           -1.6143     6.6024    -0.0831 O.2     
  15 C15           -2.3338     9.2762     0.2246 C.2     
  16 O16           -2.5707    10.4367     0.5025 O.2     
  17 N17           -3.3227     8.4732    -0.2155 N.am    
  18 C18           -4.6441     8.9355    -0.2335 C.ar    
  19 C19           -5.6899     8.0593     0.0240 C.ar    
  20 C20           -6.9939     8.5151     0.0063 C.ar    
  21 C21           -7.2596     9.8476    -0.2692 C.ar    
  22 C22           -6.2142    10.7259    -0.5277 C.ar    
  23 C23           -4.9088    10.2720    -0.5035 C.ar    
  24 F24           -6.4732    12.0242    -0.7969 F       
  25 O25           -8.5438    10.2952    -0.2869 O.3     
  26 C26           -9.0604    10.6994    -1.4726 C.ar    
  27 N27           -8.3694    10.5454    -2.5969 N.ar    
  28 C28           -8.8672    10.9364    -3.7527 C.ar    
  29 N29          -10.0588    11.4912    -3.8441 N.ar    
  30 C30          -10.8085    11.6785    -2.7660 C.ar    
  31 C31          -10.3267    11.2778    -1.5321 C.ar    
  32 Cl32         -12.3765    12.4108    -2.9020 Cl      
  33 H33            0.5461     2.5959     1.8024 H       
  34 H34            0.1037     4.9969     2.1114 H       
  35 H35            1.5544     5.7662    -1.8368 H       
  36 H36            1.9992     3.3645    -2.1376 H       
  37 H37            2.5727     7.3330     0.7367 H       
  38 H38            2.2039     9.7109     1.0500 H       
  39 H39           -0.0784    10.6585     0.8186 H       
  40 H40           -3.1189     7.5749    -0.5197 H       
  41 H41           -5.4838     7.0209     0.2380 H       
  42 H42           -7.8068     7.8329     0.2067 H       
  43 H43           -4.0958    10.9539    -0.7043 H       
  44 H44           -8.2821    10.7985    -4.6499 H       
  45 H45          -10.9143    11.4169    -0.6367 H       
@<TRIPOS>BOND
   1    1    2 1
   2    2    3 ar
   3    2    7 ar
   4    3    4 ar
   5    3   33 1
   6    4    5 ar
   7    4   34 1
   8    5    6 ar
   9    5    8 1
  10    6    7 ar
  11    6   35 1
  12    7   36 1
  13    8    9 1
  14    8   13 am
  15    9   10 2
  16    9   37 1
  17   10   11 1
  18   10   38 1
  19   11   12 2
  20   11   39 1
  21   12   13 1
  22   12   15 1
  23   13   14 2
  24   15   16 2
  25   15   17 am
  26   17   18 1
  27   17   40 1
  28   18   19 ar
  29   18   23 ar
  30   19   20 ar
  31   19   41 1
  32   20   21 ar
  33   20   42 1
  34   21   22 ar
  35   21   25 1
  36   22   23 ar
  37   22   24 1
  38   23   43 1
  39   25   26 1
  40   26   27 ar
  41   26   31 ar
  42   27   28 ar
  43   28   29 ar
  44   28   44 1
  45   29   30 ar
  46   30   31 ar
  47   30   32 1
  48   31   45 1

#	End of record

