#	Name: ASD00241019
#	Creating user name:	WinNT
#	Creation time:	15. 06. 2019 18:33

#	Modifying user name:	WinNT
#	Modification time:	15. 06. 2019 18:33

#	Program:	/corina/corina34_cracker 3.40 0067  02.08.2006

@<TRIPOS>MOLECULE
ASD00241019
  32   34    0    0    0
SMALL
NO_CHARGES


@<TRIPOS>ATOM
   1 C1            -0.0189     1.5409     0.0105 C.3     
   2 C2             0.0021    -0.0041     0.0020 C.3     
   3 C3            -0.6985    -0.3962     1.3218 C.3     
   4 O4            -1.5292     0.7387     1.6500 O.3     
   5 C5            -0.7297     1.8993     1.3344 C.3     
   6 C6            -1.0950    -2.8932     1.1998 C.ar    
   7 C7            -2.2253    -3.6873     0.9440 C.ar    
   8 N8             0.0706    -3.4860     1.4383 N.ar    
   9 C9             0.1685    -4.7992     1.4357 C.ar    
  10 N10           -0.8660    -5.5867     1.2005 N.ar    
  11 C11           -2.0708    -5.0842     0.9520 C.ar    
  12 N12           -3.2661    -2.8453     0.7361 N.2     
  13 C13           -2.8563    -1.6149     0.8454 C.2     
  14 N14           -1.5225    -1.5917     1.1261 N.pl3   
  15 C15           -1.6237     3.1262     1.1437 C.3     
  16 O16           -2.2379     3.4662     2.3884 O.3     
  17 O17            1.3126     2.0597     0.0006 O.3     
  18 O18            1.3471    -0.4865    -0.0134 O.3     
  19 N19           -3.1485    -5.9171     0.7073 N.pl3   
  20 I20            2.0342    -5.6722     1.8182 I       
  21 H21           -0.5818     1.9199    -0.8424 H       
  22 H22           -0.5526    -0.3889    -0.8538 H       
  23 H23            0.0385    -0.5666     2.1065 H       
  24 H24            0.0026     2.0810     2.1211 H       
  25 H25           -3.4800    -0.7412     0.7268 H       
  26 H26           -1.0207     3.9646     0.7951 H       
  27 H27           -2.3953     2.9025     0.4070 H       
  28 H28           -2.8202     4.2368     2.3421 H       
  29 H29            1.3583     3.0256     0.0053 H       
  30 H30            1.8524    -0.2178    -0.7928 H       
  31 H31           -3.0293    -6.8797     0.7158 H       
  32 H32           -4.0231    -5.5383     0.5271 H       
@<TRIPOS>BOND
   1    1    2 1
   2    1   17 1
   3    1    5 1
   4    1   21 1
   5    2    3 1
   6    2   18 1
   7    2   22 1
   8    3    4 1
   9    3   14 1
  10    3   23 1
  11    4    5 1
  12    5   15 1
  13    5   24 1
  14    6    7 ar
  15    6    8 ar
  16    6   14 1
  17    7   12 1
  18    7   11 ar
  19    8    9 ar
  20    9   10 ar
  21    9   20 1
  22   10   11 ar
  23   11   19 1
  24   12   13 2
  25   13   14 1
  26   13   25 1
  27   15   16 1
  28   15   26 1
  29   15   27 1
  30   16   28 1
  31   17   29 1
  32   18   30 1
  33   19   31 1
  34   19   32 1

#	End of record

