#	Name: ASD04880156
#	Creating user name:	WinNT
#	Creation time:	15. 06. 2019 20:52

#	Modifying user name:	WinNT
#	Modification time:	15. 06. 2019 20:52

#	Program:	/corina/corina34_cracker 3.40 0067  02.08.2006

@<TRIPOS>MOLECULE
ASD04880156
  47   49    0    0    0
SMALL
NO_CHARGES


@<TRIPOS>ATOM
   1 C1            -0.0144     1.2118     0.0087 C.2     
   2 O2             0.0439    -0.0026     0.0314 O.2     
   3 N3             1.1183     1.9399    -0.0482 N.am    
   4 N4             1.1856     3.3243    -0.1908 N.2     
   5 C5             2.3857     3.7928    -0.2197 C.2     
   6 C6             3.3746     2.6569    -0.0854 C.3     
   7 C7             2.4859     1.4032     0.0365 C.3     
   8 C8             4.2652     2.5712    -1.3265 C.3     
   9 C9             4.2239     2.8310     1.1753 C.3     
  10 C10            2.7398     5.2166    -0.3624 C.ar    
  11 C11            1.7343     6.1803    -0.4794 C.ar    
  12 C12            2.0720     7.5137    -0.6125 C.ar    
  13 C13            3.4123     7.8949    -0.6303 C.ar    
  14 C14            4.4104     6.9388    -0.5148 C.ar    
  15 C15            4.0811     5.6066    -0.3754 C.ar    
  16 O16            3.7423     9.2070    -0.7618 O.3     
  17 C17            5.1348     9.5278    -0.7725 C.3     
  18 O18            1.0961     8.4540    -0.7265 O.3     
  19 C19           -0.2560     7.9923    -0.7009 C.3     
  20 C20           -1.3276     1.8892     0.0373 C.ar    
  21 C21           -2.5037     1.1426    -0.0542 C.ar    
  22 C22           -3.7268     1.7816    -0.0264 C.ar    
  23 C23           -3.7883     3.1599     0.0920 C.ar    
  24 C24           -2.6263     3.9048     0.1830 C.ar    
  25 C25           -1.3975     3.2777     0.1618 C.ar    
  26 Br26          -5.3215     0.7730    -0.1508 Br      
  27 H27            2.6455     0.9094     0.9950 H       
  28 H28            2.6801     0.7162    -0.7871 H       
  29 H29            4.8330     3.4958    -1.4308 H       
  30 H30            4.9531     1.7321    -1.2229 H       
  31 H31            3.6439     2.4247    -2.2101 H       
  32 H32            3.5737     2.8670     2.0493 H       
  33 H33            4.9120     1.9908     1.2687 H       
  34 H34            4.7911     3.7592     1.1059 H       
  35 H35            0.6960     5.8836    -0.4661 H       
  36 H36            5.4478     7.2386    -0.5298 H       
  37 H37            4.8603     4.8647    -0.2811 H       
  38 H38            5.6184     9.0192    -1.6065 H       
  39 H39            5.2586    10.6051    -0.8829 H       
  40 H40            5.5895     9.2038     0.1636 H       
  41 H41           -0.9319     8.8416    -0.8004 H       
  42 H42           -0.4190     7.2994    -1.5264 H       
  43 H43           -0.4484     7.4836     0.2438 H       
  44 H44           -2.4566     0.0676    -0.1469 H       
  45 H45           -4.7477     3.6554     0.1129 H       
  46 H46           -2.6812     4.9795     0.2752 H       
  47 H47           -0.4913     3.8605     0.2371 H       
@<TRIPOS>BOND
   1    1    2 2
   2    1    3 am
   3    1   20 1
   4    3    4 1
   5    3    7 1
   6    4    5 2
   7    5    6 1
   8    5   10 1
   9    6    7 1
  10    6    8 1
  11    6    9 1
  12    7   27 1
  13    7   28 1
  14    8   29 1
  15    8   30 1
  16    8   31 1
  17    9   32 1
  18    9   33 1
  19    9   34 1
  20   10   11 ar
  21   10   15 ar
  22   11   12 ar
  23   11   35 1
  24   12   13 ar
  25   12   18 1
  26   13   14 ar
  27   13   16 1
  28   14   15 ar
  29   14   36 1
  30   15   37 1
  31   16   17 1
  32   17   38 1
  33   17   39 1
  34   17   40 1
  35   18   19 1
  36   19   41 1
  37   19   42 1
  38   19   43 1
  39   20   21 ar
  40   20   25 ar
  41   21   22 ar
  42   21   44 1
  43   22   23 ar
  44   22   26 1
  45   23   24 ar
  46   23   45 1
  47   24   25 ar
  48   24   46 1
  49   25   47 1

#	End of record

