#	Name: ASD01917015
#	Creating user name:	WinNT
#	Creation time:	15. 06. 2019 20:08

#	Modifying user name:	WinNT
#	Modification time:	15. 06. 2019 20:08

#	Program:	/corina/corina34_cracker 3.40 0067  02.08.2006

@<TRIPOS>MOLECULE
ASD01917015
  38   40    0    0    0
SMALL
NO_CHARGES


@<TRIPOS>ATOM
   1 C1            -0.0187     1.5258     0.0104 C.3     
   2 C2             0.0021    -0.0041     0.0020 C.3     
   3 C3             0.7421    -0.5109     1.2415 C.3     
   4 C4             2.1775     0.0187     1.2307 C.3     
   5 C5             2.1567     1.5485     1.2391 C.3     
   6 C6             1.4167     2.0553    -0.0004 C.3     
   7 C7             2.9063    -0.4805     2.4516 C.2     
   8 N8             3.6642    -1.5437     2.5092 N.2     
   9 C9             4.1518    -1.6862     3.7490 C.2     
  10 N10            3.7004    -0.7018     4.4951 N.2     
  11 N11            2.8930     0.0950     3.6672 N.pl3   
  12 C12            5.0514    -2.7746     4.2048 C.ar    
  13 C13            5.4902    -2.8099     5.5271 C.ar    
  14 C14            5.4545    -3.7667     3.3129 C.ar    
  15 C15            6.2908    -4.7770     3.7394 C.ar    
  16 C16            6.7309    -4.8064     5.0557 C.ar    
  17 C17            6.3264    -3.8227     5.9479 C.ar    
  18 O18            7.5548    -5.8031     5.4731 O.3     
  19 C19            7.9694    -5.7723     6.8402 C.3     
  20 H20           -0.5459     1.8868    -0.8726 H       
  21 H21           -0.5289     1.8773     0.9072 H       
  22 H22           -1.0205    -0.3814     0.0098 H       
  23 H23            0.5123    -0.3556    -0.8948 H       
  24 H24            0.2319    -0.1594     2.1383 H       
  25 H25            0.7568    -1.6008     1.2356 H       
  26 H26            2.6876    -0.3328     0.3339 H       
  27 H27            1.6465     1.9000     2.1359 H       
  28 H28            3.1793     1.9258     1.2314 H       
  29 H29            1.9269     1.7038    -0.8972 H       
  30 H30            1.4019     3.1452     0.0056 H       
  31 H31            2.4150     0.8993     3.9232 H       
  32 H32            5.1761    -2.0447     6.2215 H       
  33 H33            5.1121    -3.7445     2.2888 H       
  34 H34            6.6032    -5.5463     3.0487 H       
  35 H35            6.6707    -3.8479     6.9712 H       
  36 H36            8.6222    -6.6217     7.0412 H       
  37 H37            8.5087    -4.8454     7.0355 H       
  38 H38            7.0935    -5.8262     7.4868 H       
@<TRIPOS>BOND
   1    1    2 1
   2    1    6 1
   3    1   20 1
   4    1   21 1
   5    2    3 1
   6    2   22 1
   7    2   23 1
   8    3    4 1
   9    3   24 1
  10    3   25 1
  11    4    5 1
  12    4    7 1
  13    4   26 1
  14    5    6 1
  15    5   27 1
  16    5   28 1
  17    6   29 1
  18    6   30 1
  19    7    8 2
  20    7   11 1
  21    8    9 1
  22    9   10 2
  23    9   12 1
  24   10   11 1
  25   11   31 1
  26   12   13 ar
  27   12   14 ar
  28   13   17 ar
  29   13   32 1
  30   14   15 ar
  31   14   33 1
  32   15   16 ar
  33   15   34 1
  34   16   17 ar
  35   16   18 1
  36   17   35 1
  37   18   19 1
  38   19   36 1
  39   19   37 1
  40   19   38 1

#	End of record

