#	Name: ASD01209039
#	Creating user name:	WinNT
#	Creation time:	15. 06. 2019 19:10

#	Modifying user name:	WinNT
#	Modification time:	15. 06. 2019 19:10

#	Program:	/corina/corina34_cracker 3.40 0067  02.08.2006

@<TRIPOS>MOLECULE
ASD01209039
  62   66    0    0    0
SMALL
NO_CHARGES


@<TRIPOS>ATOM
   1 C1            -0.3282     1.6292     0.0795 C.3     
   2 C2            -0.1813     0.1121    -0.0724 C.3     
   3 C3             0.8338    -0.3970     0.9555 C.3     
   4 C4             2.1619     0.3380     0.7568 C.3     
   5 C5             1.0448     2.2860    -0.0853 C.3     
   6 C6            -1.5346    -0.5599     0.1686 C.3     
   7 C7            -1.4314    -2.0492    -0.1664 C.3     
   8 C8            -2.8042    -2.6695    -0.1260 C.2     
   9 N9            -3.7724    -2.2173    -0.9473 N.am    
  10 C10           -5.0666    -2.7111    -0.8338 C.ar    
  11 N11           -0.5672    -2.7114     0.8139 N.pl3   
  12 C12            0.4944    -3.5254     0.5163 C.ar    
  13 C13            1.0410    -3.9441     1.7450 C.ar    
  14 C14            0.2305    -3.3226     2.7873 C.2     
  15 N15           -0.6898    -2.6095     2.2035 N.2     
  16 O16           -3.0377    -3.5754     0.6456 O.2     
  17 O17            1.9489     1.7457     0.8805 O.3     
  18 C18            1.0684    -3.9662    -0.6733 C.ar    
  19 C19            2.1521    -4.7975    -0.6384 C.ar    
  20 C20            2.6927    -5.2116     0.5725 C.ar    
  21 C21            2.1517    -4.7948     1.7544 C.ar    
  22 C22           -6.0323    -2.3248    -1.7595 C.ar    
  23 C23           -7.3153    -2.8185    -1.6413 C.ar    
  24 C24           -7.5966    -3.6966    -0.5845 C.ar    
  25 C25           -6.5748    -4.0370     0.3035 C.ar    
  26 N26           -5.3629    -3.5472     0.1510 N.ar    
  27 C27           -8.9533    -4.2524    -0.4136 C.2     
  28 N28           -9.2128    -5.0954     0.6055 N.am    
  29 O29           -9.8368    -3.9496    -1.1920 O.2     
  30 C30            3.4847    -3.8091     4.0439 C.3     
  31 C31            4.2655    -3.9486     5.3523 C.3     
  32 C32            5.0014    -3.6079     4.0548 C.3     
  33 S33            2.8467    -5.3274     3.2834 S.o2    
  34 O34            1.7370    -5.8250     4.0183 O.2     
  35 O35            3.9163    -6.1822     2.9033 O.2     
  36 H36           -1.0072     2.0077    -0.6845 H       
  37 H37           -0.7258     1.8595     1.0679 H       
  38 H38            0.1693    -0.1214    -1.0777 H       
  39 H39            0.4597    -0.2077     1.9616 H       
  40 H40            0.9859    -1.4676     0.8179 H       
  41 H41            2.8754     0.0106     1.5130 H       
  42 H42            2.5556     0.1157    -0.2350 H       
  43 H43            1.4238     2.0892    -1.0882 H       
  44 H44            0.9534     3.3618     0.0643 H       
  45 H45           -1.8179    -0.4415     1.2144 H       
  46 H46           -2.2889    -0.0959    -0.4670 H       
  47 H47           -1.0079    -2.1688    -1.1636 H       
  48 H48           -3.5660    -1.5474    -1.6177 H       
  49 H49            0.3715    -3.4308     3.8526 H       
  50 H50            0.6576    -3.6520    -1.6214 H       
  51 H51            2.5937    -5.1371    -1.5636 H       
  52 H52            3.5496    -5.8689     0.5787 H       
  53 H53           -5.7800    -1.6461    -2.5609 H       
  54 H54           -8.0841    -2.5353    -2.3450 H       
  55 H55           -6.7797    -4.7123     1.1210 H       
  56 H56           -8.5079    -5.3370     1.2265 H       
  57 H57          -10.1044    -5.4606     0.7178 H       
  58 H58            2.8601    -2.9241     3.9224 H       
  59 H59            4.1549    -3.1551     6.0914 H       
  60 H60            4.3959    -4.9526     5.7560 H       
  61 H61            5.6158    -4.3878     3.6050 H       
  62 H62            5.3749    -2.5903     3.9404 H       
@<TRIPOS>BOND
   1    1    2 1
   2    1    5 1
   3    1   36 1
   4    1   37 1
   5    2    3 1
   6    2    6 1
   7    2   38 1
   8    3    4 1
   9    3   39 1
  10    3   40 1
  11    4   17 1
  12    4   41 1
  13    4   42 1
  14    5   17 1
  15    5   43 1
  16    5   44 1
  17    6    7 1
  18    6   45 1
  19    6   46 1
  20    7    8 1
  21    7   11 1
  22    7   47 1
  23    8    9 am
  24    8   16 2
  25    9   10 1
  26    9   48 1
  27   10   22 ar
  28   10   26 ar
  29   11   12 1
  30   11   15 1
  31   12   13 ar
  32   12   18 ar
  33   13   14 1
  34   13   21 ar
  35   14   15 2
  36   14   49 1
  37   18   19 ar
  38   18   50 1
  39   19   20 ar
  40   19   51 1
  41   20   21 ar
  42   20   52 1
  43   21   33 1
  44   22   23 ar
  45   22   53 1
  46   23   24 ar
  47   23   54 1
  48   24   25 ar
  49   24   27 1
  50   25   26 ar
  51   25   55 1
  52   27   28 am
  53   27   29 2
  54   28   56 1
  55   28   57 1
  56   30   31 1
  57   30   33 1
  58   30   32 1
  59   30   58 1
  60   31   32 1
  61   31   59 1
  62   31   60 1
  63   32   61 1
  64   32   62 1
  65   33   34 2
  66   33   35 2

#	End of record

