#	Name: ASD00191012
#	Creating user name:	WinNT
#	Creation time:	15. 06. 2019 18:33

#	Modifying user name:	WinNT
#	Modification time:	15. 06. 2019 18:33

#	Program:	/corina/corina34_cracker 3.40 0067  02.08.2006

@<TRIPOS>MOLECULE
ASD00191012
  47   50    0    0    0
SMALL
NO_CHARGES


@<TRIPOS>ATOM
   1 C1            -0.1450     1.1006     0.3157 C.2     
   2 C2             0.0768     0.1155    -0.5282 C.2     
   3 C3             1.2558    -0.8092    -0.4403 C.3     
   4 C4             2.3365    -0.2012     0.4561 C.3     
   5 C5             1.6833     0.2504     1.7682 C.3     
   6 C6             0.7574     1.4312     1.4686 C.3     
   7 C7            -1.3430     1.9290     0.1139 C.2     
   8 O8            -2.0954     1.6947    -0.8124 O.2     
   9 N9            -1.6072     2.9480     0.9555 N.am    
  10 N10           -5.0888     5.1829     0.4757 N.ar    
  11 C11           -5.0432     3.9314     0.0629 C.ar    
  12 C12           -3.8910     3.1524     0.2079 C.ar    
  13 C13           -2.7674     3.6977     0.7969 C.ar    
  14 C14           -2.8319     5.0439     1.2355 C.ar    
  15 C15           -1.7317     5.6641     1.8413 C.ar    
  16 C16           -1.8291     6.9609     2.2505 C.ar    
  17 C17           -3.0094     7.6771     2.0742 C.ar    
  18 C18           -4.0975     7.1034     1.4892 C.ar    
  19 C19           -4.0333     5.7691     1.0542 C.ar    
  20 N20           -6.1672     3.3733    -0.5305 N.pl3   
  21 C21           -7.3850     4.0598    -0.5049 C.ar    
  22 C22           -8.5806     3.3594    -0.6020 C.ar    
  23 C23           -9.7827     4.0406    -0.5765 C.ar    
  24 C24           -9.7954     5.4204    -0.4547 C.ar    
  25 C25           -8.6055     6.1195    -0.3584 C.ar    
  26 C26           -7.4015     5.4426    -0.3767 C.ar    
  27 Cl27         -11.3068     6.2737    -0.4234 Cl      
  28 Cl28         -11.2778     3.1666    -0.6977 Cl      
  29 H29           -0.6305    -0.0366    -1.3300 H       
  30 H30            0.9358    -1.7642    -0.0236 H       
  31 H31            1.6632    -0.9711    -1.4383 H       
  32 H32            3.1013    -0.9488     0.6662 H       
  33 H33            2.7864     0.6569    -0.0432 H       
  34 H34            1.1044    -0.5708     2.1907 H       
  35 H35            2.4544     0.5596     2.4737 H       
  36 H36            1.3572     2.3063     1.2186 H       
  37 H37            0.1533     1.6492     2.3493 H       
  38 H38           -0.9879     3.1585     1.6718 H       
  39 H39           -3.8803     2.1294    -0.1382 H       
  40 H40           -0.8111     5.1176     1.9837 H       
  41 H41           -0.9803     7.4382     2.7175 H       
  42 H42           -3.0635     8.7033     2.4066 H       
  43 H43           -5.0063     7.6724     1.3598 H       
  44 H44           -6.1077     2.5071    -0.9630 H       
  45 H45           -8.5707     2.2837    -0.6977 H       
  46 H46           -8.6182     7.1953    -0.2642 H       
  47 H47           -6.4733     5.9889    -0.2963 H       
@<TRIPOS>BOND
   1    1    2 2
   2    1    6 1
   3    1    7 1
   4    2    3 1
   5    2   29 1
   6    3    4 1
   7    3   30 1
   8    3   31 1
   9    4    5 1
  10    4   32 1
  11    4   33 1
  12    5    6 1
  13    5   34 1
  14    5   35 1
  15    6   36 1
  16    6   37 1
  17    7    8 2
  18    7    9 am
  19    9   13 1
  20    9   38 1
  21   10   11 ar
  22   10   19 ar
  23   11   12 ar
  24   11   20 1
  25   12   13 ar
  26   12   39 1
  27   13   14 ar
  28   14   15 ar
  29   14   19 ar
  30   15   16 ar
  31   15   40 1
  32   16   17 ar
  33   16   41 1
  34   17   18 ar
  35   17   42 1
  36   18   19 ar
  37   18   43 1
  38   20   21 1
  39   20   44 1
  40   21   22 ar
  41   21   26 ar
  42   22   23 ar
  43   22   45 1
  44   23   24 ar
  45   23   28 1
  46   24   25 ar
  47   24   27 1
  48   25   26 ar
  49   25   46 1
  50   26   47 1

#	End of record

