#	Name: ASD01190024
#	Creating user name:	WinNT
#	Creation time:	15. 06. 2019 19:07

#	Modifying user name:	WinNT
#	Modification time:	15. 06. 2019 19:07

#	Program:	/corina/corina34_cracker 3.40 0067  02.08.2006

@<TRIPOS>MOLECULE
ASD01190024
  70   74    0    0    0
SMALL
NO_CHARGES


@<TRIPOS>ATOM
   1 C1            -0.0187     1.5252     0.0104 C.3     
   2 C2            -3.6755    -0.1051     5.2483 C.ar    
   3 C3            -2.8578     0.1105     6.3475 C.ar    
   4 C4            -1.5016     0.3202     6.1664 C.ar    
   5 C5            -0.9473     0.3181     4.8923 C.ar    
   6 C6            -1.7718     0.1060     3.8019 C.ar    
   7 C7            -3.1271    -0.1075     3.9814 C.ar    
   8 C8             0.5376     0.5504     4.7871 C.3     
   9 C9             0.9756     0.7891     3.3351 C.3     
  10 C10            0.2705    -0.2752     2.5011 C.3     
  11 C11           -1.2038     0.1261     2.4087 C.3     
  12 C12            0.8400    -0.5815     1.1606 C.3     
  13 C13            0.0021    -0.0041     0.0020 C.3     
  14 C14           -1.3984    -0.5571    -0.0045 C.3     
  15 C15           -1.9301    -0.7675     1.4229 C.3     
  16 C16            2.2381    -0.0398     0.8271 C.3     
  17 C17            2.2917    -0.1850    -0.7192 C.3     
  18 C18            0.8574    -0.4068    -1.1872 C.2     
  19 O19           -3.3865     0.1163     7.5998 O.3     
  20 N20            0.4486    -0.8324    -2.3150 N.2     
  21 N21            1.3719    -1.1633    -3.3154 N.am    
  22 C22            0.9390    -1.6139    -4.5096 C.2     
  23 C23            1.9321    -1.9699    -5.5856 C.3     
  24 O24           -0.2500    -1.7329    -4.7182 O.2     
  25 C25            1.1844    -2.4506    -6.8310 C.3     
  26 C26            2.1927    -2.8120    -7.9235 C.3     
  27 C27            1.4450    -3.2926    -9.1688 C.3     
  28 C28            2.4533    -3.6541   -10.2613 C.3     
  29 N29            1.7373    -4.1143   -11.4537 N.am    
  30 C30            1.3209    -3.3257   -12.4609 C.2     
  31 C31            0.6440    -4.1723   -13.4680 C.2     
  32 C32            0.6900    -5.4338   -13.0088 C.2     
  33 C33            1.4007    -5.3909   -11.7118 C.2     
  34 O34            1.4742    -2.1235   -12.5313 O.2     
  35 O35            1.6343    -6.3449   -10.9982 O.2     
  36 H36            0.9780     1.9034    -0.2172 H       
  37 H37           -0.7233     1.8832    -0.7402 H       
  38 H38           -0.3255     1.8790     0.9947 H       
  39 H39           -4.7345    -0.2691     5.3815 H       
  40 H40           -0.8657     0.4829     7.0243 H       
  41 H41           -3.7694    -0.2727     3.1295 H       
  42 H42            0.8065     1.4212     5.3825 H       
  43 H43            1.0624    -0.3240     5.1706 H       
  44 H44            0.6724     1.7830     3.0193 H       
  45 H45            2.0544     0.6736     3.2577 H       
  46 H46            0.3025    -1.2130     3.0985 H       
  47 H47           -1.2784     1.1604     2.0820 H       
  48 H48            0.8806    -1.6872     1.0425 H       
  49 H49           -2.0636     0.1248    -0.5483 H       
  50 H50           -1.4058    -1.5203    -0.5358 H       
  51 H51           -1.7977    -1.8154     1.7120 H       
  52 H52           -3.0028    -0.5430     1.4420 H       
  53 H53            2.3542     0.9953     1.1321 H       
  54 H54            3.0070    -0.6610     1.2930 H       
  55 H55            2.6964     0.7224    -1.1660 H       
  56 H56            2.9092    -1.0413    -0.9903 H       
  57 H57           -3.3967    -0.7515     8.0264 H       
  58 H58            2.3227    -1.0682    -3.1486 H       
  59 H59            2.5274    -1.0917    -5.8356 H       
  60 H60            2.5879    -2.7632    -5.2268 H       
  61 H61            0.5891    -3.3288    -6.5810 H       
  62 H62            0.5286    -1.6573    -7.1898 H       
  63 H63            2.7880    -1.9338    -8.1735 H       
  64 H64            2.8485    -3.6053    -7.5646 H       
  65 H65            0.8497    -4.1708    -8.9188 H       
  66 H66            0.7892    -2.4993    -9.5276 H       
  67 H67            3.0485    -2.7758   -10.5113 H       
  68 H68            3.1090    -4.4474    -9.9025 H       
  69 H69            0.1981    -3.8399   -14.3938 H       
  70 H70            0.2884    -6.3109   -13.4943 H       
@<TRIPOS>BOND
   1    1   13 1
   2    1   36 1
   3    1   37 1
   4    1   38 1
   5    2    3 ar
   6    2    7 ar
   7    2   39 1
   8    3    4 ar
   9    3   19 1
  10    4    5 ar
  11    4   40 1
  12    5    6 ar
  13    5    8 1
  14    6    7 ar
  15    6   11 1
  16    7   41 1
  17    8    9 1
  18    8   42 1
  19    8   43 1
  20    9   10 1
  21    9   44 1
  22    9   45 1
  23   10   11 1
  24   10   12 1
  25   10   46 1
  26   11   15 1
  27   11   47 1
  28   12   13 1
  29   12   16 1
  30   12   48 1
  31   13   14 1
  32   13   18 1
  33   14   15 1
  34   14   49 1
  35   14   50 1
  36   15   51 1
  37   15   52 1
  38   16   17 1
  39   16   53 1
  40   16   54 1
  41   17   18 1
  42   17   55 1
  43   17   56 1
  44   18   20 2
  45   19   57 1
  46   20   21 1
  47   21   22 am
  48   21   58 1
  49   22   23 1
  50   22   24 2
  51   23   25 1
  52   23   59 1
  53   23   60 1
  54   25   26 1
  55   25   61 1
  56   25   62 1
  57   26   27 1
  58   26   63 1
  59   26   64 1
  60   27   28 1
  61   27   65 1
  62   27   66 1
  63   28   29 1
  64   28   67 1
  65   28   68 1
  66   29   30 am
  67   29   33 am
  68   30   31 1
  69   30   34 2
  70   31   32 2
  71   31   69 1
  72   32   33 1
  73   32   70 1
  74   33   35 2

#	End of record

