#	Name: ASD04880997
#	Creating user name:	WinNT
#	Creation time:	15. 06. 2019 20:53

#	Modifying user name:	WinNT
#	Modification time:	15. 06. 2019 20:53

#	Program:	/corina/corina34_cracker 3.40 0067  02.08.2006

@<TRIPOS>MOLECULE
ASD04880997
  80   84    0    0    0
SMALL
NO_CHARGES


@<TRIPOS>ATOM
   1 C1            -0.1106     0.5179     0.1795 C.2     
   2 C2             0.0877    -0.9345     0.1451 C.2     
   3 O3            -0.7229    -1.6721     0.6745 O.2     
   4 N4             1.1677    -1.4527    -0.4727 N.am    
   5 C5             1.4028    -2.8332    -0.4319 C.ar    
   6 C6             2.7110    -3.3222    -0.4937 C.ar    
   7 C7             2.9458    -4.6914    -0.4528 C.ar    
   8 C8             1.8908    -5.5715    -0.3513 C.ar    
   9 C9             0.5808    -5.0895    -0.2891 C.ar    
  10 C10            0.3422    -3.7124    -0.3247 C.ar    
  11 C11           -0.5488    -6.0323    -0.1809 C.2     
  12 O12           -1.6885    -5.6119    -0.1268 O.2     
  13 N13           -0.3175    -7.3595    -0.1420 N.am    
  14 C14           -1.4392    -8.2957    -0.0346 C.3     
  15 C15           -0.9062    -9.7296    -0.0103 C.3     
  16 N16            3.7804    -2.4362    -0.5968 N.3     
  17 C17            4.6457    -2.5149     0.5883 C.3     
  18 C18            5.7607    -1.4729     0.4727 C.3     
  19 N19            6.5305    -1.7171    -0.7551 N.3     
  20 C20            5.6651    -1.6384    -1.9402 C.3     
  21 C21            4.5501    -2.6804    -1.8246 C.3     
  22 C22           -2.0776   -10.7073     0.1019 C.3     
  23 N23           -1.5672   -12.0804     0.1253 N.am    
  24 C24           -1.2035   -12.8080     1.3468 C.3     
  25 C25           -0.3342   -13.9950     0.8761 C.3     
  26 C26           -0.8285   -14.1915    -0.5758 C.3     
  27 C27           -1.3773   -12.8376    -0.9690 C.2     
  28 O28            0.7066     1.4428    -0.3654 O.3     
  29 C29            0.2088     2.6652    -0.1377 C.2     
  30 C30           -0.9417     2.5431     0.5604 C.2     
  31 C31           -1.1580     1.1711     0.7635 C.2     
  32 C32            0.8298     3.9631    -0.5860 C.3     
  33 C33            6.4937    -1.9146    -3.1965 C.3     
  34 O34           -1.6097   -12.4858    -2.1061 O.2     
  35 C35            7.6586    -0.7825    -0.8639 C.3     
  36 C36            8.6378    -1.0451     0.2511 C.ar    
  37 C37            8.6853    -0.1990     1.3431 C.ar    
  38 C38            9.5838    -0.4394     2.3656 C.ar    
  39 C39           10.4356    -1.5263     2.2967 C.ar    
  40 C40           10.3888    -2.3732     1.2057 C.ar    
  41 C41            9.4856    -2.1362     0.1845 C.ar    
  42 Cl42           9.4212    -3.2037    -1.1830 Cl      
  43 H43            1.7821    -0.8699    -0.9456 H       
  44 H44            3.9575    -5.0663    -0.5012 H       
  45 H45            2.0765    -6.6350    -0.3202 H       
  46 H46           -0.6691    -3.3367    -0.2727 H       
  47 H47            0.5917    -7.6948    -0.1852 H       
  48 H48           -1.9911    -8.0975     0.8842 H       
  49 H49           -2.1016    -8.1688    -0.8909 H       
  50 H50           -0.3543    -9.9277    -0.9291 H       
  51 H51           -0.2437    -9.8565     0.8460 H       
  52 H52            4.0555    -2.3182     1.4833 H       
  53 H53            5.0840    -3.5108     0.6531 H       
  54 H54            5.3235    -0.4751     0.4354 H       
  55 H55            6.4206    -1.5490     1.3369 H       
  56 H56            5.2269    -0.6425    -2.0050 H       
  57 H57            4.9873    -3.6782    -1.7873 H       
  58 H58            3.8902    -2.6043    -2.6888 H       
  59 H59           -2.6295   -10.5092     1.0208 H       
  60 H60           -2.7401   -10.5805    -0.7543 H       
  61 H61           -0.6317   -12.1629     2.0139 H       
  62 H62           -2.0993   -13.1724     1.8497 H       
  63 H63            0.7242   -13.7355     0.8961 H       
  64 H64           -0.5280   -14.8831     1.4776 H       
  65 H65           -0.0003   -14.4739    -1.2258 H       
  66 H66           -1.6167   -14.9435    -0.6121 H       
  67 H67           -1.5773     3.3493     0.8957 H       
  68 H68           -1.9902     0.7198     1.2832 H       
  69 H69            1.7524     3.7563    -1.1282 H       
  70 H70            0.1353     4.4917    -1.2389 H       
  71 H71            1.0508     4.5801     0.2850 H       
  72 H72            6.9309    -2.9110    -3.1316 H       
  73 H73            5.8516    -1.8562    -4.0753 H       
  74 H74            7.2888    -1.1735    -3.2775 H       
  75 H75            8.1551    -0.9225    -1.8241 H       
  76 H76            7.2907     0.2410    -0.7908 H       
  77 H77            8.0204     0.6504     1.3973 H       
  78 H78            9.6207     0.2221     3.2184 H       
  79 H79           11.1379    -1.7133     3.0956 H       
  80 H80           11.0544    -3.2220     1.1518 H       
@<TRIPOS>BOND
   1    1    2 1
   2    1   28 1
   3    1   31 2
   4    2    3 2
   5    2    4 am
   6    4    5 1
   7    4   43 1
   8    5    6 ar
   9    5   10 ar
  10    6    7 ar
  11    6   16 1
  12    7    8 ar
  13    7   44 1
  14    8    9 ar
  15    8   45 1
  16    9   10 ar
  17    9   11 1
  18   10   46 1
  19   11   12 2
  20   11   13 am
  21   13   14 1
  22   13   47 1
  23   14   15 1
  24   14   48 1
  25   14   49 1
  26   15   22 1
  27   15   50 1
  28   15   51 1
  29   16   17 1
  30   16   21 1
  31   17   18 1
  32   17   52 1
  33   17   53 1
  34   18   19 1
  35   18   54 1
  36   18   55 1
  37   19   20 1
  38   19   35 1
  39   20   21 1
  40   20   33 1
  41   20   56 1
  42   21   57 1
  43   21   58 1
  44   22   23 1
  45   22   59 1
  46   22   60 1
  47   23   24 1
  48   23   27 am
  49   24   25 1
  50   24   61 1
  51   24   62 1
  52   25   26 1
  53   25   63 1
  54   25   64 1
  55   26   27 1
  56   26   65 1
  57   26   66 1
  58   27   34 2
  59   28   29 1
  60   29   30 2
  61   29   32 1
  62   30   31 1
  63   30   67 1
  64   31   68 1
  65   32   69 1
  66   32   70 1
  67   32   71 1
  68   33   72 1
  69   33   73 1
  70   33   74 1
  71   35   36 1
  72   35   75 1
  73   35   76 1
  74   36   37 ar
  75   36   41 ar
  76   37   38 ar
  77   37   77 1
  78   38   39 ar
  79   38   78 1
  80   39   40 ar
  81   39   79 1
  82   40   41 ar
  83   40   80 1
  84   41   42 1

#	End of record

