#	Name: ASD03240730
#	Creating user name:	WinNT
#	Creation time:	15. 06. 2019 20:35

#	Modifying user name:	WinNT
#	Modification time:	15. 06. 2019 20:35

#	Program:	/corina/corina34_cracker 3.40 0067  02.08.2006

@<TRIPOS>MOLECULE
ASD03240730
  84   91    0    0    0
SMALL
NO_CHARGES


@<TRIPOS>ATOM
   1 C1            -0.1795     1.6274    -0.1451 C.2     
   2 N2            -0.1980     0.2828    -0.1603 N.2     
   3 C3             0.9012    -0.4263    -0.1659 C.2     
   4 C4             2.1903     0.2621    -0.1554 C.ar    
   5 C5             2.2030     1.6733    -0.1394 C.ar    
   6 N6             0.9910     2.3366    -0.1346 N.pl3   
   7 C7             3.3995    -0.4407    -0.1602 C.ar    
   8 C8             4.5805     0.2947    -0.1489 C.ar    
   9 C9             4.5130     1.7012    -0.1332 C.ar    
  10 N10            3.3483     2.3324    -0.1291 N.ar    
  11 N11            0.6672     3.6987    -0.1199 N.2     
  12 C12           -0.6383     3.8229    -0.1213 C.2     
  13 C13           -1.2105     2.5570    -0.1311 C.2     
  14 C14            5.7668     2.4891    -0.1206 C.ar    
  15 C15            5.8360     3.7061    -0.7987 C.ar    
  16 C16            7.0071     4.4355    -0.7833 C.ar    
  17 C17            8.1113     3.9621    -0.0972 C.ar    
  18 C18            8.0489     2.7558     0.5772 C.ar    
  19 C19            6.8817     2.0199     0.5741 C.ar    
  20 C20            9.3874     4.7636    -0.0849 C.3     
  21 N21            9.3764     5.6843     1.0598 N.3     
  22 C22           10.6920     6.3099     1.2446 C.3     
  23 C23           10.6850     7.1465     2.5261 C.3     
  24 C24            9.5983     8.2203     2.4228 C.3     
  25 C25            8.2454     7.5448     2.1822 C.3     
  26 C26            8.3232     6.6967     0.9107 C.3     
  27 C27            9.5463     9.0092     3.7058 C.2     
  28 O28            8.7798     8.6833     4.5874 O.2     
  29 N29           10.3515    10.0768     3.8736 N.am    
  30 C30           10.2348    10.9305     5.0655 C.3     
  31 C31           11.6251    11.0858     5.6911 C.3     
  32 N32           12.5662    11.5680     4.6715 N.3     
  33 C33           12.7158    10.5946     3.5815 C.3     
  34 C34           11.3744    10.4156     2.8725 C.3     
  35 C35           13.7929    11.8750     5.2343 C.ar    
  36 N36           14.7662    12.3265     4.4570 N.ar    
  37 C37           15.9503    12.6291     4.9630 C.ar    
  38 C38           16.1655    12.4686     6.3228 C.ar    
  39 C39           15.1256    11.9941     7.1068 C.ar    
  40 N40           13.9642    11.7153     6.5383 N.ar    
  41 C41            5.8935    -0.3938    -0.1528 C.ar    
  42 C42            6.1507    -1.4151     0.7604 C.ar    
  43 C43            7.3746    -2.0527     0.7518 C.ar    
  44 C44            8.3452    -1.6801    -0.1607 C.ar    
  45 C45            8.0956    -0.6673    -1.0693 C.ar    
  46 C46            6.8735    -0.0262    -1.0735 C.ar    
  47 C47           -1.3946     5.1263    -0.1083 C.3     
  48 H48            0.8567    -1.5053    -0.1779 H       
  49 H49            3.4160    -1.5205    -0.1720 H       
  50 H50           -2.2676     2.3358    -0.1301 H       
  51 H51            4.9748     4.0765    -1.3349 H       
  52 H52            7.0620     5.3778    -1.3082 H       
  53 H53            8.9142     2.3915     1.1110 H       
  54 H54            6.8327     1.0807     1.1049 H       
  55 H55           10.2394     4.0890    -0.0004 H       
  56 H56            9.4667     5.3348    -1.0098 H       
  57 H57           11.4550     5.5353     1.3208 H       
  58 H58           10.9113     6.9529     0.3923 H       
  59 H59           10.4793     6.5017     3.3805 H       
  60 H60           11.6567     7.6232     2.6548 H       
  61 H61            9.8246     8.8888     1.5921 H       
  62 H62            8.0014     6.9063     3.0312 H       
  63 H63            7.4742     8.3062     2.0652 H       
  64 H64            8.5536     7.3379     0.0600 H       
  65 H65            7.3658     6.2030     0.7444 H       
  66 H66            9.8510    11.9095     4.7786 H       
  67 H67            9.5598    10.4657     5.7842 H       
  68 H68           11.5772    11.8033     6.5103 H       
  69 H69           11.9628    10.1216     6.0709 H       
  70 H70           13.4591    10.9558     2.8707 H       
  71 H71           13.0384     9.6372     3.9906 H       
  72 H72           11.4525     9.6105     2.1418 H       
  73 H73           11.1022    11.3442     2.3706 H       
  74 H74           16.7399    12.9965     4.3244 H       
  75 H75           17.1228    12.7078     6.7619 H       
  76 H76           15.2607    11.8573     8.1696 H       
  77 H77            5.3938    -1.7066     1.4735 H       
  78 H78            7.5751    -2.8439     1.4591 H       
  79 H79            9.3017    -2.1816    -0.1636 H       
  80 H80            8.8572    -0.3803    -1.7792 H       
  81 H81            6.6783     0.7616    -1.7859 H       
  82 H82           -1.5751     5.4519    -1.1328 H       
  83 H83           -2.3476     4.9883     0.4023 H       
  84 H84           -0.8081     5.8815     0.4150 H       
@<TRIPOS>BOND
   1    1    2 1
   2    1    6 1
   3    1   13 2
   4    2    3 2
   5    3    4 1
   6    3   48 1
   7    4    5 ar
   8    4    7 ar
   9    5    6 1
  10    5   10 ar
  11    6   11 1
  12    7    8 ar
  13    7   49 1
  14    8    9 ar
  15    8   41 1
  16    9   10 ar
  17    9   14 1
  18   11   12 2
  19   12   13 1
  20   12   47 1
  21   13   50 1
  22   14   15 ar
  23   14   19 ar
  24   15   16 ar
  25   15   51 1
  26   16   17 ar
  27   16   52 1
  28   17   18 ar
  29   17   20 1
  30   18   19 ar
  31   18   53 1
  32   19   54 1
  33   20   21 1
  34   20   55 1
  35   20   56 1
  36   21   22 1
  37   21   26 1
  38   22   23 1
  39   22   57 1
  40   22   58 1
  41   23   24 1
  42   23   59 1
  43   23   60 1
  44   24   25 1
  45   24   27 1
  46   24   61 1
  47   25   26 1
  48   25   62 1
  49   25   63 1
  50   26   64 1
  51   26   65 1
  52   27   28 2
  53   27   29 am
  54   29   30 1
  55   29   34 1
  56   30   31 1
  57   30   66 1
  58   30   67 1
  59   31   32 1
  60   31   68 1
  61   31   69 1
  62   32   33 1
  63   32   35 1
  64   33   34 1
  65   33   70 1
  66   33   71 1
  67   34   72 1
  68   34   73 1
  69   35   36 ar
  70   35   40 ar
  71   36   37 ar
  72   37   38 ar
  73   37   74 1
  74   38   39 ar
  75   38   75 1
  76   39   40 ar
  77   39   76 1
  78   41   42 ar
  79   41   46 ar
  80   42   43 ar
  81   42   77 1
  82   43   44 ar
  83   43   78 1
  84   44   45 ar
  85   44   79 1
  86   45   46 ar
  87   45   80 1
  88   46   81 1
  89   47   82 1
  90   47   83 1
  91   47   84 1

#	End of record

