#	Name: ASD09720046
#	Creating user name:	WinNT
#	Creation time:	15. 06. 2019 21:22

#	Modifying user name:	WinNT
#	Modification time:	15. 06. 2019 21:22

#	Program:	/corina/corina34_cracker 3.40 0067  02.08.2006

@<TRIPOS>MOLECULE
ASD09720046
  40   41    0    0    0
SMALL
NO_CHARGES


@<TRIPOS>ATOM
   1 C1            -0.2193     1.3350     0.6891 C.ar    
   2 C2            -0.0472    -0.1236     0.5381 C.2     
   3 N3             0.8249    -0.5890    -0.2958 N.2     
   4 C4            -0.8878    -1.0701     1.3558 C.3     
   5 O5             1.5210     0.2926    -1.1578 O.3     
   6 S6            -0.4442    -2.7807     0.9463 S.3     
   7 C7            -1.5115    -3.7257     1.9819 C.ar    
   8 C8            -1.4634    -5.1143     1.9495 C.ar    
   9 C9            -2.3013    -5.8516     2.7624 C.ar    
  10 C10           -3.1880    -5.2099     3.6079 C.ar    
  11 C11           -3.2390    -3.8283     3.6425 C.ar    
  12 C12           -2.3994    -3.0844     2.8372 C.ar    
  13 C13            0.8748     2.1881     0.5414 C.ar    
  14 C14            0.7055     3.5551     0.6840 C.ar    
  15 C15           -0.5494     4.0735     0.9728 C.ar    
  16 C16           -1.6349     3.2294     1.1195 C.ar    
  17 C17           -1.4788     1.8663     0.9744 C.ar    
  18 O18            1.7687     4.3896     0.5414 O.3     
  19 H19           -2.6086     3.6388     1.3446 H       
  20 C20            1.5025     5.7929     0.5856 C.3     
  21 C21            1.4861     6.2633     2.0414 C.3     
  22 C22            2.5937     6.5434    -0.1806 C.3     
  23 H23           -0.7083    -0.8921     2.4161 H       
  24 H24           -1.9420    -0.9049     1.1331 H       
  25 H25            2.1515    -0.1471    -1.7445 H       
  26 H26           -0.7717    -5.6160     1.2890 H       
  27 H27           -2.2645    -6.9307     2.7377 H       
  28 H28           -3.8425    -5.7892     4.2423 H       
  29 H29           -3.9329    -3.3306     4.3037 H       
  30 H30           -2.4398    -2.0055     2.8647 H       
  31 H31            1.8507     1.7835     0.3170 H       
  32 H32           -0.6784     5.1400     1.0838 H       
  33 H33           -2.3286     1.2099     1.0896 H       
  34 H34            0.5338     5.9936     0.1281 H       
  35 H35            1.2831     7.3337     2.0752 H       
  36 H36            0.7088     5.7286     2.5873 H       
  37 H37            2.4549     6.0626     2.4990 H       
  38 H38            2.6053     6.2083    -1.2177 H       
  39 H39            2.3906     7.6138    -0.1468 H       
  40 H40            3.5624     6.3428     0.2770 H       
@<TRIPOS>BOND
   1    1    2 1
   2    1   13 ar
   3    1   17 ar
   4    2    3 2
   5    2    4 1
   6    3    5 1
   7    4    6 1
   8    4   23 1
   9    4   24 1
  10    5   25 1
  11    6    7 1
  12    7    8 ar
  13    7   12 ar
  14    8    9 ar
  15    8   26 1
  16    9   10 ar
  17    9   27 1
  18   10   11 ar
  19   10   28 1
  20   11   12 ar
  21   11   29 1
  22   12   30 1
  23   13   14 ar
  24   13   31 1
  25   14   15 ar
  26   14   18 1
  27   15   16 ar
  28   15   32 1
  29   16   17 ar
  30   16   19 1
  31   17   33 1
  32   18   20 1
  33   20   21 1
  34   20   22 1
  35   20   34 1
  36   21   35 1
  37   21   36 1
  38   21   37 1
  39   22   38 1
  40   22   39 1
  41   22   40 1

#	End of record

