#	Name: ASD01917930
#	Creating user name:	WinNT
#	Creation time:	15. 06. 2019 20:10

#	Modifying user name:	WinNT
#	Modification time:	15. 06. 2019 20:10

#	Program:	/corina/corina34_cracker 3.40 0067  02.08.2006

@<TRIPOS>MOLECULE
ASD01917930
  41   44    0    0    0
SMALL
NO_CHARGES


@<TRIPOS>ATOM
   1 N1             4.8220    -0.4108    -2.1393 N.ar    
   2 C2             5.2888     0.2864    -3.1566 C.ar    
   3 C3             5.1761     1.6662    -3.1833 C.ar    
   4 C4             4.5619     2.3154    -2.1216 C.ar    
   5 C5             4.0814     1.5472    -1.0665 C.ar    
   6 C6             4.2326     0.1683    -1.1125 C.ar    
   7 F7             5.6583     2.3716    -4.2297 F       
   8 O8             3.4731     2.1385    -0.0049 O.3     
   9 C9             3.4533     3.4976     0.0441 C.2     
  10 N10            2.2018     5.5098    -0.0220 N.pl3   
  11 C11            2.2703     4.1540    -0.0658 C.2     
  12 C12            4.6527     4.1996     0.2130 C.2     
  13 C13            4.6243     5.5890     0.2626 C.2     
  14 C14            3.3316     6.2614     0.1351 C.2     
  15 C15            5.8641     6.3636     0.4396 C.2     
  16 N16            5.8169     7.7098     0.4853 N.am    
  17 C17            6.9724     8.4384     0.7580 C.ar    
  18 N18            8.1338     7.8102     0.8637 N.ar    
  19 C19            6.8959     9.8169     0.9105 C.ar    
  20 C20            8.0509    10.5327     1.1811 C.ar    
  21 C21            9.2474     9.8427     1.2903 C.ar    
  22 C22            9.2541     8.4648     1.1212 C.ar    
  23 O23            6.9307     5.7886     0.5445 O.2     
  24 N24            1.1387     6.4205    -0.1088 N.2     
  25 C25            1.6530     7.6235    -0.0120 C.2     
  26 N26            2.9681     7.5342     0.1405 N.2     
  27 O27           10.4223     7.7822     1.2214 O.3     
  28 C28           10.3641     6.3663     1.0375 C.3     
  29 H29            5.7656    -0.2254    -3.9795 H       
  30 H30            4.4600     3.3905    -2.1148 H       
  31 H31            3.8631    -0.4369    -0.2979 H       
  32 H32            1.3614     3.5844    -0.1916 H       
  33 H33            5.5887     3.6685     0.3041 H       
  34 H34            4.9783     8.1712     0.3284 H       
  35 H35            5.9472    10.3249     0.8189 H       
  36 H36            8.0192    11.6052     1.3038 H       
  37 H37           10.1654    10.3716     1.5001 H       
  38 H38            1.0910     8.5453    -0.0431 H       
  39 H39            9.7044     5.9294     1.7872 H       
  40 H40            9.9798     6.1446     0.0419 H       
  41 H41           11.3638     5.9448     1.1433 H       
@<TRIPOS>BOND
   1    1    2 ar
   2    1    6 ar
   3    2    3 ar
   4    2   29 1
   5    3    4 ar
   6    3    7 1
   7    4    5 ar
   8    4   30 1
   9    5    6 ar
  10    5    8 1
  11    6   31 1
  12    8    9 1
  13    9   12 1
  14    9   11 2
  15   10   11 1
  16   10   24 1
  17   10   14 1
  18   11   32 1
  19   12   13 2
  20   12   33 1
  21   13   14 1
  22   13   15 1
  23   14   26 2
  24   15   16 am
  25   15   23 2
  26   16   17 1
  27   16   34 1
  28   17   19 ar
  29   17   18 ar
  30   18   22 ar
  31   19   20 ar
  32   19   35 1
  33   20   21 ar
  34   20   36 1
  35   21   22 ar
  36   21   37 1
  37   22   27 1
  38   24   25 2
  39   25   26 1
  40   25   38 1
  41   27   28 1
  42   28   39 1
  43   28   40 1
  44   28   41 1

#	End of record

