#	Name: ASD09116346
#	Creating user name:	WinNT
#	Creation time:	15. 06. 2019 21:21

#	Modifying user name:	WinNT
#	Modification time:	15. 06. 2019 21:21

#	Program:	/corina/corina34_cracker 3.40 0067  02.08.2006

@<TRIPOS>MOLECULE
ASD09116346
  74   80    0    0    0
SMALL
NO_CHARGES


@<TRIPOS>ATOM
   1 N1             0.1498     1.5179    -1.6033 N.2     
   2 N2             0.1988     0.2328    -2.1671 N.pl3   
   3 C3             1.3900     1.8997    -1.4126 C.2     
   4 N4             2.2135     0.9285    -1.8241 N.2     
   5 C5             1.5098    -0.0846    -2.2822 C.2     
   6 N6             2.0190    -1.2644    -2.7905 N.pl3   
   7 C7            -0.8891    -0.5606    -2.5359 C.ar    
   8 N8             1.7867     3.1212    -0.8685 N.pl3   
   9 C9             3.1416     3.3680    -0.6154 C.ar    
  10 C10            3.6375     4.6634    -0.6913 C.ar    
  11 C11            3.9879     2.3188    -0.2832 C.ar    
  12 C12            5.3249     2.5615    -0.0329 C.ar    
  13 C13            5.8229     3.8540    -0.1139 C.ar    
  14 C14            4.9748     4.9066    -0.4415 C.ar    
  15 N15            7.1790     4.0997     0.1406 N.3     
  16 F16            5.4593     6.1652    -0.5209 F       
  17 N17           -0.7456    -1.4886    -3.4702 N.ar    
  18 N18           -1.7170    -2.2387    -3.8528 N.ar    
  19 C19           -2.9280    -2.1252    -3.3314 C.ar    
  20 C20           -3.1685    -1.1869    -2.3236 C.ar    
  21 C21           -2.1279    -0.3796    -1.9155 C.ar    
  22 C22           -4.0618    -2.9507    -3.8083 C.ar    
  23 C23           -5.2643    -2.3215    -4.1341 C.ar    
  24 C24           -5.3602    -0.8229    -4.0466 C.3     
  25 C25           -5.5033    -0.3576    -2.6001 C.3     
  26 C26           -4.5281    -1.1033    -1.6931 C.3     
  27 C27           -3.9436    -4.3309    -3.9296 C.ar    
  28 C28           -5.0269    -5.0750    -4.3552 C.ar    
  29 C29           -6.2231    -4.4499    -4.6571 C.ar    
  30 C30           -6.3423    -3.0753    -4.5459 C.ar    
  31 C31            7.4521     5.5416     0.1909 C.3     
  32 C32            8.0301     3.4324    -0.8527 C.3     
  33 C33            9.5002     3.6003    -0.4620 C.3     
  34 C34            9.8377     5.0923    -0.3930 C.3     
  35 C35            8.9049     5.7726     0.6128 C.3     
  36 N36            9.1837     7.2146     0.6426 N.3     
  37 C37            8.3452     7.8942     1.6471 C.3     
  38 C38            9.2965     8.6259     2.6172 C.3     
  39 C39           10.5922     8.7889     1.7796 C.3     
  40 C40           10.6038     7.4732     0.9620 C.3     
  41 H41            2.9785    -1.4004    -2.8322 H       
  42 H42            1.4169    -1.9566    -3.1055 H       
  43 H43            1.1239     3.7998    -0.6654 H       
  44 H44            2.9783     5.4802    -0.9458 H       
  45 H45            3.6009     1.3125    -0.2200 H       
  46 H46            5.9824     1.7448     0.2262 H       
  47 H47           -2.2670     0.3697    -1.1503 H       
  48 H48           -4.4601    -0.3824    -4.4755 H       
  49 H49           -6.2265    -0.4872    -4.6166 H       
  50 H50           -5.2985     0.7115    -2.5451 H       
  51 H51           -6.5225    -0.5449    -2.2621 H       
  52 H52           -4.9032    -2.1111    -1.5151 H       
  53 H53           -4.4501    -0.5775    -0.7415 H       
  54 H54           -3.0098    -4.8186    -3.6918 H       
  55 H55           -4.9394    -6.1471    -4.4528 H       
  56 H56           -7.0692    -5.0376    -4.9816 H       
  57 H57           -7.2796    -2.5936    -4.7820 H       
  58 H58            7.2864     5.9773    -0.7945 H       
  59 H59            6.7850     6.0127     0.9128 H       
  60 H60            7.7828     2.3714    -0.8888 H       
  61 H61            7.8617     3.8779    -1.8332 H       
  62 H62            9.6723     3.1429     0.5123 H       
  63 H63           10.1323     3.1183    -1.2078 H       
  64 H64           10.8721     5.2173    -0.0729 H       
  65 H65            9.7029     5.5421    -1.3767 H       
  66 H66            9.0677     5.3493     1.6040 H       
  67 H67            7.6896     8.6141     1.1572 H       
  68 H68            7.7519     7.1604     2.1926 H       
  69 H69            8.8912     9.5993     2.8935 H       
  70 H70            9.4842     8.0197     3.5034 H       
  71 H71           10.5259     9.6562     1.1227 H       
  72 H72           11.4683     8.8555     2.4246 H       
  73 H73           11.0128     6.6586     1.5598 H       
  74 H74           11.1816     7.6004     0.0466 H       
@<TRIPOS>BOND
   1    1    2 1
   2    1    3 2
   3    2    7 1
   4    2    5 1
   5    3    4 1
   6    3    8 1
   7    4    5 2
   8    5    6 1
   9    6   41 1
  10    6   42 1
  11    7   17 ar
  12    7   21 ar
  13    8    9 1
  14    8   43 1
  15    9   10 ar
  16    9   11 ar
  17   10   14 ar
  18   10   44 1
  19   11   12 ar
  20   11   45 1
  21   12   13 ar
  22   12   46 1
  23   13   14 ar
  24   13   15 1
  25   14   16 1
  26   15   32 1
  27   15   31 1
  28   17   18 ar
  29   18   19 ar
  30   19   20 ar
  31   19   22 1
  32   20   21 ar
  33   20   26 1
  34   21   47 1
  35   22   23 ar
  36   22   27 ar
  37   23   24 1
  38   23   30 ar
  39   24   25 1
  40   24   48 1
  41   24   49 1
  42   25   26 1
  43   25   50 1
  44   25   51 1
  45   26   52 1
  46   26   53 1
  47   27   28 ar
  48   27   54 1
  49   28   29 ar
  50   28   55 1
  51   29   30 ar
  52   29   56 1
  53   30   57 1
  54   31   35 1
  55   31   58 1
  56   31   59 1
  57   32   33 1
  58   32   60 1
  59   32   61 1
  60   33   34 1
  61   33   62 1
  62   33   63 1
  63   34   35 1
  64   34   64 1
  65   34   65 1
  66   35   36 1
  67   35   66 1
  68   36   37 1
  69   36   40 1
  70   37   38 1
  71   37   67 1
  72   37   68 1
  73   38   39 1
  74   38   69 1
  75   38   70 1
  76   39   40 1
  77   39   71 1
  78   39   72 1
  79   40   73 1
  80   40   74 1

#	End of record

