#	Name: ASD01812235
#	Creating user name:	WinNT
#	Creation time:	15. 06. 2019 19:28

#	Modifying user name:	WinNT
#	Modification time:	15. 06. 2019 19:28

#	Program:	/corina/corina34_cracker 3.40 0067  02.08.2006

@<TRIPOS>MOLECULE
ASD01812235
  58   62    0    0    0
SMALL
NO_CHARGES


@<TRIPOS>ATOM
   1 C1            -0.0352     1.3592     0.2227 C.ar    
   2 C2            -0.0050    -0.0342     0.2215 C.ar    
   3 C3             1.1902    -0.6900     0.1367 C.ar    
   4 C4             2.3662     0.0786     0.0523 C.ar    
   5 C5             2.2637     1.4932     0.0586 C.ar    
   6 N6             1.0613     2.0721     0.1440 N.ar    
   7 C7             3.6302    -0.5292    -0.0370 C.ar    
   8 C8             4.7502     0.2336    -0.1170 C.ar    
   9 C9             4.6679     1.6393    -0.1121 C.ar    
  10 C10            3.4327     2.2602    -0.0254 C.ar    
  11 C11            3.7425    -2.0320    -0.0434 C.3     
  12 C12            5.7085     2.6854    -0.1868 C.2     
  13 N13            5.1466     3.9057    -0.1478 N.am    
  14 C14            3.6916     3.7456    -0.0447 C.3     
  15 O15            6.9023     2.4727    -0.2714 O.2     
  16 C16            5.8658     5.1810    -0.1991 C.3     
  17 C17            6.6558     5.2715    -1.5084 C.3     
  18 C18            7.4653     6.5708    -1.5180 C.3     
  19 O19            8.3286     6.6011    -0.3796 O.3     
  20 C20            7.6428     6.5669     0.8737 C.3     
  21 C21            6.8404     5.2675     0.9794 C.3     
  22 N22            3.5473    -2.5434     1.3198 N.3     
  23 C23            3.2840    -3.9880     1.3073 C.3     
  24 C24            2.9428    -4.4580     2.7232 C.3     
  25 C25            4.1146    -4.1421     3.6568 C.3     
  26 C26            4.3995    -2.6382     3.6145 C.3     
  27 C27            4.6984    -2.2209     2.1727 C.3     
  28 O28            5.7503     5.2648    -2.6139 O.3     
  29 F29            3.7862    -4.5191     4.9634 F       
  30 C30            3.0052     4.3837    -1.2541 C.3     
  31 H31           -0.9876     1.8646     0.2857 H       
  32 H32           -0.9257    -0.5949     0.2879 H       
  33 H33            1.2317    -1.7692     0.1348 H       
  34 H34            5.7167    -0.2437    -0.1848 H       
  35 H35            2.9806    -2.4505    -0.7010 H       
  36 H36            4.7305    -2.3209    -0.4018 H       
  37 H37            3.3286     4.2023     0.8760 H       
  38 H38            5.1541     6.0048    -0.1450 H       
  39 H39            7.3322     4.4203    -1.5852 H       
  40 H40            8.0626     6.6202    -2.4285 H       
  41 H41            6.7861     7.4226    -1.4820 H       
  42 H42            8.3680     6.6135     1.6862 H       
  43 H43            6.9660     7.4187     0.9410 H       
  44 H44            6.2818     5.2595     1.9154 H       
  45 H45            7.5206     4.4162     0.9528 H       
  46 H46            2.4459    -4.1986     0.6429 H       
  47 H47            4.1695    -4.5156     0.9529 H       
  48 H48            2.0493    -3.9410     3.0729 H       
  49 H49            2.7627    -5.5330     2.7162 H       
  50 H50            4.9987    -4.6896     3.3299 H       
  51 H51            3.5289    -2.0925     3.9782 H       
  52 H52            5.2602    -2.4130     4.2443 H       
  53 H53            5.5774    -2.7568     1.8144 H       
  54 H54            4.8877    -1.1481     2.1370 H       
  55 H55            6.1829     5.3198    -3.4770 H       
  56 H56            3.3542     3.9006    -2.1668 H       
  57 H57            1.9258     4.2589    -1.1669 H       
  58 H58            3.2463     5.4460    -1.2902 H       
@<TRIPOS>BOND
   1    1    2 ar
   2    1    6 ar
   3    1   31 1
   4    2    3 ar
   5    2   32 1
   6    3    4 ar
   7    3   33 1
   8    4    5 ar
   9    4    7 ar
  10    5    6 ar
  11    5   10 ar
  12    7    8 ar
  13    7   11 1
  14    8    9 ar
  15    8   34 1
  16    9   10 ar
  17    9   12 1
  18   10   14 1
  19   11   22 1
  20   11   35 1
  21   11   36 1
  22   12   13 am
  23   12   15 2
  24   13   14 1
  25   13   16 1
  26   14   30 1
  27   14   37 1
  28   16   17 1
  29   16   21 1
  30   16   38 1
  31   17   18 1
  32   17   28 1
  33   17   39 1
  34   18   19 1
  35   18   40 1
  36   18   41 1
  37   19   20 1
  38   20   21 1
  39   20   42 1
  40   20   43 1
  41   21   44 1
  42   21   45 1
  43   22   23 1
  44   22   27 1
  45   23   24 1
  46   23   46 1
  47   23   47 1
  48   24   25 1
  49   24   48 1
  50   24   49 1
  51   25   26 1
  52   25   29 1
  53   25   50 1
  54   26   27 1
  55   26   51 1
  56   26   52 1
  57   27   53 1
  58   27   54 1
  59   28   55 1
  60   30   56 1
  61   30   57 1
  62   30   58 1

#	End of record

