#	Name: ASD01910154
#	Creating user name:	WinNT
#	Creation time:	15. 06. 2019 19:55

#	Modifying user name:	WinNT
#	Modification time:	15. 06. 2019 19:55

#	Program:	/corina/corina34_cracker 3.40 0067  02.08.2006

@<TRIPOS>MOLECULE
ASD01910154
  44   46    0    0    0
SMALL
NO_CHARGES


@<TRIPOS>ATOM
   1 C1             0.0498     1.2898     0.1376 C.ar    
   2 C2            -1.0358     1.7091    -0.6125 C.ar    
   3 C3            -0.9425     2.8447    -1.4024 C.ar    
   4 C4             0.2345     3.5637    -1.4445 C.ar    
   5 C5             1.3320     3.1452    -0.6894 C.ar    
   6 C6             1.2314     2.0005     0.1035 C.ar    
   7 C7             2.5954     3.9103    -0.7302 C.2     
   8 N8             3.6532     3.5040    -0.0004 N.am    
   9 C9             4.8771     4.1713    -0.1116 C.ar    
  10 C10            4.9042     5.5454    -0.3013 C.ar    
  11 C11            6.1209     6.2039    -0.4112 C.ar    
  12 C12            7.3074     5.4856    -0.3310 C.ar    
  13 C13            7.2769     4.1171    -0.1424 C.ar    
  14 C14            6.0676     3.4596    -0.0265 C.ar    
  15 N15            6.1526     7.5888    -0.6030 N.am    
  16 C16            7.1273     8.3257    -0.0344 C.2     
  17 C17            7.1038     9.7960    -0.1513 C.ar    
  18 C18            6.0732    10.4286    -0.8503 C.ar    
  19 C19            6.0567    11.8028    -0.9554 C.ar    
  20 C20            7.0580    12.5604    -0.3708 C.ar    
  21 C21            8.0828    11.9478     0.3232 C.ar    
  22 C22            8.1124    10.5667     0.4435 C.ar    
  23 O23            9.1183     9.9636     1.1253 O.3     
  24 C24           10.1162    10.8129     1.6952 C.3     
  25 O25            2.6808     4.9063    -1.4221 O.2     
  26 O26            8.0262     7.7786     0.5749 O.2     
  27 Cl27          -2.3083     3.3625    -2.3406 Cl      
  28 Cl28          -2.5195     0.8091    -0.5643 Cl      
  29 H29           -0.0301     0.4068     0.7543 H       
  30 H30            0.3068     4.4481    -2.0602 H       
  31 H31            2.0770     1.6726     0.6897 H       
  32 H32            3.5655     2.7488     0.6019 H       
  33 H33            3.9804     6.1014    -0.3638 H       
  34 H34            8.2546     5.9974    -0.4164 H       
  35 H35            8.2007     3.5610    -0.0807 H       
  36 H36            6.0472     2.3899     0.1212 H       
  37 H37            5.4730     8.0190    -1.1452 H       
  38 H38            5.2905     9.8419    -1.3080 H       
  39 H39            5.2596    12.2910    -1.4964 H       
  40 H40            7.0373    13.6367    -0.4585 H       
  41 H41            8.8600    12.5454     0.7762 H       
  42 H42           10.8595    10.2049     2.2109 H       
  43 H43           10.6007    11.3857     0.9044 H       
  44 H44            9.6497    11.4961     2.4050 H       
@<TRIPOS>BOND
   1    1    2 ar
   2    1    6 ar
   3    1   29 1
   4    2    3 ar
   5    2   28 1
   6    3    4 ar
   7    3   27 1
   8    4    5 ar
   9    4   30 1
  10    5    6 ar
  11    5    7 1
  12    6   31 1
  13    7    8 am
  14    7   25 2
  15    8    9 1
  16    8   32 1
  17    9   10 ar
  18    9   14 ar
  19   10   11 ar
  20   10   33 1
  21   11   12 ar
  22   11   15 1
  23   12   13 ar
  24   12   34 1
  25   13   14 ar
  26   13   35 1
  27   14   36 1
  28   15   16 am
  29   15   37 1
  30   16   17 1
  31   16   26 2
  32   17   18 ar
  33   17   22 ar
  34   18   19 ar
  35   18   38 1
  36   19   20 ar
  37   19   39 1
  38   20   21 ar
  39   20   40 1
  40   21   22 ar
  41   21   41 1
  42   22   23 1
  43   23   24 1
  44   24   42 1
  45   24   43 1
  46   24   44 1

#	End of record

