#	Name: ASD07300160
#	Creating user name:	WinNT
#	Creation time:	15. 06. 2019 21:09

#	Modifying user name:	WinNT
#	Modification time:	15. 06. 2019 21:09

#	Program:	/corina/corina34_cracker 3.40 0067  02.08.2006

@<TRIPOS>MOLECULE
ASD07300160
  52   56    0    0    0
SMALL
NO_CHARGES


@<TRIPOS>ATOM
   1 C1            -0.0170     1.4025     0.0098 C.ar    
   2 C2             0.0021    -0.0041     0.0020 C.ar    
   3 C3             1.2242    -0.6586    -0.0125 C.ar    
   4 C4             2.3902     0.1160    -0.0187 C.ar    
   5 C5             2.2864     1.5122    -0.0103 C.ar    
   6 N6             1.1126     2.1015     0.0027 N.ar    
   7 O7            -1.2763    -0.4317     0.0119 O.3     
   8 C8            -1.4424     1.7707     0.0313 C.2     
   9 C9            -2.1305     0.6030     0.0256 C.2     
  10 C10            3.7149    -0.5322    -0.0336 C.2     
  11 O11            3.7980    -1.7443    -0.0405 O.2     
  12 O12            4.8329     0.2199    -0.0396 O.3     
  13 C13           -2.0100     3.1409     0.0471 C.ar    
  14 C14           -3.0062     3.4945    -0.8617 C.ar    
  15 C15           -3.5322     4.7691    -0.8449 C.ar    
  16 C16           -3.0702     5.7005     0.0767 C.ar    
  17 C17           -2.0775     5.3506     0.9834 C.ar    
  18 C18           -1.5522     4.0756     0.9746 C.ar    
  19 C19           -3.2350     8.0179     0.9569 C.ar    
  20 C20           -4.0166     9.1280     0.6224 C.ar    
  21 C21           -3.8550    10.3108     1.3284 C.ar    
  22 C22           -2.9145    10.3432     2.3478 C.ar    
  23 C23           -2.1763     9.2079     2.6245 C.ar    
  24 N24           -2.3500     8.0958     1.9369 N.ar    
  25 C25           -4.5664     7.4578    -0.7306 C.2     
  26 N26           -3.6061     6.9952     0.0913 N.am    
  27 N27           -4.8399     8.7421    -0.4312 N.am    
  28 O28           -5.1085     6.8123    -1.6080 O.2     
  29 C29           -5.8275     9.5893    -1.1043 C.3     
  30 C30           -5.1649    10.3090    -2.2806 C.3     
  31 C31            6.1019    -0.4856    -0.0543 C.3     
  32 C32            7.2486     0.5273    -0.0592 C.3     
  33 H33            1.2753    -1.7374    -0.0184 H       
  34 H34            3.1838     2.1130    -0.0148 H       
  35 H35           -3.2071     0.5179     0.0354 H       
  36 H36           -3.3655     2.7710    -1.5785 H       
  37 H37           -4.3038     5.0437    -1.5489 H       
  38 H38           -1.7201     6.0765     1.6988 H       
  39 H39           -0.7839     3.8027     1.6829 H       
  40 H40           -4.4453    11.1834     1.0907 H       
  41 H41           -2.7604    11.2466     2.9192 H       
  42 H42           -1.4438     9.2320     3.4179 H       
  43 H43           -6.6467     8.9710    -1.4714 H       
  44 H44           -6.2152    10.3252    -0.3998 H       
  45 H45           -4.3458    10.9273    -1.9135 H       
  46 H46           -4.7772     9.5731    -2.9850 H       
  47 H47           -5.8997    10.9394    -2.7814 H       
  48 H48            6.1776    -1.1158     0.8319 H       
  49 H49            6.1620    -1.1068    -0.9480 H       
  50 H50            7.1730     1.1574    -0.9454 H       
  51 H51            7.1885     1.1484     0.8345 H       
  52 H52            8.2012    -0.0024    -0.0702 H       
@<TRIPOS>BOND
   1    1    2 ar
   2    1    6 ar
   3    1    8 1
   4    2    3 ar
   5    2    7 1
   6    3    4 ar
   7    3   33 1
   8    4    5 ar
   9    4   10 1
  10    5    6 ar
  11    5   34 1
  12    7    9 1
  13    8    9 2
  14    8   13 1
  15    9   35 1
  16   10   11 2
  17   10   12 1
  18   12   31 1
  19   13   14 ar
  20   13   18 ar
  21   14   15 ar
  22   14   36 1
  23   15   16 ar
  24   15   37 1
  25   16   17 ar
  26   16   26 1
  27   17   18 ar
  28   17   38 1
  29   18   39 1
  30   19   20 ar
  31   19   24 ar
  32   19   26 1
  33   20   21 ar
  34   20   27 1
  35   21   22 ar
  36   21   40 1
  37   22   23 ar
  38   22   41 1
  39   23   24 ar
  40   23   42 1
  41   25   26 am
  42   25   27 am
  43   25   28 2
  44   27   29 1
  45   29   30 1
  46   29   43 1
  47   29   44 1
  48   30   45 1
  49   30   46 1
  50   30   47 1
  51   31   32 1
  52   31   48 1
  53   31   49 1
  54   32   50 1
  55   32   51 1
  56   32   52 1

#	End of record

