#	Name: ASD01200356
#	Creating user name:	WinNT
#	Creation time:	15. 06. 2019 19:09

#	Modifying user name:	WinNT
#	Modification time:	15. 06. 2019 19:09

#	Program:	/corina/corina34_cracker 3.40 0067  02.08.2006

@<TRIPOS>MOLECULE
ASD01200356
  36   37    0    0    0
SMALL
NO_CHARGES


@<TRIPOS>ATOM
   1 C1            -0.0167     1.3792     0.0096 C.ar    
   2 C2             0.0021    -0.0041     0.0020 C.ar    
   3 C3             1.2062    -0.6859    -0.0131 C.ar    
   4 C4             2.3967     0.0108    -0.0207 C.ar    
   5 C5             2.3849     1.4069    -0.0131 C.ar    
   6 C6             1.1669     2.0883     0.0021 C.ar    
   7 C7             3.6566     2.1599    -0.0207 C.2     
   8 O8             4.7160     1.5637    -0.0336 O.2     
   9 N9             3.6419     3.5076    -0.0133 N.am    
  10 C10            4.8370     4.2152    -0.0205 C.2     
  11 S11            1.2187    -2.4478    -0.0221 S.o2    
  12 N12            1.2068    -2.9300    -1.6063 N.am    
  13 O13            2.4765    -2.8429     0.5081 O.2     
  14 O14           -0.0228    -2.8607     0.5323 O.2     
  15 S15            4.9657     5.9201    -0.0125 S.3     
  16 C16            6.7231     5.7980    -0.0292 C.2     
  17 C17            7.0480     4.5038    -0.0391 C.2     
  18 N18            6.0174     3.6792    -0.0285 N.2     
  19 C19            2.3462    -2.6221    -2.4743 C.3     
  20 C20            2.2666    -3.4751    -3.7420 C.3     
  21 C21            3.4565    -3.1536    -4.6485 C.3     
  22 H22           -0.9599     1.9052     0.0169 H       
  23 H23           -0.9272    -0.5543     0.0083 H       
  24 H24            3.3357    -0.5225    -0.0322 H       
  25 H25            1.1508     3.1682     0.0077 H       
  26 H26            2.7966     3.9833    -0.0030 H       
  27 H27            0.4455    -3.4163    -1.9596 H       
  28 H28            7.4164     6.6261    -0.0317 H       
  29 H29            8.0714     4.1589    -0.0510 H       
  30 H30            2.3222    -1.5665    -2.7445 H       
  31 H31            3.2745    -2.8411    -1.9467 H       
  32 H32            2.2906    -4.5308    -3.4717 H       
  33 H33            1.3383    -3.2561    -4.2696 H       
  34 H34            3.3999    -3.7612    -5.5516 H       
  35 H35            3.4326    -2.0979    -4.9187 H       
  36 H36            4.3848    -3.3726    -4.1208 H       
@<TRIPOS>BOND
   1    1    2 ar
   2    1    6 ar
   3    1   22 1
   4    2    3 ar
   5    2   23 1
   6    3    4 ar
   7    3   11 1
   8    4    5 ar
   9    4   24 1
  10    5    6 ar
  11    5    7 1
  12    6   25 1
  13    7    8 2
  14    7    9 am
  15    9   10 1
  16    9   26 1
  17   10   15 1
  18   10   18 2
  19   11   12 am
  20   11   13 2
  21   11   14 2
  22   12   19 1
  23   12   27 1
  24   15   16 1
  25   16   17 2
  26   16   28 1
  27   17   18 1
  28   17   29 1
  29   19   20 1
  30   19   30 1
  31   19   31 1
  32   20   21 1
  33   20   32 1
  34   20   33 1
  35   21   34 1
  36   21   35 1
  37   21   36 1

#	End of record

