#	Name: ASD01820124
#	Creating user name:	WinNT
#	Creation time:	15. 06. 2019 19:36

#	Modifying user name:	WinNT
#	Modification time:	15. 06. 2019 19:36

#	Program:	/corina/corina34_cracker 3.40 0067  02.08.2006

@<TRIPOS>MOLECULE
ASD01820124
  66   69    0    0    0
SMALL
NO_CHARGES


@<TRIPOS>ATOM
   1 C1            -0.0612     1.5087    -0.0206 C.3     
   2 C2            -0.0143    -0.0206    -0.0077 C.3     
   3 C3             0.7388    -0.4973     1.2359 C.3     
   4 C4             0.7857    -2.0265     1.2487 C.3     
   5 C5             1.4279    -2.5061     2.5519 C.3     
   6 C6             2.1648     0.0565     1.2121 C.3     
   7 C7             2.8848    -0.4422    -0.0425 C.3     
   8 N8             0.0495    -0.0198     2.4371 N.am    
   9 C9            -1.2274    -0.3827     2.6706 C.2     
  10 O10           -1.8387    -1.0259     1.8385 O.2     
  11 C11           -1.8818    -0.0010     3.9318 C.2     
  12 C12           -3.2207    -0.2611     4.1345 C.2     
  13 N13           -3.8502     0.0727     5.2714 N.pl3   
  14 C14           -3.2146     0.6974     6.3214 C.ar    
  15 N15           -3.8866     1.0046     7.4243 N.ar    
  16 C16           -3.3009     1.6041     8.4473 C.ar    
  17 N17           -4.0473     1.9028     9.5760 N.3     
  18 C18           -4.1030     3.3693     9.8046 C.3     
  19 C19           -5.3440     3.5391    10.7166 C.3     
  20 H20           -5.0932     3.3181    11.7541 H       
  21 O21           -5.8820     4.8576    10.5982 O.3     
  22 C22           -6.3308     2.4890    10.1566 C.3     
  23 H23           -7.0308     2.9585     9.4655 H       
  24 O24           -7.0386     1.8549    11.2239 O.3     
  25 C25           -5.4511     1.4663     9.4139 C.3     
  26 C26           -1.9446     1.9426     8.4148 C.ar    
  27 F27           -1.3686     2.5543     9.4727 F       
  28 C28           -1.2055     1.6475     7.2999 C.ar    
  29 C29           -1.8476     1.0128     6.2297 C.ar    
  30 C30           -1.1174     0.6599     5.0026 C.2     
  31 O31            0.0694     0.9081     4.8758 O.2     
  32 C32           -5.2142    -0.2271     5.3956 C.ar    
  33 C33           -6.1701     0.6941     4.9831 C.ar    
  34 F34           -5.7859     1.8797     4.4617 F       
  35 C35           -7.5151     0.3953     5.1065 C.ar    
  36 C36           -7.9096    -0.8199     5.6403 C.ar    
  37 F37           -9.2239    -1.1092     5.7592 F       
  38 C38           -6.9597    -1.7395     6.0521 C.ar    
  39 C39           -5.6133    -1.4485     5.9263 C.ar    
  40 F40           -4.6870    -2.3482     6.3235 F       
  41 H41            0.9548     1.9032    -0.0375 H       
  42 H42           -0.5976     1.8483    -0.9065 H       
  43 H43           -0.5740     1.8639     0.8732 H       
  44 H44           -1.0302    -0.4151     0.0092 H       
  45 H45            0.4986    -0.3759    -0.9015 H       
  46 H46           -0.2276    -2.4217     1.1761 H       
  47 H47            1.3748    -2.3791     0.4021 H       
  48 H48            2.4412    -2.1109     2.6246 H       
  49 H49            0.8388    -2.1536     3.3986 H       
  50 H50            1.4613    -3.5956     2.5611 H       
  51 H51            2.1314     1.1459     1.2029 H       
  52 H52            2.7013    -0.2831     2.0981 H       
  53 H53            2.3483    -0.1026    -0.9284 H       
  54 H54            3.9007    -0.0477    -0.0594 H       
  55 H55            2.9182    -1.5317    -0.0333 H       
  56 H56            0.5120     0.5576     3.0645 H       
  57 H57           -3.7817    -0.7495     3.3515 H       
  58 H58           -3.2023     3.7140    10.3124 H       
  59 H59           -4.2421     3.9004     8.8629 H       
  60 H60           -5.2706     5.5574    10.8656 H       
  61 H61           -7.6727     1.1856    10.9322 H       
  62 H62           -5.7147     1.4486     8.3564 H       
  63 H63           -5.5848     0.4760     9.8493 H       
  64 H64           -0.1561     1.8973     7.2479 H       
  65 H65           -8.2582     1.1107     4.7865 H       
  66 H66           -7.2704    -2.6865     6.4681 H       
@<TRIPOS>BOND
   1    1    2 1
   2    1   41 1
   3    1   42 1
   4    1   43 1
   5    2    3 1
   6    2   44 1
   7    2   45 1
   8    3    4 1
   9    3    6 1
  10    3    8 1
  11    4    5 1
  12    4   46 1
  13    4   47 1
  14    5   48 1
  15    5   49 1
  16    5   50 1
  17    6    7 1
  18    6   51 1
  19    6   52 1
  20    7   53 1
  21    7   54 1
  22    7   55 1
  23    8    9 am
  24    8   56 1
  25    9   10 2
  26    9   11 1
  27   11   30 1
  28   11   12 2
  29   12   13 1
  30   12   57 1
  31   13   14 1
  32   13   32 1
  33   14   29 ar
  34   14   15 ar
  35   15   16 ar
  36   16   17 1
  37   16   26 ar
  38   17   25 1
  39   17   18 1
  40   18   19 1
  41   18   58 1
  42   18   59 1
  43   19   20 1
  44   19   21 1
  45   19   22 1
  46   21   60 1
  47   22   23 1
  48   22   24 1
  49   22   25 1
  50   24   61 1
  51   25   62 1
  52   25   63 1
  53   26   27 1
  54   26   28 ar
  55   28   29 ar
  56   28   64 1
  57   29   30 1
  58   30   31 2
  59   32   39 ar
  60   32   33 ar
  61   33   34 1
  62   33   35 ar
  63   35   36 ar
  64   35   65 1
  65   36   37 1
  66   36   38 ar
  67   38   39 ar
  68   38   66 1
  69   39   40 1

#	End of record

