#	Name: ASD02560483
#	Creating user name:	WinNT
#	Creation time:	15. 06. 2019 20:25

#	Modifying user name:	WinNT
#	Modification time:	15. 06. 2019 20:25

#	Program:	/corina/corina34_cracker 3.40 0067  02.08.2006

@<TRIPOS>MOLECULE
ASD02560483
  54   56    0    0    0
SMALL
NO_CHARGES


@<TRIPOS>ATOM
   1 C1            -0.0052     1.4162     0.0669 C.2     
   2 C2             0.0086     0.0114     0.0001 C.2     
   3 C3             1.1783    -0.6584    -0.0211 C.2     
   4 N4             2.3678     0.0169     0.0220 N.pl3   
   5 C5             2.3853     1.3912     0.0872 C.2     
   6 C6             1.1678     2.1021     0.1099 C.2     
   7 C7             3.6709    -0.4001     0.0137 C.2     
   8 C8             4.4460     0.7120     0.0731 C.2     
   9 N9             3.6485     1.7853     0.1169 N.2     
  10 C10            5.9528     0.7344     0.0879 C.3     
  11 N11            4.1201    -1.7252    -0.0446 N.3     
  12 C12            2.9997    -2.6669     0.0813 C.3     
  13 C13            2.3759    -2.9559    -1.3066 C.3     
  14 C14            6.4758     0.8099    -1.3480 C.3     
  15 C15            8.0056     0.8326    -1.3330 C.3     
  16 C16            3.5028    -4.0431     0.5639 C.3     
  17 C17            2.6736    -5.1014    -0.1846 C.3     
  18 C18            1.6957    -4.3314    -1.0959 C.3     
  19 C19            8.5286     0.9081    -2.7688 C.3     
  20 C20           10.0583     0.9308    -2.7538 C.3     
  21 C21           10.5813     1.0063    -4.1897 C.3     
  22 C22           12.1111     1.0290    -4.1747 C.3     
  23 C23           12.6341     1.1045    -5.6106 C.3     
  24 H24           -0.9448     1.9486     0.0795 H       
  25 H25           -0.9231    -0.5337    -0.0341 H       
  26 H26            1.1767    -1.7371    -0.0722 H       
  27 H27            1.1672     3.1809     0.1606 H       
  28 H28            6.2978     1.6045     0.6464 H       
  29 H29            6.3250    -0.1733     0.5629 H       
  30 H30            4.6405    -1.8936    -0.8926 H       
  31 H31            2.2476    -2.2742     0.7656 H       
  32 H32            1.6384    -2.1958    -1.5645 H       
  33 H33            3.1493    -3.0206    -2.0719 H       
  34 H34            6.1308    -0.0602    -1.9065 H       
  35 H35            6.1036     1.7176    -1.8230 H       
  36 H36            8.3505     1.7027    -0.7744 H       
  37 H37            8.3778    -0.0751    -0.8579 H       
  38 H38            4.5598    -4.1591     0.3247 H       
  39 H39            3.3499    -4.1406     1.6387 H       
  40 H40            3.3283    -5.7311    -0.7871 H       
  41 H41            2.1184    -5.7125     0.5270 H       
  42 H42            0.7313    -4.2086    -0.6030 H       
  43 H43            1.5754    -4.8474    -2.0485 H       
  44 H44            8.1836     0.0380    -3.3274 H       
  45 H45            8.1563     1.8158    -3.2439 H       
  46 H46           10.4033     1.8009    -2.1953 H       
  47 H47           10.4306     0.0231    -2.2788 H       
  48 H48           10.2364     0.1362    -4.7482 H       
  49 H49           10.2091     1.9140    -4.6647 H       
  50 H50           12.4561     1.8991    -3.6162 H       
  51 H51           12.4833     0.1213    -3.6997 H       
  52 H52           12.2891     0.2344    -6.1691 H       
  53 H53           12.2619     2.0121    -6.0856 H       
  54 H54           13.7240     1.1207    -5.5999 H       
@<TRIPOS>BOND
   1    1    2 1
   2    1    6 2
   3    1   24 1
   4    2    3 2
   5    2   25 1
   6    3    4 1
   7    3   26 1
   8    4    5 1
   9    4    7 1
  10    5    6 1
  11    5    9 2
  12    6   27 1
  13    7    8 2
  14    7   11 1
  15    8    9 1
  16    8   10 1
  17   10   14 1
  18   10   28 1
  19   10   29 1
  20   11   12 1
  21   11   30 1
  22   12   16 1
  23   12   13 1
  24   12   31 1
  25   13   18 1
  26   13   32 1
  27   13   33 1
  28   14   15 1
  29   14   34 1
  30   14   35 1
  31   15   19 1
  32   15   36 1
  33   15   37 1
  34   16   17 1
  35   16   38 1
  36   16   39 1
  37   17   18 1
  38   17   40 1
  39   17   41 1
  40   18   42 1
  41   18   43 1
  42   19   20 1
  43   19   44 1
  44   19   45 1
  45   20   21 1
  46   20   46 1
  47   20   47 1
  48   21   22 1
  49   21   48 1
  50   21   49 1
  51   22   23 1
  52   22   50 1
  53   22   51 1
  54   23   52 1
  55   23   53 1
  56   23   54 1

#	End of record

