#	Name: ASD03081012
#	Creating user name:	WinNT
#	Creation time:	15. 06. 2019 20:26

#	Modifying user name:	WinNT
#	Modification time:	15. 06. 2019 20:26

#	Program:	/corina/corina34_cracker 3.40 0067  02.08.2006

@<TRIPOS>MOLECULE
ASD03081012
  20   20    0    0    0
SMALL
NO_CHARGES


@<TRIPOS>ATOM
   1 C1            -0.0179     1.4690     0.0101 C.2     
   2 C2             0.0021    -0.0041     0.0020 C.ar    
   3 C3            -1.1970    -0.7230     0.0096 C.ar    
   4 C4            -1.1703    -2.1015     0.0015 C.ar    
   5 C5             0.0396    -2.7737    -0.0142 C.ar    
   6 C6             1.2305    -2.0691    -0.0218 C.ar    
   7 C7             1.2198    -0.6898    -0.0191 C.ar    
   8 O8             1.0243     2.0897     0.0035 O.2     
   9 Cl9           -1.5329     2.3164     0.0219 Cl      
  10 S10           -2.6801    -3.0098     0.0116 S.o2    
  11 O11           -2.3366    -4.2539     0.6063 O.2     
  12 O12           -3.6118    -2.1340     0.6313 O.2     
  13 C13           -3.0857    -3.2331    -1.7423 C.3     
  14 F14           -2.0557    -3.9392    -2.3730 F       
  15 F15           -4.2811    -3.9508    -1.8568 F       
  16 F16           -3.2332    -1.9816    -2.3499 F       
  17 H17           -2.1418    -0.1999     0.0222 H       
  18 H18            0.0543    -3.8535    -0.0201 H       
  19 H19            2.1707    -2.6004    -0.0336 H       
  20 H20            2.1500    -0.1412    -0.0293 H       
@<TRIPOS>BOND
   1    1    2 1
   2    1    8 2
   3    1    9 1
   4    2    3 ar
   5    2    7 ar
   6    3    4 ar
   7    3   17 1
   8    4    5 ar
   9    4   10 1
  10    5    6 ar
  11    5   18 1
  12    6    7 ar
  13    6   19 1
  14    7   20 1
  15   10   11 2
  16   10   12 2
  17   10   13 1
  18   13   14 1
  19   13   15 1
  20   13   16 1

#	End of record

