#	Name: ASD01900992
#	Creating user name:	WinNT
#	Creation time:	15. 06. 2019 19:52

#	Modifying user name:	WinNT
#	Modification time:	15. 06. 2019 19:52

#	Program:	/corina/corina34_cracker 3.40 0067  02.08.2006

@<TRIPOS>MOLECULE
ASD01900992
  71   75    0    0    0
SMALL
NO_CHARGES


@<TRIPOS>ATOM
   1 C1             3.7407     0.5354     0.8505 C.ar    
   2 C2             4.3931    -0.6764     0.7899 C.ar    
   3 C3             5.7422    -0.7348     0.4279 C.ar    
   4 C4             6.4401     0.4351     0.1306 C.ar    
   5 C5             5.7883     1.6542     0.1935 C.ar    
   6 C6             4.4290     1.7081     0.5482 C.ar    
   7 N7             6.4475     2.8487    -0.0779 N.pl3   
   8 C8             5.6756     3.9810    -0.6022 C.3     
   9 N9             4.4097     4.1096     0.1206 N.am    
  10 C10            3.7668     3.0262     0.5995 C.2     
  11 C11            3.8569     5.3807     0.3185 C.ar    
  12 C12            4.3690     6.2155     1.3031 C.ar    
  13 C13            3.8232     7.4688     1.4977 C.ar    
  14 C14            2.7632     7.8940     0.7102 C.ar    
  15 C15            2.2510     7.0607    -0.2736 C.ar    
  16 C16            2.7998     5.8095    -0.4735 C.ar    
  17 O17            2.6511     3.1339     1.0707 O.2     
  18 O18            2.2257     9.1280     0.9030 O.3     
  19 C19            6.4899     5.2674    -0.4353 C.3     
  20 C20            5.3934     3.7558    -2.0903 C.3     
  21 C21            4.6496     4.9697    -2.6520 C.3     
  22 N22            5.4676     6.1753    -2.4677 N.3     
  23 C23            5.7143     6.4378    -1.0442 C.3     
  24 C24            4.8465     7.3372    -3.1174 C.3     
  25 C25            5.6575     8.5721    -2.8201 C.ar    
  26 C26            1.1447     9.5056     0.0480 C.3     
  27 C27            6.7010     8.9301    -3.6535 C.ar    
  28 C28            7.4466    10.0619    -3.3826 C.ar    
  29 C29            7.1486    10.8385    -2.2764 C.ar    
  30 C30            6.1019    10.4798    -1.4409 C.ar    
  31 C31            5.3539     9.3486    -1.7178 C.ar    
  32 F32            0.0690     8.6328     0.2433 F       
  33 F33            0.7459    10.8121     0.3498 F       
  34 F34            1.5611     9.4415    -1.2861 F       
  35 C35            6.4316    -2.0421     0.3605 C.2     
  36 F36            7.8772    11.9448    -2.0107 F       
  37 F37            5.8095    11.2360    -0.3603 F       
  38 O38            7.6035    -2.0950     0.0463 O.2     
  39 O39            5.7596    -3.1735     0.6477 O.3     
  40 C40            6.4996    -4.4198     0.5610 C.3     
  41 C41            5.5772    -5.5866     0.9196 C.3     
  42 O42            4.5413    -5.6931    -0.0590 O.3     
  43 C43            3.6198    -6.7579     0.1836 C.3     
  44 H44            2.6976     0.5757     1.1272 H       
  45 H45            3.8597    -1.5860     1.0235 H       
  46 H46            7.4829     0.3902    -0.1467 H       
  47 H47            7.4014     2.9318     0.0772 H       
  48 H48            5.1938     5.8843     1.9167 H       
  49 H49            4.2214     8.1181     2.2633 H       
  50 H50            1.4256     7.3923    -0.8860 H       
  51 H51            2.4041     5.1627    -1.2426 H       
  52 H52            6.6601     5.4556     0.6247 H       
  53 H53            7.4475     5.1608    -0.9451 H       
  54 H54            6.3350     3.6269    -2.6239 H       
  55 H55            4.7793     2.8637    -2.2133 H       
  56 H56            4.4591     4.8191    -3.7146 H       
  57 H57            3.7021     5.0900    -2.1269 H       
  58 H58            4.7624     6.5516    -0.5256 H       
  59 H59            6.2966     7.3532    -0.9393 H       
  60 H60            4.8121     7.1758    -4.1949 H       
  61 H61            3.8334     7.4677    -2.7371 H       
  62 H62            6.9340     8.3245    -4.5168 H       
  63 H63            8.2619    10.3401    -4.0339 H       
  64 H64            4.5357     9.0703    -1.0701 H       
  65 H65            6.8730    -4.5507    -0.4546 H       
  66 H66            7.3388    -4.3931     1.2561 H       
  67 H67            6.1531    -6.5117     0.9412 H       
  68 H68            5.1342    -5.4114     1.9000 H       
  69 H69            4.1551    -7.7074     0.1899 H       
  70 H70            3.1362    -6.6071     1.1487 H       
  71 H71            2.8651    -6.7715    -0.6028 H       
@<TRIPOS>BOND
   1    1    2 ar
   2    1    6 ar
   3    1   44 1
   4    2    3 ar
   5    2   45 1
   6    3    4 ar
   7    3   35 1
   8    4    5 ar
   9    4   46 1
  10    5    7 1
  11    5    6 ar
  12    6   10 1
  13    7    8 1
  14    7   47 1
  15    8    9 1
  16    8   20 1
  17    8   19 1
  18    9   10 am
  19    9   11 1
  20   10   17 2
  21   11   12 ar
  22   11   16 ar
  23   12   13 ar
  24   12   48 1
  25   13   14 ar
  26   13   49 1
  27   14   15 ar
  28   14   18 1
  29   15   16 ar
  30   15   50 1
  31   16   51 1
  32   18   26 1
  33   19   23 1
  34   19   52 1
  35   19   53 1
  36   20   21 1
  37   20   54 1
  38   20   55 1
  39   21   22 1
  40   21   56 1
  41   21   57 1
  42   22   23 1
  43   22   24 1
  44   23   58 1
  45   23   59 1
  46   24   25 1
  47   24   60 1
  48   24   61 1
  49   25   27 ar
  50   25   31 ar
  51   26   32 1
  52   26   33 1
  53   26   34 1
  54   27   28 ar
  55   27   62 1
  56   28   29 ar
  57   28   63 1
  58   29   30 ar
  59   29   36 1
  60   30   31 ar
  61   30   37 1
  62   31   64 1
  63   35   38 2
  64   35   39 1
  65   39   40 1
  66   40   41 1
  67   40   65 1
  68   40   66 1
  69   41   42 1
  70   41   67 1
  71   41   68 1
  72   42   43 1
  73   43   69 1
  74   43   70 1
  75   43   71 1

#	End of record

