#	Name: ASD01900836
#	Creating user name:	WinNT
#	Creation time:	15. 06. 2019 19:52

#	Modifying user name:	WinNT
#	Modification time:	15. 06. 2019 19:52

#	Program:	/corina/corina34_cracker 3.40 0067  02.08.2006

@<TRIPOS>MOLECULE
ASD01900836
  67   71    0    0    0
SMALL
NO_CHARGES


@<TRIPOS>ATOM
   1 C1             3.7411     0.5333     0.8453 C.ar    
   2 C2             4.3933    -0.6785     0.7838 C.ar    
   3 C3             5.7423    -0.7368     0.4214 C.ar    
   4 C4             6.4402     0.4333     0.1244 C.ar    
   5 C5             5.7886     1.6523     0.1884 C.ar    
   6 C6             4.4295     1.7063     0.5438 C.ar    
   7 N7             6.4477     2.8469    -0.0830 N.pl3   
   8 C8             5.6755     3.9795    -0.6063 C.3     
   9 N9             4.4104     4.1080     0.1177 N.am    
  10 C10            3.7678     3.0245     0.5968 C.2     
  11 C11            3.8579     5.3791     0.3166 C.ar    
  12 C12            4.3710     6.2134     1.3011 C.ar    
  13 C13            3.8256     7.4667     1.4967 C.ar    
  14 C14            2.7649     7.8924     0.7104 C.ar    
  15 C15            2.2517     7.0596    -0.2732 C.ar    
  16 C16            2.8001     5.8084    -0.4742 C.ar    
  17 O17            2.2278     9.1264     0.9042 O.3     
  18 O18            2.6524     3.1321     1.0687 O.2     
  19 C19            6.4317    -2.0441     0.3531 C.2     
  20 C20            6.4903     5.2656    -0.4398 C.3     
  21 C21            5.3919     3.7548    -2.0942 C.3     
  22 C22            4.6486     4.9692    -2.6554 C.3     
  23 N23            5.4674     6.1742    -2.4715 N.3     
  24 C24            5.7147     6.4364    -1.0479 C.3     
  25 C25            4.8467     7.3365    -3.1208 C.3     
  26 C26            5.6587     8.5709    -2.8238 C.ar    
  27 C27            6.7021     8.9282    -3.6575 C.ar    
  28 C28            7.4485    10.0595    -3.3869 C.ar    
  29 C29            7.1514    10.8364    -2.2806 C.ar    
  30 C30            6.1046    10.4783    -1.4448 C.ar    
  31 C31            5.3558     9.3476    -1.7215 C.ar    
  32 C32            1.1461     9.5045     0.0504 C.3     
  33 F33            0.0703     8.6318     0.2463 F       
  34 F34            0.7478    10.8110     0.3530 F       
  35 F35            1.5611     9.4408    -1.2841 F       
  36 F36            7.8808    11.9422    -2.0152 F       
  37 F37            5.8130    11.2348    -0.3641 F       
  38 O38            7.6035    -2.0969     0.0385 O.2     
  39 O39            5.7598    -3.1756     0.6399 O.3     
  40 C40            6.4996    -4.4219     0.5523 C.3     
  41 C41            5.5773    -5.5888     0.9106 C.3     
  42 H42            2.6980     0.5734     1.1222 H       
  43 H43            3.8599    -1.5881     1.0171 H       
  44 H44            7.4829     0.3885    -0.1534 H       
  45 H45            7.4018     2.9298     0.0713 H       
  46 H46            5.1963     5.8818     1.9138 H       
  47 H47            4.2246     8.1156     2.2623 H       
  48 H48            1.4258     7.3916    -0.8848 H       
  49 H49            2.4036     5.1620    -1.2432 H       
  50 H50            6.6612     5.4536     0.6202 H       
  51 H51            7.4474     5.1588    -0.9502 H       
  52 H52            6.3330     3.6251    -2.6285 H       
  53 H53            4.7771     2.8631    -2.2169 H       
  54 H54            4.4574     4.8187    -3.7179 H       
  55 H55            3.7014     5.0900    -2.1298 H       
  56 H56            4.7630     6.5503    -0.5289 H       
  57 H57            6.2973     7.3516    -0.9431 H       
  58 H58            4.8118     7.1751    -4.1983 H       
  59 H59            3.8338     7.4676    -2.7401 H       
  60 H60            6.9345     8.3224    -4.5209 H       
  61 H61            8.2638    10.3372    -4.0385 H       
  62 H62            4.5377     9.0699    -1.0735 H       
  63 H63            6.8727    -4.5523    -0.4635 H       
  64 H64            7.3391    -4.3957     1.2471 H       
  65 H65            6.1327    -6.5244     0.8448 H       
  66 H66            5.2042    -5.4584     1.9264 H       
  67 H67            4.7378    -5.6150     0.2158 H       
@<TRIPOS>BOND
   1    1    2 ar
   2    1    6 ar
   3    1   42 1
   4    2    3 ar
   5    2   43 1
   6    3    4 ar
   7    3   19 1
   8    4    5 ar
   9    4   44 1
  10    5    7 1
  11    5    6 ar
  12    6   10 1
  13    7    8 1
  14    7   45 1
  15    8    9 1
  16    8   21 1
  17    8   20 1
  18    9   10 am
  19    9   11 1
  20   10   18 2
  21   11   12 ar
  22   11   16 ar
  23   12   13 ar
  24   12   46 1
  25   13   14 ar
  26   13   47 1
  27   14   15 ar
  28   14   17 1
  29   15   16 ar
  30   15   48 1
  31   16   49 1
  32   17   32 1
  33   19   38 2
  34   19   39 1
  35   20   24 1
  36   20   50 1
  37   20   51 1
  38   21   22 1
  39   21   52 1
  40   21   53 1
  41   22   23 1
  42   22   54 1
  43   22   55 1
  44   23   24 1
  45   23   25 1
  46   24   56 1
  47   24   57 1
  48   25   26 1
  49   25   58 1
  50   25   59 1
  51   26   27 ar
  52   26   31 ar
  53   27   28 ar
  54   27   60 1
  55   28   29 ar
  56   28   61 1
  57   29   30 ar
  58   29   36 1
  59   30   31 ar
  60   30   37 1
  61   31   62 1
  62   32   33 1
  63   32   34 1
  64   32   35 1
  65   39   40 1
  66   40   41 1
  67   40   63 1
  68   40   64 1
  69   41   65 1
  70   41   66 1
  71   41   67 1

#	End of record

