#	Name: ASD01141032
#	Creating user name:	WinNT
#	Creation time:	15. 06. 2019 19:01

#	Modifying user name:	WinNT
#	Modification time:	15. 06. 2019 19:01

#	Program:	/corina/corina34_cracker 3.40 0067  02.08.2006

@<TRIPOS>MOLECULE
ASD01141032
  49   51    0    0    0
SMALL
NO_CHARGES


@<TRIPOS>ATOM
   1 C1             0.0086     1.2248     0.3285 C.ar    
   2 C2            -0.1185    -0.1233     0.0139 C.ar    
   3 C3             1.2406     1.7274     0.7312 C.ar    
   4 O4            -1.0685     2.0512     0.2371 O.3     
   5 C5             0.9831    -0.9609     0.1029 C.ar    
   6 C6             2.3371     0.8828     0.8175 C.ar    
   7 O7             1.3704     3.0452     1.0396 O.3     
   8 C8            -1.8308     2.1821     1.3339 C.2     
   9 C9             2.2062    -0.4571     0.5042 C.ar    
  10 C10           -3.0406     3.0804     1.3079 C.3     
  11 O11           -1.5462     1.5779     2.3454 O.2     
  12 N12           -3.3000     3.5916     2.6604 N.3     
  13 H13           -2.8581     3.9161     0.6323 H       
  14 C14           -4.2364     2.2987     0.8283 C.ar    
  15 C15            2.6656     3.4919     1.4458 C.3     
  16 O16           -1.3213    -0.6201    -0.3801 O.3     
  17 C17           -1.3781    -2.0144    -0.6875 C.3     
  18 C18           -4.4615     4.4929     2.6691 C.3     
  19 C19           -4.7321     4.9540     4.1037 C.3     
  20 O20           -3.5575     5.5795     4.6276 O.3     
  21 C21           -2.4071     4.7298     4.6345 C.3     
  22 C22           -2.1130     4.2664     3.2053 C.3     
  23 C23           -4.7332     2.5072    -0.4447 C.ar    
  24 C24           -5.8301     1.7902    -0.8846 C.ar    
  25 C25           -6.4300     0.8644    -0.0516 C.ar    
  26 C26           -5.9327     0.6552     1.2212 C.ar    
  27 C27           -4.8331     1.3691     1.6595 C.ar    
  28 H28            0.8853    -2.0083    -0.1413 H       
  29 H29            3.2945     1.2724     1.1303 H       
  30 H30            3.0620    -1.1123     0.5731 H       
  31 H31            3.3815     3.3067     0.6451 H       
  32 H32            2.6305     4.5597     1.6619 H       
  33 H33            2.9728     2.9502     2.3404 H       
  34 H34           -1.0967    -2.5924     0.1928 H       
  35 H35           -2.3921    -2.2794    -0.9872 H       
  36 H36           -0.6889    -2.2352    -1.5026 H       
  37 H37           -4.2545     5.3594     2.0412 H       
  38 H38           -5.3347     3.9650     2.2857 H       
  39 H39           -5.5566     5.6669     4.1075 H       
  40 H40           -4.9916     4.0931     4.7199 H       
  41 H41           -1.5501     5.2806     5.0222 H       
  42 H42           -2.5991     3.8624     5.2661 H       
  43 H43           -1.2718     3.5732     3.2132 H       
  44 H44           -1.8685     5.1294     2.5859 H       
  45 H45           -4.2645     3.2305    -1.0955 H       
  46 H46           -6.2187     1.9535    -1.8789 H       
  47 H47           -7.2875     0.3047    -0.3950 H       
  48 H48           -6.4016    -0.0678     1.8721 H       
  49 H49           -4.4445     1.2057     2.6538 H       
@<TRIPOS>BOND
   1    1    2 ar
   2    1    3 ar
   3    1    4 1
   4    2    5 ar
   5    2   16 1
   6    3    6 ar
   7    3    7 1
   8    4    8 1
   9    5    9 ar
  10    5   28 1
  11    6    9 ar
  12    6   29 1
  13    7   15 1
  14    8   10 1
  15    8   11 2
  16    9   30 1
  17   10   13 1
  18   10   14 1
  19   10   12 1
  20   12   18 1
  21   12   22 1
  22   14   23 ar
  23   14   27 ar
  24   15   31 1
  25   15   32 1
  26   15   33 1
  27   16   17 1
  28   17   34 1
  29   17   35 1
  30   17   36 1
  31   18   19 1
  32   18   37 1
  33   18   38 1
  34   19   20 1
  35   19   39 1
  36   19   40 1
  37   20   21 1
  38   21   22 1
  39   21   41 1
  40   21   42 1
  41   22   43 1
  42   22   44 1
  43   23   24 ar
  44   23   45 1
  45   24   25 ar
  46   24   46 1
  47   25   26 ar
  48   25   47 1
  49   26   27 ar
  50   26   48 1
  51   27   49 1

#	End of record

