#	Name: ASD05740190
#	Creating user name:	WinNT
#	Creation time:	15. 06. 2019 21:03

#	Modifying user name:	WinNT
#	Modification time:	15. 06. 2019 21:03

#	Program:	/corina/corina34_cracker 3.40 0067  02.08.2006

@<TRIPOS>MOLECULE
ASD05740190
  61   65    0    0    0
SMALL
NO_CHARGES


@<TRIPOS>ATOM
   1 C1             1.2466    -1.3192     0.0092 C.3     
   2 N2             0.3572    -0.6168     0.9447 N.3     
   3 C3            -0.9674    -1.0412     0.7919 C.ar    
   4 C4            -1.9674    -0.4960     1.5865 C.ar    
   5 C5            -3.2744    -0.9149     1.4357 C.ar    
   6 C6            -3.5889    -1.8816     0.4897 C.ar    
   7 C7            -2.5890    -2.4272    -0.3046 C.ar    
   8 C8            -1.2830    -2.0036    -0.1584 C.ar    
   9 N9            -4.9148    -2.3069     0.3370 N.pl3   
  10 C10           -5.9516    -1.4105     0.5082 C.ar    
  11 N11           -5.6625    -0.1279     0.6996 N.ar    
  12 N12           -7.1968    -1.8614     0.4699 N.ar    
  13 C13           -8.2172    -1.0288     0.6305 C.ar    
  14 C14           -7.9479     0.3415     0.8420 C.ar    
  15 C15           -6.6161     0.7705     0.8686 C.ar    
  16 N16           -9.5164    -1.4652     0.5956 N.am    
  17 C17          -10.5388    -0.6070     0.7599 C.2     
  18 C18          -10.3262     0.7699     0.9734 C.2     
  19 C19           -9.0625     1.2671     1.0199 C.2     
  20 C20           -9.7950    -2.8865     0.3758 C.3     
  21 O21          -11.6807    -1.0316     0.7226 O.2     
  22 C22            0.8103    -0.7940     2.3314 C.3     
  23 C23            2.2322    -0.2462     2.4746 C.3     
  24 N24            3.1216    -0.9486     1.5392 N.3     
  25 C25            2.6685    -0.7714     0.1525 C.3     
  26 C26           -9.8029    -3.6074     1.6991 C.ar    
  27 C27           -9.9851    -5.6403     2.9510 C.ar    
  28 C28           -9.6491    -3.5564     4.0880 C.ar    
  29 C29           -9.6416    -2.8965     2.8740 C.ar    
  30 C30            4.5122    -0.5031     1.6996 C.3     
  31 C31           -9.9772    -4.9781     1.7378 C.ar    
  32 C32          -10.1591    -5.7507     0.4568 C.3     
  33 C33           -9.8184    -4.9302     4.1277 C.ar    
  34 F34           -9.8263    -5.5764     5.3141 F       
  35 H35            1.2433    -2.3855     0.2354 H       
  36 H36            0.8977    -1.1626    -1.0114 H       
  37 H37           -1.7227     0.2553     2.3227 H       
  38 H38           -4.0520    -0.4909     2.0536 H       
  39 H39           -2.8335    -3.1795    -1.0398 H       
  40 H40           -0.5053    -2.4278    -0.7762 H       
  41 H41           -5.1048    -3.2308     0.1110 H       
  42 H42           -6.3735     1.8107     1.0283 H       
  43 H43          -11.1702     1.4317     1.1008 H       
  44 H44           -8.8872     2.3202     1.1833 H       
  45 H45          -10.7678    -2.9962    -0.1036 H       
  46 H46           -9.0237    -3.3130    -0.2657 H       
  47 H47            0.1433    -0.2545     3.0037 H       
  48 H48            0.8020    -1.8543     2.5840 H       
  49 H49            2.2356     0.8201     2.2485 H       
  50 H50            2.5812    -0.4028     3.4953 H       
  51 H51            3.3356    -1.3109    -0.5198 H       
  52 H52            2.6769     0.2889    -0.1001 H       
  53 H53          -10.1175    -6.7117     2.9808 H       
  54 H54           -9.5228    -3.0009     5.0056 H       
  55 H55           -9.5093    -1.8251     2.8428 H       
  56 H56            4.8440    -0.7074     2.7176 H       
  57 H57            5.1489    -1.0387     0.9955 H       
  58 H58            4.5755     0.5675     1.5049 H       
  59 H59           -9.1859    -6.0692     0.0832 H       
  60 H60          -10.7801    -6.6263     0.6457 H       
  61 H61          -10.6429    -5.1154    -0.2851 H       
@<TRIPOS>BOND
   1    1    2 1
   2    1   25 1
   3    1   35 1
   4    1   36 1
   5    2    3 1
   6    2   22 1
   7    3    4 ar
   8    3    8 ar
   9    4    5 ar
  10    4   37 1
  11    5    6 ar
  12    5   38 1
  13    6    7 ar
  14    6    9 1
  15    7    8 ar
  16    7   39 1
  17    8   40 1
  18    9   10 1
  19    9   41 1
  20   10   11 ar
  21   10   12 ar
  22   11   15 ar
  23   12   13 ar
  24   13   14 ar
  25   13   16 1
  26   14   15 ar
  27   14   19 1
  28   15   42 1
  29   16   17 am
  30   16   20 1
  31   17   18 1
  32   17   21 2
  33   18   19 2
  34   18   43 1
  35   19   44 1
  36   20   26 1
  37   20   45 1
  38   20   46 1
  39   22   23 1
  40   22   47 1
  41   22   48 1
  42   23   24 1
  43   23   49 1
  44   23   50 1
  45   24   25 1
  46   24   30 1
  47   25   51 1
  48   25   52 1
  49   26   29 ar
  50   26   31 ar
  51   27   33 ar
  52   27   31 ar
  53   27   53 1
  54   28   29 ar
  55   28   33 ar
  56   28   54 1
  57   29   55 1
  58   30   56 1
  59   30   57 1
  60   30   58 1
  61   31   32 1
  62   32   59 1
  63   32   60 1
  64   32   61 1
  65   33   34 1

#	End of record

