#	Name: ASD01150973
#	Creating user name:	WinNT
#	Creation time:	15. 06. 2019 19:05

#	Modifying user name:	WinNT
#	Modification time:	15. 06. 2019 19:05

#	Program:	/corina/corina34_cracker 3.40 0067  02.08.2006

@<TRIPOS>MOLECULE
ASD01150973
  25   24    0    0    0
SMALL
NO_CHARGES


@<TRIPOS>ATOM
   1 N1            -0.0178     1.4608     0.0101 N.am    
   2 C2             0.0021    -0.0041     0.0020 C.3     
   3 C3            -1.2729    -0.5271     0.6119 C.2     
   4 C4             0.1165    -0.4856    -1.3843 C.1     
   5 N5             0.2048    -0.8572    -2.4541 N.1     
   6 O6            -1.4763    -1.8502     0.7104 O.3     
   7 O7            -2.1121     0.2446     1.0122 O.2     
   8 C8            -2.7269    -2.2822     1.3085 C.3     
   9 C9            -2.7784    -3.8111     1.3346 C.3     
  10 C10            1.1401     2.1505     0.0027 C.2     
  11 C11            1.1197     3.6573     0.0110 C.3     
  12 O12            2.1985     1.5584    -0.0106 O.2     
  13 C13            2.5551     4.1869     0.0001 C.3     
  14 H14           -0.8643     1.9343     0.0167 H       
  15 H15            0.8543    -0.3591     0.5815 H       
  16 H16           -2.7941    -1.8990     2.3267 H       
  17 H17           -3.5617    -1.9005     0.7207 H       
  18 H18           -2.7111    -4.1944     0.3164 H       
  19 H19           -1.9436    -4.1928     1.9224 H       
  20 H20           -3.7172    -4.1354     1.7836 H       
  21 H21            0.5925     4.0184    -0.8721 H       
  22 H22            0.6095     4.0088     0.9078 H       
  23 H23            3.0822     3.8258     0.8832 H       
  24 H24            3.0652     3.8354    -0.8966 H       
  25 H25            2.5403     5.2768     0.0061 H       
@<TRIPOS>BOND
   1    1    2 1
   2    1   10 am
   3    1   14 1
   4    2    3 1
   5    2    4 1
   6    2   15 1
   7    3    6 1
   8    3    7 2
   9    4    5 3
  10    6    8 1
  11    8    9 1
  12    8   16 1
  13    8   17 1
  14    9   18 1
  15    9   19 1
  16    9   20 1
  17   10   11 1
  18   10   12 2
  19   11   13 1
  20   11   21 1
  21   11   22 1
  22   13   23 1
  23   13   24 1
  24   13   25 1

#	End of record

