#	Name: ASD02030439
#	Creating user name:	WinNT
#	Creation time:	15. 06. 2019 20:15

#	Modifying user name:	WinNT
#	Modification time:	15. 06. 2019 20:15

#	Program:	/corina/corina34_cracker 3.40 0067  02.08.2006

@<TRIPOS>MOLECULE
ASD02030439
  51   52    0    0    0
SMALL
NO_CHARGES


@<TRIPOS>ATOM
   1 C1             0.0281     1.1471     0.0347 C.2     
   2 O2             0.0897    -0.0667     0.0110 O.2     
   3 N3             3.3195     2.4722     0.0377 N.pl3   
   4 N4             2.4953     1.4833     0.0956 N.2     
   5 C5             1.2686     1.9508     0.0090 C.2     
   6 N6             1.3421     3.2894    -0.1076 N.2     
   7 C7             2.6102     3.6124    -0.0899 C.2     
   8 C8             4.7163     2.3792     0.1024 C.ar    
   9 C9             5.3255     1.1389     0.2406 C.ar    
  10 C10            7.4741     2.1958     0.2307 C.ar    
  11 C11            5.4942     3.5264     0.0228 C.ar    
  12 C12            6.7021     1.0506     0.3041 C.ar    
  13 C13            6.8708     3.4315     0.0869 C.ar    
  14 C14            7.3639    -0.2950     0.4541 C.3     
  15 N15           -1.1713     1.7603     0.0788 N.am    
  16 C16           -2.4181     0.9894    -0.0413 C.3     
  17 C17           -3.3398     1.3701     1.1221 C.3     
  18 N18           -3.5116     2.8288     1.1495 N.3     
  19 C19           -2.2351     3.5111     1.4004 C.3     
  20 C20           -1.2682     3.2174     0.2544 C.3     
  21 C21           -3.1021     1.3219    -1.3689 C.3     
  22 C22           -2.1050    -0.5070     0.0194 C.3     
  23 H23            3.0154     4.6107    -0.1641 H       
  24 H24            4.7232     0.2443     0.2987 H       
  25 H25            8.5505     2.1242     0.2810 H       
  26 H26            5.0235     4.4919    -0.0895 H       
  27 H27            7.4763     4.3240     0.0299 H       
  28 H28            7.5647    -0.7131    -0.5324 H       
  29 H29            8.3017    -0.1801     0.9977 H       
  30 H30            6.7041    -0.9650     1.0053 H       
  31 H31           -4.3103     0.8920     0.9888 H       
  32 H32           -2.8964     1.0384     2.0610 H       
  33 H33           -3.9364     3.1589     0.2959 H       
  34 H34           -2.4043     4.5857     1.4688 H       
  35 H35           -1.8070     3.1496     2.3354 H       
  36 H36           -0.2853     3.6236     0.4931 H       
  37 H37           -1.6428     3.6725    -0.6624 H       
  38 H38           -2.4375     1.0662    -2.1941 H       
  39 H39           -4.0256     0.7494    -1.4553 H       
  40 H40           -3.3305     2.3872    -1.4032 H       
  41 H41           -1.5419    -0.7238     0.9271 H       
  42 H42           -3.0365    -1.0731     0.0257 H       
  43 H43           -1.5137    -0.7901    -0.8514 H       
  44 C44           14.7220    11.5990     8.4822 C.2     
  45 C45           14.7424    10.0921     8.4739 C.3     
  46 O46           15.7600    12.2173     8.4756 O.2     
  47 O47           13.5505    12.2543     8.4913 O.3     
  48 F48           16.0675     9.6438     8.4588 F       
  49 F49           14.1002     9.6107     9.6198 F       
  50 F50           14.0784     9.6230     7.3354 F       
  51 H51           13.5880    13.2205     8.4964 H       
@<TRIPOS>BOND
   1    1    2 2
   2    1    5 1
   3    1   15 am
   4    3    4 1
   5    3    7 1
   6    3    8 1
   7    4    5 2
   8    5    6 1
   9    6    7 2
  10    7   23 1
  11    8    9 ar
  12    8   11 ar
  13    9   12 ar
  14    9   24 1
  15   10   12 ar
  16   10   13 ar
  17   10   25 1
  18   11   13 ar
  19   11   26 1
  20   12   14 1
  21   13   27 1
  22   14   28 1
  23   14   29 1
  24   14   30 1
  25   15   16 1
  26   15   20 1
  27   16   17 1
  28   16   21 1
  29   16   22 1
  30   17   18 1
  31   17   31 1
  32   17   32 1
  33   18   19 1
  34   18   33 1
  35   19   20 1
  36   19   34 1
  37   19   35 1
  38   20   36 1
  39   20   37 1
  40   21   38 1
  41   21   39 1
  42   21   40 1
  43   22   41 1
  44   22   42 1
  45   22   43 1
  46   44   45 1
  47   44   46 2
  48   44   47 1
  49   45   48 1
  50   45   49 1
  51   45   50 1
  52   47   51 1

#	End of record

