#	Name: ASD01882889
#	Creating user name:	WinNT
#	Creation time:	15. 06. 2019 19:45

#	Modifying user name:	WinNT
#	Modification time:	15. 06. 2019 19:45

#	Program:	/corina/corina34_cracker 3.40 0067  02.08.2006

@<TRIPOS>MOLECULE
ASD01882889
  26   28    0    0    0
SMALL
NO_CHARGES


@<TRIPOS>ATOM
   1 O1            -0.0162     1.3452     0.0094 O.3     
   2 C2             0.0021    -0.0041     0.0020 C.ar    
   3 C3             1.3505    -0.4058    -0.0141 C.ar    
   4 C4             2.1210     0.8365    -0.0153 C.2     
   5 C5             1.2317     1.8430     0.0002 C.2     
   6 C6             1.6763    -1.7615    -0.0244 C.ar    
   7 C7             0.6831    -2.7004    -0.0189 C.ar    
   8 C8            -0.6529    -2.3112    -0.0034 C.ar    
   9 C9            -0.9943    -0.9706     0.0076 C.ar    
  10 C10            1.6238     3.3031     0.0073 C.3     
  11 C11            3.0965     3.4104     0.4175 C.3     
  12 C12            3.9360     2.4528    -0.4331 C.3     
  13 C13            3.6167     1.0071    -0.0321 C.3     
  14 O14           -1.6303    -3.2559     0.0015 O.3     
  15 H15            2.7115    -2.0691    -0.0372 H       
  16 H16            0.9366    -3.7502    -0.0268 H       
  17 H17           -2.0335    -0.6767     0.0199 H       
  18 H18            1.4900     3.7230    -0.9897 H       
  19 H19            1.0043     3.8451     0.7218 H       
  20 H20            3.4431     4.4322     0.2630 H       
  21 H21            3.2004     3.1471     1.4702 H       
  22 H22            3.6987     2.5989    -1.4869 H       
  23 H23            4.9948     2.6513    -0.2669 H       
  24 H24            4.0197     0.8050     0.9604 H       
  25 H25            4.0557     0.3204    -0.7558 H       
  26 H26           -1.9042    -3.5338     0.8862 H       
@<TRIPOS>BOND
   1    1    2 1
   2    1    5 1
   3    2    3 ar
   4    2    9 ar
   5    3    4 1
   6    3    6 ar
   7    4    5 2
   8    4   13 1
   9    5   10 1
  10    6    7 ar
  11    6   15 1
  12    7    8 ar
  13    7   16 1
  14    8    9 ar
  15    8   14 1
  16    9   17 1
  17   10   11 1
  18   10   18 1
  19   10   19 1
  20   11   12 1
  21   11   20 1
  22   11   21 1
  23   12   13 1
  24   12   22 1
  25   12   23 1
  26   13   24 1
  27   13   25 1
  28   14   26 1

#	End of record

