#	Name: ASD02030293
#	Creating user name:	WinNT
#	Creation time:	15. 06. 2019 20:15

#	Modifying user name:	WinNT
#	Modification time:	15. 06. 2019 20:15

#	Program:	/corina/corina34_cracker 3.40 0067  02.08.2006

@<TRIPOS>MOLECULE
ASD02030293
  55   59    0    0    0
SMALL
NO_CHARGES


@<TRIPOS>ATOM
   1 N1            -0.2101     1.4215    -0.1435 N.am    
   2 C2            -0.0195    -0.0118     0.1198 C.3     
   3 C3            -0.9156    -0.4173     1.2966 C.3     
   4 N4            -2.2748     0.0822     1.0457 N.am    
   5 C5            -2.4654     1.5154     0.7824 C.3     
   6 C6            -1.5700     1.9218    -0.3889 C.3     
   7 C7             0.8427     2.2629    -0.1542 C.2     
   8 C8             2.1855     1.7715     0.2215 C.2     
   9 N9             3.2641     2.5089     0.3752 N.2     
  10 N10            2.5184     0.4920     0.4724 N.2     
  11 C11            3.7930     0.4728     0.7687 C.2     
  12 N12            4.2458     1.7417     0.7038 N.pl3   
  13 C13            5.5615     2.1556     0.9520 C.ar    
  14 O14            0.6882     3.4257    -0.4729 O.2     
  15 C15           -3.3276    -0.7592     1.0564 C.2     
  16 C16           -4.6977    -0.2289     0.9127 C.ar    
  17 O17           -3.1489    -1.9550     1.1846 O.2     
  18 C18            5.8988     3.4983     0.8507 C.ar    
  19 C19            7.1977     3.9034     1.0960 C.ar    
  20 C20            8.1605     2.9715     1.4417 C.ar    
  21 C21            7.8264     1.6334     1.5427 C.ar    
  22 C22            6.5290     1.2240     1.3052 C.ar    
  23 C23           -1.5435     3.4468    -0.5100 C.3     
  24 Cl24           7.6213     5.5822     0.9698 Cl      
  25 C25           -5.6690    -0.9718     0.2377 C.ar    
  26 C26           -6.9473    -0.4734     0.1043 C.ar    
  27 C27           -7.2745     0.7680     0.6390 C.ar    
  28 C28           -6.3108     1.5116     1.3154 C.ar    
  29 C29           -5.0281     1.0148     1.4563 C.ar    
  30 Cl30          -8.1531    -1.3985    -0.7347 Cl      
  31 O31           -8.5396     1.2437     0.4885 O.3     
  32 C32           -8.9333     2.3126     1.3555 C.3     
  33 C33           -7.8092     3.3572     1.3725 C.3     
  34 O34           -6.6173     2.7250     1.8514 O.3     
  35 H35           -0.2951    -0.5860    -0.7647 H       
  36 H36            1.0238    -0.2018     0.3720 H       
  37 H37           -0.9354    -1.5036     1.3840 H       
  38 H38           -0.5297     0.0194     2.2177 H       
  39 H39           -3.5087     1.7055     0.5302 H       
  40 H40           -2.1898     2.0897     1.6669 H       
  41 H41           -1.9536     1.4857    -1.3112 H       
  42 H42            4.3758    -0.4004     1.0223 H       
  43 H43            5.1476     4.2256     0.5802 H       
  44 H44            9.1747     3.2898     1.6327 H       
  45 H45            8.5801     0.9082     1.8120 H       
  46 H46            6.2692     0.1788     1.3846 H       
  47 H47           -1.0468     3.8720     0.3621 H       
  48 H48           -1.0006     3.7303    -1.4116 H       
  49 H49           -2.5644     3.8245    -0.5668 H       
  50 H50           -5.4186    -1.9360    -0.1796 H       
  51 H51           -4.2797     1.5918     1.9792 H       
  52 H52           -9.8519     2.7672     0.9847 H       
  53 H53           -9.0934     1.9286     2.3630 H       
  54 H54           -7.6444     3.7363     0.3639 H       
  55 H55           -8.0811     4.1791     2.0348 H       
@<TRIPOS>BOND
   1    1    2 1
   2    1    7 am
   3    1    6 1
   4    2    3 1
   5    2   35 1
   6    2   36 1
   7    3    4 1
   8    3   37 1
   9    3   38 1
  10    4    5 1
  11    4   15 am
  12    5    6 1
  13    5   39 1
  14    5   40 1
  15    6   23 1
  16    6   41 1
  17    7    8 1
  18    7   14 2
  19    8    9 2
  20    8   10 1
  21    9   12 1
  22   10   11 2
  23   11   12 1
  24   11   42 1
  25   12   13 1
  26   13   18 ar
  27   13   22 ar
  28   15   16 1
  29   15   17 2
  30   16   25 ar
  31   16   29 ar
  32   18   19 ar
  33   18   43 1
  34   19   20 ar
  35   19   24 1
  36   20   21 ar
  37   20   44 1
  38   21   22 ar
  39   21   45 1
  40   22   46 1
  41   23   47 1
  42   23   48 1
  43   23   49 1
  44   25   26 ar
  45   25   50 1
  46   26   27 ar
  47   26   30 1
  48   27   28 ar
  49   27   31 1
  50   28   29 ar
  51   28   34 1
  52   29   51 1
  53   31   32 1
  54   32   33 1
  55   32   52 1
  56   32   53 1
  57   33   34 1
  58   33   54 1
  59   33   55 1

#	End of record

