#	Name: ASD00310201
#	Creating user name:	WinNT
#	Creation time:	15. 06. 2019 18:34

#	Modifying user name:	WinNT
#	Modification time:	15. 06. 2019 18:34

#	Program:	/corina/corina34_cracker 3.40 0067  02.08.2006

@<TRIPOS>MOLECULE
ASD00310201
  35   37    0    0    0
SMALL
NO_CHARGES


@<TRIPOS>ATOM
   1 N1            -0.0153     1.2794     0.0091 N.pl3   
   2 N2             0.0021    -0.0041     0.0020 N.2     
   3 C3             1.2293    -0.4799    -0.0122 C.2     
   4 C4             2.1244     0.6858    -0.0145 C.ar    
   5 C5             3.5013     0.8769    -0.0266 C.ar    
   6 C6             4.0080     2.1697    -0.0245 C.ar    
   7 C7             3.1369     3.2654    -0.0103 C.ar    
   8 C8             1.7851     3.0822     0.0016 C.ar    
   9 C9             1.2550     1.7947    -0.0003 C.ar    
  10 C10            1.6263    -1.8975    -0.0236 C.2     
  11 O11            2.8036    -2.1988    -0.0360 O.2     
  12 O12            0.6840    -2.8613    -0.0203 O.3     
  13 C13            3.6989     4.6637    -0.0077 C.3     
  14 C14            5.4749     2.3900    -0.0368 C.ar    
  15 C15            6.1011     2.9932     1.0556 C.ar    
  16 C16            7.4673     3.1960     1.0401 C.ar    
  17 C17            8.2159     2.8012    -0.0600 C.ar    
  18 C18            7.5951     2.2013    -1.1472 C.ar    
  19 C19            6.2319     1.9904    -1.1362 C.ar    
  20 O20            9.5596     3.0027    -0.0731 O.3     
  21 C21           10.2689     2.5723    -1.2366 C.3     
  22 F22            5.3720     3.3782     2.1258 F       
  23 H23           -0.8235     1.8158     0.0160 H       
  24 H24            4.1698     0.0287    -0.0372 H       
  25 H25            1.1252     3.9370     0.0128 H       
  26 H26            0.9931    -3.7776    -0.0282 H       
  27 H27            3.8249     5.0066    -1.0347 H       
  28 H28            3.0135     5.3298     0.5162 H       
  29 H29            4.6649     4.6660     0.4973 H       
  30 H30            7.9533     3.6624     1.8843 H       
  31 H31            8.1809     1.8957    -2.0015 H       
  32 H32            5.7511     1.5198    -1.9811 H       
  33 H33            9.8854     3.0980    -2.1111 H       
  34 H34           11.3299     2.7916    -1.1172 H       
  35 H35           10.1324     1.4990    -1.3691 H       
@<TRIPOS>BOND
   1    1    2 1
   2    1    9 1
   3    1   23 1
   4    2    3 2
   5    3    4 1
   6    3   10 1
   7    4    5 ar
   8    4    9 ar
   9    5    6 ar
  10    5   24 1
  11    6    7 ar
  12    6   14 1
  13    7    8 ar
  14    7   13 1
  15    8    9 ar
  16    8   25 1
  17   10   11 2
  18   10   12 1
  19   12   26 1
  20   13   27 1
  21   13   28 1
  22   13   29 1
  23   14   15 ar
  24   14   19 ar
  25   15   16 ar
  26   15   22 1
  27   16   17 ar
  28   16   30 1
  29   17   18 ar
  30   17   20 1
  31   18   19 ar
  32   18   31 1
  33   19   32 1
  34   20   21 1
  35   21   33 1
  36   21   34 1
  37   21   35 1

#	End of record

