#	Name: ASD01140365
#	Creating user name:	WinNT
#	Creation time:	15. 06. 2019 19:00

#	Modifying user name:	WinNT
#	Modification time:	15. 06. 2019 19:00

#	Program:	/corina/corina34_cracker 3.40 0067  02.08.2006

@<TRIPOS>MOLECULE
ASD01140365
  30   33    0    0    0
SMALL
NO_CHARGES


@<TRIPOS>ATOM
   1 N1            -0.0165     1.3642     0.0095 N.pl3   
   2 C2             0.0021    -0.0041     0.0020 C.2     
   3 C3             1.2436    -0.8633    -0.0467 C.3     
   4 N4             1.9813    -0.4800    -1.2564 N.pl3   
   5 C5             2.4101     0.7672    -1.5446 C.2     
   6 C6             2.2359     1.9845    -0.7262 C.ar    
   7 C7             1.0722     2.2368     0.0038 C.ar    
   8 C8             3.2856     2.9056    -0.6921 C.ar    
   9 C9             3.1742     4.0668     0.0682 C.ar    
  10 C10            2.0068     4.3086     0.7990 C.ar    
  11 C11            0.9721     3.4023     0.7637 C.ar    
  12 N12            2.3723    -1.3054    -2.3144 N.2     
  13 C13            3.0024    -0.5418    -3.1719 C.2     
  14 N14            3.0268     0.7062    -2.7116 N.2     
  15 C15           -1.3268     1.7350     0.0356 C.2     
  16 N16           -2.0648     0.6584     0.0556 N.2     
  17 C17           -1.2721    -0.4258     0.0358 C.2     
  18 C18            3.6048    -1.0039    -4.4737 C.3     
  19 C19            4.2514     5.0098     0.1018 C.1     
  20 N20            5.1059     5.7579     0.1285 N.1     
  21 Cl21          -1.8013    -2.0792     0.0508 Cl      
  22 H22            1.8567    -0.6819     0.8361 H       
  23 H23            0.9658    -1.9161    -0.0982 H       
  24 H24            4.1865     2.7163    -1.2568 H       
  25 H25            1.9172     5.2071     1.3914 H       
  26 H26            0.0733     3.5949     1.3306 H       
  27 H27           -1.6941     2.7506     0.0396 H       
  28 H28            2.8622    -0.9214    -5.2673 H       
  29 H29            4.4665    -0.3820    -4.7163 H       
  30 H30            3.9215    -2.0426    -4.3791 H       
@<TRIPOS>BOND
   1    1    2 1
   2    1    7 1
   3    1   15 1
   4    2    3 1
   5    2   17 2
   6    3    4 1
   7    3   22 1
   8    3   23 1
   9    4    5 1
  10    4   12 1
  11    5    6 1
  12    5   14 2
  13    6    7 ar
  14    6    8 ar
  15    7   11 ar
  16    8    9 ar
  17    8   24 1
  18    9   10 ar
  19    9   19 1
  20   10   11 ar
  21   10   25 1
  22   11   26 1
  23   12   13 2
  24   13   14 1
  25   13   18 1
  26   15   16 2
  27   15   27 1
  28   16   17 1
  29   17   21 1
  30   18   28 1
  31   18   29 1
  32   18   30 1
  33   19   20 3

#	End of record

