#	Name: ASD01917272
#	Creating user name:	WinNT
#	Creation time:	15. 06. 2019 20:08

#	Modifying user name:	WinNT
#	Modification time:	15. 06. 2019 20:08

#	Program:	/corina/corina34_cracker 3.40 0067  02.08.2006

@<TRIPOS>MOLECULE
ASD01917272
  48   51    0    0    0
SMALL
NO_CHARGES


@<TRIPOS>ATOM
   1 S1            -0.0218     1.7567     0.0117 S.3     
   2 C2             0.0021    -0.0041     0.0020 C.2     
   3 N3             1.2427    -0.4104    -0.0120 N.2     
   4 C4             2.1514     0.5291    -0.0156 C.2     
   5 C5             1.6885     1.7890    -0.0045 C.2     
   6 C6            -1.1843    -0.8763     0.0091 C.2     
   7 O7            -1.0505    -2.0851     0.0017 O.2     
   8 N8            -2.4186    -0.3351     0.0237 N.am    
   9 C9            -3.5989    -1.2028     0.0308 C.3     
  10 C10           -3.6562    -2.1307    -1.1954 C.3     
  11 C11           -4.7776    -3.1521    -0.9957 C.3     
  12 C12           -6.1064    -2.4396    -0.7364 C.3     
  13 C13           -5.9436    -1.4985     0.4700 C.3     
  14 C14           -5.1951    -2.2836     1.5718 C.3     
  15 C15           -3.6739    -2.0957     1.2908 C.3     
  16 C16           -4.9287    -0.4036     0.0472 C.3     
  17 C17           -9.4931    -1.2371     1.8131 C.ar    
  18 C18          -10.4998    -2.1029     2.2345 C.ar    
  19 C19          -11.7017    -1.5733     2.6766 C.ar    
  20 C20          -11.8551    -0.1956     2.6820 C.ar    
  21 C21          -10.8110     0.6057     2.2488 C.ar    
  22 N22           -9.6806     0.0766     1.8341 N.ar    
  23 C23           -8.1999    -1.7872     1.3434 C.2     
  24 O24           -8.0211    -2.9890     1.3267 O.2     
  25 N25           -7.2221    -0.9546     0.9345 N.am    
  26 C26            3.6257     0.2174    -0.0309 C.3     
  27 H27            2.2983     2.6804    -0.0062 H       
  28 H28           -2.5253     0.6290     0.0296 H       
  29 H29           -3.8553    -1.5408    -2.0901 H       
  30 H30           -2.7044    -2.6506    -1.3041 H       
  31 H31           -4.8674    -3.7686    -1.8902 H       
  32 H32           -4.5378    -3.7892    -0.1444 H       
  33 H33           -6.3870    -1.8600    -1.6159 H       
  34 H34           -6.8798    -3.1771    -0.5220 H       
  35 H35           -5.4459    -1.8823     2.5538 H       
  36 H36           -5.4553    -3.3408     1.5210 H       
  37 H37           -3.2061    -3.0605     1.0947 H       
  38 H38           -3.1808    -1.6032     2.1289 H       
  39 H39           -4.8878     0.4085     0.7731 H       
  40 H40           -5.1700    -0.0258    -0.9464 H       
  41 H41          -10.3459    -3.1718     2.2165 H       
  42 H42          -12.5009    -2.2193     3.0090 H       
  43 H43          -12.7795     0.2488     3.0202 H       
  44 H44          -10.9271     1.6795     2.2516 H       
  45 H45           -7.3649     0.0048     0.9478 H       
  46 H46            3.9717     0.1480    -1.0622 H       
  47 H47            4.1700     1.0102     0.4823 H       
  48 H48            3.8018    -0.7313     0.4761 H       
@<TRIPOS>BOND
   1    1    2 1
   2    1    5 1
   3    2    3 2
   4    2    6 1
   5    3    4 1
   6    4    5 2
   7    4   26 1
   8    5   27 1
   9    6    7 2
  10    6    8 am
  11    8    9 1
  12    8   28 1
  13    9   10 1
  14    9   15 1
  15    9   16 1
  16   10   11 1
  17   10   29 1
  18   10   30 1
  19   11   12 1
  20   11   31 1
  21   11   32 1
  22   12   13 1
  23   12   33 1
  24   12   34 1
  25   13   14 1
  26   13   16 1
  27   13   25 1
  28   14   15 1
  29   14   35 1
  30   14   36 1
  31   15   37 1
  32   15   38 1
  33   16   39 1
  34   16   40 1
  35   17   18 ar
  36   17   22 ar
  37   17   23 1
  38   18   19 ar
  39   18   41 1
  40   19   20 ar
  41   19   42 1
  42   20   21 ar
  43   20   43 1
  44   21   22 ar
  45   21   44 1
  46   23   24 2
  47   23   25 am
  48   25   45 1
  49   26   46 1
  50   26   47 1
  51   26   48 1

#	End of record

