#	Name: ASD01915629
#	Creating user name:	WinNT
#	Creation time:	15. 06. 2019 20:05

#	Modifying user name:	WinNT
#	Modification time:	15. 06. 2019 20:05

#	Program:	/corina/corina34_cracker 3.40 0067  02.08.2006

@<TRIPOS>MOLECULE
ASD01915629
  44   47    0    0    0
SMALL
NO_CHARGES


@<TRIPOS>ATOM
   1 C1            -0.0042     1.4685     0.2349 C.2     
   2 N2             0.0662     0.1191    -0.0301 N.pl3   
   3 C3            -1.1429    -0.6636    -0.3130 C.3     
   4 C4            -2.3280    -0.0486     0.4295 C.3     
   5 N5            -2.4044     1.3988     0.2638 N.am    
   6 C6            -1.2935     2.1742     0.2863 C.2     
   7 C7             1.2763     1.9058     0.4260 C.2     
   8 C8             2.0758     0.7650     0.2738 C.2     
   9 N9             1.2864    -0.2503     0.0108 N.2     
  10 C10            3.5773     0.7129     0.3912 C.3     
  11 O11            4.0776     2.0187     0.6856 O.3     
  12 C12            5.4234     2.1469     0.8246 C.ar    
  13 O13           -1.3590     3.3874     0.3458 O.2     
  14 C14            5.9774     3.3862     1.1108 C.ar    
  15 C15            6.2451     1.0377     0.6862 C.ar    
  16 C16            7.6128     1.1707     0.8279 C.ar    
  17 C17            8.1629     2.4080     1.1075 C.ar    
  18 C18            7.3457     3.5140     1.2516 C.ar    
  19 C19           -3.6541     2.0003     0.0771 C.ar    
  20 C20           -4.5855     2.0028     1.1072 C.ar    
  21 C21           -0.9391    -2.1056     0.1560 C.3     
  22 C22           -3.9626     2.6005    -1.1366 C.ar    
  23 C23           -5.1965     3.1936    -1.3187 C.ar    
  24 C24           -6.1256     3.1903    -0.2920 C.ar    
  25 C25           -5.8182     2.5969     0.9209 C.ar    
  26 F26           -7.3319     3.7714    -0.4720 F       
  27 H27           -1.3403    -0.6536    -1.3849 H       
  28 H28           -3.2488    -0.4952     0.0543 H       
  29 H29           -2.2354    -0.2771     1.4912 H       
  30 H30            1.6015     2.9119     0.6460 H       
  31 H31            3.8556     0.0281     1.1922 H       
  32 H32            4.0035     0.3642    -0.5495 H       
  33 H33            5.3395     4.2505     1.2231 H       
  34 H34            5.8158     0.0710     0.4682 H       
  35 H35            8.2528     0.3074     0.7206 H       
  36 H36            9.2324     2.5099     1.2179 H       
  37 H37            7.7779     4.4794     1.4696 H       
  38 H38           -4.3461     1.5401     2.0533 H       
  39 H39           -0.7432    -2.1147     1.2282 H       
  40 H40           -1.8371    -2.6865    -0.0543 H       
  41 H41           -0.0916    -2.5430    -0.3718 H       
  42 H42           -3.2379     2.6039    -1.9374 H       
  43 H43           -5.4368     3.6605    -2.2625 H       
  44 H44           -6.5444     2.5952     1.7202 H       
@<TRIPOS>BOND
   1    1    2 1
   2    1    7 2
   3    1    6 1
   4    2    3 1
   5    2    9 1
   6    3    4 1
   7    3   21 1
   8    3   27 1
   9    4    5 1
  10    4   28 1
  11    4   29 1
  12    5    6 am
  13    5   19 1
  14    6   13 2
  15    7    8 1
  16    7   30 1
  17    8    9 2
  18    8   10 1
  19   10   11 1
  20   10   31 1
  21   10   32 1
  22   11   12 1
  23   12   14 ar
  24   12   15 ar
  25   14   18 ar
  26   14   33 1
  27   15   16 ar
  28   15   34 1
  29   16   17 ar
  30   16   35 1
  31   17   18 ar
  32   17   36 1
  33   18   37 1
  34   19   20 ar
  35   19   22 ar
  36   20   25 ar
  37   20   38 1
  38   21   39 1
  39   21   40 1
  40   21   41 1
  41   22   23 ar
  42   22   42 1
  43   23   24 ar
  44   23   43 1
  45   24   25 ar
  46   24   26 1
  47   25   44 1

#	End of record

