#	Name: ASD02039320
#	Creating user name:	WinNT
#	Creation time:	15. 06. 2019 20:18

#	Modifying user name:	WinNT
#	Modification time:	15. 06. 2019 20:18

#	Program:	/corina/corina34_cracker 3.40 0067  02.08.2006

@<TRIPOS>MOLECULE
ASD02039320
  47   49    0    0    0
SMALL
NO_CHARGES


@<TRIPOS>ATOM
   1 C1            -0.2049     1.0591    -0.5263 C.ar    
   2 C2            -0.0161    -0.3047    -0.4011 C.ar    
   3 C3            -1.0587    -1.1676    -0.7075 C.ar    
   4 C4            -2.3848     0.7611    -1.2252 C.ar    
   5 N5            -1.3604     1.5493    -0.9269 N.ar    
   6 C6            -3.6667     1.3579    -1.6722 C.ar    
   7 C7             0.9253     1.9988    -0.1937 C.3     
   8 N8             1.6446     2.3509    -1.4204 N.am    
   9 C9             1.1483     3.4315    -2.2761 C.3     
  10 C10            2.7630     1.6807    -1.7618 C.2     
  11 C11            3.2058     0.5285    -0.9574 C.2     
  12 C12            4.2423    -0.3087    -1.2502 C.2     
  13 C13            2.2335     4.4989    -2.4307 C.3     
  14 N14            2.6604     0.1101     0.2133 N.2     
  15 C15            3.3131    -0.9354     0.6319 C.2     
  16 N16            4.3024    -1.2229    -0.2536 N.pl3   
  17 O17            3.4067     2.0270    -2.7339 O.2     
  18 C18            5.2618    -2.3252    -0.1491 C.3     
  19 C19            0.7878     2.8678    -3.6520 C.3     
  20 C20           -4.0951     2.5731    -1.1403 C.ar    
  21 C21           -4.4441     0.7082    -2.6296 C.ar    
  22 C22           -5.6359     1.2671    -3.0423 C.ar    
  23 C23           -6.0604     2.4726    -2.5070 C.ar    
  24 C24           -5.2883     3.1245    -1.5589 C.ar    
  25 C25           -2.2621    -0.6261    -1.1317 C.ar    
  26 F26           -3.3038    -1.4289    -1.4411 F       
  27 F27           -7.2278     3.0167    -2.9148 F       
  28 H28            0.9342    -0.6950    -0.0682 H       
  29 H29           -0.9352    -2.2367    -0.6179 H       
  30 H30            0.5235     2.9028     0.2640 H       
  31 H31            1.6094     1.5126     0.5018 H       
  32 H32            0.2628     3.8766    -1.8224 H       
  33 H33            4.8905    -0.2531    -2.1123 H       
  34 H34            3.1426     4.0394    -2.8186 H       
  35 H35            1.8909     5.2677    -3.1234 H       
  36 H36            2.4401     4.9502    -1.4603 H       
  37 H37            3.1040    -1.4838     1.5385 H       
  38 H38            4.8563    -3.2079    -0.6437 H       
  39 H39            6.1982    -2.0385    -0.6278 H       
  40 H40            5.4447    -2.5493     0.9018 H       
  41 H41           -0.0174     2.1406    -3.5471 H       
  42 H42            0.4621     3.6791    -4.3031 H       
  43 H43            1.6617     2.3822    -4.0861 H       
  44 H44           -3.4939     3.0819    -0.4013 H       
  45 H45           -4.1136    -0.2311    -3.0478 H       
  46 H46           -6.2388     0.7644    -3.7841 H       
  47 H47           -5.6230     4.0640    -1.1444 H       
@<TRIPOS>BOND
   1    1    2 ar
   2    1    7 1
   3    1    5 ar
   4    2    3 ar
   5    2   28 1
   6    3   25 ar
   7    3   29 1
   8    4    5 ar
   9    4    6 1
  10    4   25 ar
  11    6   20 ar
  12    6   21 ar
  13    7    8 1
  14    7   30 1
  15    7   31 1
  16    8    9 1
  17    8   10 am
  18    9   19 1
  19    9   13 1
  20    9   32 1
  21   10   11 1
  22   10   17 2
  23   11   12 2
  24   11   14 1
  25   12   16 1
  26   12   33 1
  27   13   34 1
  28   13   35 1
  29   13   36 1
  30   14   15 2
  31   15   16 1
  32   15   37 1
  33   16   18 1
  34   18   38 1
  35   18   39 1
  36   18   40 1
  37   19   41 1
  38   19   42 1
  39   19   43 1
  40   20   24 ar
  41   20   44 1
  42   21   22 ar
  43   21   45 1
  44   22   23 ar
  45   22   46 1
  46   23   24 ar
  47   23   27 1
  48   24   47 1
  49   25   26 1

#	End of record

