#	Name: ASD03330813
#	Creating user name:	WinNT
#	Creation time:	15. 06. 2019 20:38

#	Modifying user name:	WinNT
#	Modification time:	15. 06. 2019 20:38

#	Program:	/corina/corina34_cracker 3.40 0067  02.08.2006

@<TRIPOS>MOLECULE
ASD03330813
  55   58    0    0    0
SMALL
NO_CHARGES


@<TRIPOS>ATOM
   1 C1            -0.0025     1.3583    -0.1267 C.2     
   2 N2             0.0179     0.0077    -0.2184 N.pl3   
   3 C3             1.2719     1.7629     0.1341 C.2     
   4 N4             2.0522     0.6613     0.1804 N.2     
   5 C5             1.3078    -0.3976    -0.0361 C.2     
   6 C6             1.7873    -1.7967    -0.0762 C.ar    
   7 C7             1.7193     3.1533     0.3296 C.2     
   8 O8             0.9173     4.0652     0.2628 O.2     
   9 C9             4.0906     2.4098     0.6895 C.3     
  10 N10            3.0171     3.4145     0.5826 N.am    
  11 C11           -1.1492    -0.8460    -0.4565 C.3     
  12 C12           -1.9665    -0.2689    -1.6164 C.3     
  13 C13           -2.9659     0.7532    -1.0839 C.3     
  14 N14           -2.4178     1.4736     0.0672 N.3     
  15 C15           -1.2154     2.2348    -0.3025 C.3     
  16 C16           -3.4306     2.3497     0.6709 C.3     
  17 C17            0.9516    -2.8356     0.3346 C.ar    
  18 C18            1.4047    -4.1383     0.2949 C.ar    
  19 C19            2.6846    -4.4152    -0.1512 C.ar    
  20 C20            3.5183    -3.3895    -0.5595 C.ar    
  21 C21            3.0749    -2.0832    -0.5304 C.ar    
  22 C22            5.3919     3.1834     0.3613 C.3     
  23 C23            5.1116     4.5590     1.0222 C.3     
  24 C24            3.5968     4.7485     0.7967 C.3     
  25 C25            2.9742     5.3891     2.0104 C.2     
  26 N26            3.3702     6.6162     2.4026 N.am    
  27 O27            2.1167     4.8004     2.6342 O.2     
  28 C28            2.7649     7.2390     3.5824 C.3     
  29 H29            4.1338     2.0069     1.7015 H       
  30 H30            3.9335     1.6083    -0.0323 H       
  31 H31           -0.8182    -1.8532    -0.7099 H       
  32 H32           -1.7654    -0.8795     0.4420 H       
  33 H33           -1.2961     0.2155    -2.3264 H       
  34 H34           -2.5036    -1.0742    -2.1174 H       
  35 H35           -3.2027     1.4669    -1.8730 H       
  36 H36           -3.8782     0.2383    -0.7826 H       
  37 H37           -1.1275     3.1115     0.3392 H       
  38 H38           -1.2894     2.5499    -1.3434 H       
  39 H39           -4.3067     1.7601     0.9410 H       
  40 H40           -3.0190     2.8191     1.5644 H       
  41 H41           -3.7177     3.1201    -0.0448 H       
  42 H42           -0.0476    -2.6206     0.6834 H       
  43 H43            0.7589    -4.9433     0.6130 H       
  44 H44            3.0346    -5.4365    -0.1805 H       
  45 H45            4.5167    -3.6121    -0.9061 H       
  46 H46            3.7267    -1.2833    -0.8494 H       
  47 H47            6.2580     2.7014     0.8147 H       
  48 H48            5.5238     3.2871    -0.7157 H       
  49 H49            5.3423     4.5293     2.0871 H       
  50 H50            5.6771     5.3477     0.5258 H       
  51 H51            3.4278     5.3714    -0.0817 H       
  52 H52            4.0560     7.0870     1.9036 H       
  53 H53            1.6915     7.3461     3.4263 H       
  54 H54            2.9443     6.6126     4.4562 H       
  55 H55            3.2086     8.2216     3.7425 H       
@<TRIPOS>BOND
   1    1    2 1
   2    1    3 2
   3    1   15 1
   4    2   11 1
   5    2    5 1
   6    3    4 1
   7    3    7 1
   8    4    5 2
   9    5    6 1
  10    6   17 ar
  11    6   21 ar
  12    7    8 2
  13    7   10 am
  14    9   10 1
  15    9   22 1
  16    9   29 1
  17    9   30 1
  18   10   24 1
  19   11   12 1
  20   11   31 1
  21   11   32 1
  22   12   13 1
  23   12   33 1
  24   12   34 1
  25   13   14 1
  26   13   35 1
  27   13   36 1
  28   14   15 1
  29   14   16 1
  30   15   37 1
  31   15   38 1
  32   16   39 1
  33   16   40 1
  34   16   41 1
  35   17   18 ar
  36   17   42 1
  37   18   19 ar
  38   18   43 1
  39   19   20 ar
  40   19   44 1
  41   20   21 ar
  42   20   45 1
  43   21   46 1
  44   22   23 1
  45   22   47 1
  46   22   48 1
  47   23   24 1
  48   23   49 1
  49   23   50 1
  50   24   25 1
  51   24   51 1
  52   25   26 am
  53   25   27 2
  54   26   28 1
  55   26   52 1
  56   28   53 1
  57   28   54 1
  58   28   55 1

#	End of record

