#	Name: ASD01916085
#	Creating user name:	WinNT
#	Creation time:	15. 06. 2019 20:06

#	Modifying user name:	WinNT
#	Modification time:	15. 06. 2019 20:06

#	Program:	/corina/corina34_cracker 3.40 0067  02.08.2006

@<TRIPOS>MOLECULE
ASD01916085
  46   48    0    0    0
SMALL
NO_CHARGES


@<TRIPOS>ATOM
   1 C1             0.3746     1.8154     0.5594 C.2     
   2 C2             0.3474     0.3420     0.4231 C.ar    
   3 C3             1.2026    -0.2913    -0.4801 C.ar    
   4 C4             1.1772    -1.6632    -0.6070 C.ar    
   5 C5             0.2964    -2.4195     0.1675 C.ar    
   6 C6            -0.5591    -1.7864     1.0703 C.ar    
   7 C7            -0.5294    -0.4149     1.2018 C.ar    
   8 O8             1.1417     2.4740    -0.1151 O.2     
   9 N9            -0.4551     2.4272     1.4276 N.am    
  10 C10            0.2691    -3.8932     0.0311 C.2     
  11 O11            1.3045    -4.5073    -0.1356 O.2     
  12 N12           -0.9039    -4.5540     0.0918 N.am    
  13 C13           -0.9367    -6.0229     0.0885 C.3     
  14 C14           -1.8698    -6.4928    -1.0319 C.3     
  15 C15           -3.2403    -5.8339    -0.8589 C.3     
  16 C16           -3.0935    -4.3138    -0.9582 C.3     
  17 C17           -2.1739    -3.8192     0.1687 C.3     
  18 C18            0.4723    -6.5669    -0.1556 C.3     
  19 C19           -0.3573     3.8078     1.6342 C.ar    
  20 C20           -1.4991     4.5547     1.8930 C.ar    
  21 C21           -1.4004     5.9171     2.0967 C.ar    
  22 C22           -0.1640     6.5384     2.0429 C.ar    
  23 C23            0.9758     5.7956     1.7845 C.ar    
  24 C24            0.8823     4.4320     1.5864 C.ar    
  25 F25           -0.0696     7.8713     2.2423 F       
  26 H26            1.8840     0.2940    -1.0797 H       
  27 H27            1.8387    -2.1532    -1.3062 H       
  28 H28           -1.2410    -2.3717     1.6694 H       
  29 H29           -1.1881     0.0747     1.9039 H       
  30 H30           -1.1200     1.9106     1.9091 H       
  31 H31           -1.3082    -6.3823     1.0482 H       
  32 H32           -1.4498    -6.2107    -1.9974 H       
  33 H33           -1.9785    -7.5763    -0.9845 H       
  34 H34           -3.9135    -6.1855    -1.6407 H       
  35 H35           -3.6488    -6.0963     0.1169 H       
  36 H36           -2.6619    -4.0523    -1.9244 H       
  37 H37           -4.0731    -3.8464    -0.8583 H       
  38 H38           -2.6442    -4.0026     1.1348 H       
  39 H39           -1.9867    -2.7523     0.0477 H       
  40 H40            1.1325    -6.2391     0.6474 H       
  41 H41            0.4422    -7.6562    -0.1793 H       
  42 H42            0.8461    -6.1929    -1.1088 H       
  43 H43           -2.4637     4.0706     1.9347 H       
  44 H44           -2.2882     6.4984     2.2976 H       
  45 H45            1.9390     6.2822     1.7426 H       
  46 H46            1.7720     3.8523     1.3897 H       
@<TRIPOS>BOND
   1    1    2 1
   2    1    8 2
   3    1    9 am
   4    2    3 ar
   5    2    7 ar
   6    3    4 ar
   7    3   26 1
   8    4    5 ar
   9    4   27 1
  10    5    6 ar
  11    5   10 1
  12    6    7 ar
  13    6   28 1
  14    7   29 1
  15    9   19 1
  16    9   30 1
  17   10   11 2
  18   10   12 am
  19   12   13 1
  20   12   17 1
  21   13   14 1
  22   13   18 1
  23   13   31 1
  24   14   15 1
  25   14   32 1
  26   14   33 1
  27   15   16 1
  28   15   34 1
  29   15   35 1
  30   16   17 1
  31   16   36 1
  32   16   37 1
  33   17   38 1
  34   17   39 1
  35   18   40 1
  36   18   41 1
  37   18   42 1
  38   19   20 ar
  39   19   24 ar
  40   20   21 ar
  41   20   43 1
  42   21   22 ar
  43   21   44 1
  44   22   23 ar
  45   22   25 1
  46   23   24 ar
  47   23   45 1
  48   24   46 1

#	End of record

