#	Name: ASD03091124
#	Creating user name:	WinNT
#	Creation time:	15. 06. 2019 20:30

#	Modifying user name:	WinNT
#	Modification time:	15. 06. 2019 20:30

#	Program:	/corina/corina34_cracker 3.40 0067  02.08.2006

@<TRIPOS>MOLECULE
ASD03091124
  73   77    0    0    0
SMALL
NO_CHARGES


@<TRIPOS>ATOM
   1 N1             2.6903     2.8033     2.1842 N.am    
   2 C2             1.8313     1.8722     1.4423 C.3     
   3 C3             2.7010     0.6861     0.9887 C.3     
   4 C4             3.9488     0.7734     1.9250 C.3     
   5 C5             4.0711     2.2940     2.1632 C.3     
   6 N6             2.5174    -0.9635     2.7682 N.3     
   7 C7             2.0246    -0.6276     1.4216 C.3     
   8 C8             3.4292     0.1074     3.2180 C.3     
   9 C9             2.2825     3.9405     2.7816 C.2     
  10 O10            1.1135     4.2681     2.7307 O.2     
  11 O11            3.1705     4.7136     3.4347 O.3     
  12 N12           -1.6965    -1.6190     6.2932 N.2     
  13 C13           -1.5865    -1.2570     7.5348 C.2     
  14 N14           -0.4590    -0.7037     8.0554 N.am    
  15 C15            0.6301    -0.4998     7.2782 C.2     
  16 C16            0.5383    -0.8996     5.8660 C.ar    
  17 C17            1.6020    -0.7317     4.9824 C.ar    
  18 C18            1.4565    -1.1269     3.6634 C.ar    
  19 C19            0.2574    -1.6867     3.2226 C.ar    
  20 C20           -0.7935    -1.8561     4.0781 C.ar    
  21 C21           -0.6739    -1.4667     5.4140 C.ar    
  22 O22            1.6460    -0.0047     7.7305 O.2     
  23 C23           -0.4228    -0.3245     9.4700 C.3     
  24 C24           -1.0109     1.0531     9.6359 C.2     
  25 O25           -1.4200     1.6585     8.6679 O.2     
  26 N26           -1.0822     1.6124    10.8601 N.am    
  27 C27           -1.6539     2.9516    11.0214 C.3     
  28 C28           -2.1906     3.1089    12.4455 C.3     
  29 C29           -0.5717     4.0023    10.7653 C.3     
  30 C30           -2.7695    -1.4600     8.4461 C.3     
  31 C31           -4.1587    -1.4843     7.8054 C.3     
  32 C32           -3.5343    -2.7798     8.3275 C.3     
  33 C33            2.6606     5.9238     4.0542 C.3     
  34 C34            1.5953     5.5570     5.0893 C.3     
  35 C35            3.8074     6.6659     4.7435 C.3     
  36 C36            2.0420     6.8237     2.9826 C.3     
  37 H37            1.0291     1.5157     2.0885 H       
  38 H38            1.4088     2.3740     0.5718 H       
  39 H39            2.9529     0.7210    -0.0712 H       
  40 H40            4.8493     0.3192     1.5115 H       
  41 H41            4.6317     2.7586     1.3520 H       
  42 H42            4.5588     2.4878     3.1185 H       
  43 H43            0.9430    -0.4954     1.4464 H       
  44 H44            2.2842    -1.4239     0.7241 H       
  45 H45            4.2587    -0.3162     3.7841 H       
  46 H46            2.8884     0.8332     3.8254 H       
  47 H47            2.5304    -0.2974     5.3226 H       
  48 H48            0.1586    -1.9899     2.1908 H       
  49 H49           -1.7160    -2.2904     3.7219 H       
  50 H50           -1.0030    -1.0398    10.0529 H       
  51 H51            0.6096    -0.3233     9.8195 H       
  52 H52           -0.7551     1.1282    11.6343 H       
  53 H53           -2.4679     3.0873    10.3093 H       
  54 H54           -1.3766     2.9731    13.1576 H       
  55 H55           -2.6159     4.1052    12.5655 H       
  56 H56           -2.9616     2.3603    12.6280 H       
  57 H57            0.2423     3.8666    11.4773 H       
  58 H58           -0.1894     3.8903     9.7507 H       
  59 H59           -0.9970     4.9987    10.8853 H       
  60 H60           -2.6803    -1.0169     9.4380 H       
  61 H61           -4.9836    -1.0575     8.3761 H       
  62 H62           -4.2170    -1.3534     6.7249 H       
  63 H63           -3.1818    -3.5013     7.5904 H       
  64 H64           -3.9483    -3.2054     9.2416 H       
  65 H65            2.0360     4.9159     5.8528 H       
  66 H66            1.2126     6.4655     5.5544 H       
  67 H67            0.7784     5.0283     4.5982 H       
  68 H68            4.5663     6.9273     4.0061 H       
  69 H69            3.4246     7.5744     5.2086 H       
  70 H70            4.2481     6.0248     5.5070 H       
  71 H71            1.2251     6.2950     2.4915 H       
  72 H72            1.6593     7.7322     3.4476 H       
  73 H73            2.8010     7.0850     2.2451 H       
@<TRIPOS>BOND
   1    1    2 1
   2    1    5 1
   3    1    9 am
   4    2    3 1
   5    2   37 1
   6    2   38 1
   7    3    4 1
   8    3    7 1
   9    3   39 1
  10    4    5 1
  11    4    8 1
  12    4   40 1
  13    5   41 1
  14    5   42 1
  15    6    7 1
  16    6    8 1
  17    6   18 1
  18    7   43 1
  19    7   44 1
  20    8   45 1
  21    8   46 1
  22    9   10 2
  23    9   11 1
  24   11   33 1
  25   12   13 2
  26   12   21 1
  27   13   14 1
  28   13   30 1
  29   14   15 am
  30   14   23 1
  31   15   16 1
  32   15   22 2
  33   16   17 ar
  34   16   21 ar
  35   17   18 ar
  36   17   47 1
  37   18   19 ar
  38   19   20 ar
  39   19   48 1
  40   20   21 ar
  41   20   49 1
  42   23   24 1
  43   23   50 1
  44   23   51 1
  45   24   25 2
  46   24   26 am
  47   26   27 1
  48   26   52 1
  49   27   28 1
  50   27   29 1
  51   27   53 1
  52   28   54 1
  53   28   55 1
  54   28   56 1
  55   29   57 1
  56   29   58 1
  57   29   59 1
  58   30   31 1
  59   30   32 1
  60   30   60 1
  61   31   32 1
  62   31   61 1
  63   31   62 1
  64   32   63 1
  65   32   64 1
  66   33   34 1
  67   33   36 1
  68   33   35 1
  69   34   65 1
  70   34   66 1
  71   34   67 1
  72   35   68 1
  73   35   69 1
  74   35   70 1
  75   36   71 1
  76   36   72 1
  77   36   73 1

#	End of record

