#	Name: ASD01815847
#	Creating user name:	WinNT
#	Creation time:	15. 06. 2019 19:34

#	Modifying user name:	WinNT
#	Modification time:	15. 06. 2019 19:34

#	Program:	/corina/corina34_cracker 3.40 0067  02.08.2006

@<TRIPOS>MOLECULE
ASD01815847
  50   55    0    0    0
SMALL
NO_CHARGES


@<TRIPOS>ATOM
   1 C1            -0.0167     1.3838     0.0097 C.ar    
   2 C2             0.0021    -0.0041     0.0020 C.ar    
   3 C3            -1.1856    -0.7101     0.0095 C.ar    
   4 C4            -2.3929    -0.0367     0.0246 C.ar    
   5 C5            -2.4172     1.3462     0.0318 C.ar    
   6 C6            -1.2326     2.0595     0.0307 C.ar    
   7 F7            -1.2561     3.4102     0.0377 F       
   8 N8             1.1856     2.1023     0.0020 N.am    
   9 C9             1.8869     2.4210    -1.1073 C.2     
  10 N10            1.8272     2.5965     1.1404 N.2     
  11 C11            2.9245     3.2223     0.8250 C.2     
  12 C12            3.0576     3.1628    -0.6492 C.2     
  13 O13            1.5998     2.1442    -2.2605 O.2     
  14 C14            3.9845     3.9288     1.5666 C.ar    
  15 C15            5.0476     4.4948     0.8422 C.ar    
  16 N16            5.0878     4.3858    -0.5339 N.pl3   
  17 C17            4.1415     3.7533    -1.2479 C.2     
  18 C18            3.9538     4.0457     2.9542 C.ar    
  19 C19            4.9892     4.7261     3.5739 C.ar    
  20 C20            6.0059     5.2596     2.8006 C.ar    
  21 N21            6.0124     5.1352     1.4893 N.ar    
  22 C22            6.2140     4.9909    -1.2493 C.3     
  23 C23            7.3275     3.9836    -1.3770 C.ar    
  24 C24            7.3780     3.1466    -2.4766 C.ar    
  25 C25            8.3971     2.2221    -2.5963 C.ar    
  26 C26            9.3717     2.1339    -1.6114 C.ar    
  27 C27            9.3186     2.9759    -0.5088 C.ar    
  28 C28            8.2999     3.9020    -0.3973 C.ar    
  29 N29           10.4071     1.1962    -1.7298 N.pl3   
  30 C30           11.4142     1.0070    -0.8475 C.2     
  31 C31           12.1995     0.0143    -1.3259 C.2     
  32 C32           11.6555    -0.4182    -2.5403 C.2     
  33 N33           10.5782     0.2853    -2.7802 N.2     
  34 H34            0.9444    -0.5317    -0.0101 H       
  35 H35           -1.1707    -1.7900     0.0032 H       
  36 H36           -3.3193    -0.5918     0.0304 H       
  37 H37           -3.3620     1.8692     0.0429 H       
  38 H38            4.2380     3.7065    -2.3226 H       
  39 H39            3.1462     3.6186     3.5301 H       
  40 H40            5.0028     4.8394     4.6479 H       
  41 H41            6.8128     5.7904     3.2839 H       
  42 H42            5.8890     5.3012    -2.2423 H       
  43 H43            6.5714     5.8594    -0.6960 H       
  44 H44            6.6196     3.2157    -3.2424 H       
  45 H45            8.4356     1.5682    -3.4550 H       
  46 H46           10.0751     2.9094     0.2591 H       
  47 H47            8.2581     4.5573     0.4602 H       
  48 H48           11.5650     1.5509     0.0732 H       
  49 H49           13.0892    -0.3755    -0.8536 H       
  50 H50           12.0534    -1.2008    -3.1692 H       
@<TRIPOS>BOND
   1    1    2 ar
   2    1    8 1
   3    1    6 ar
   4    2    3 ar
   5    2   34 1
   6    3    4 ar
   7    3   35 1
   8    4    5 ar
   9    4   36 1
  10    5    6 ar
  11    5   37 1
  12    6    7 1
  13    8    9 am
  14    8   10 1
  15    9   13 2
  16    9   12 1
  17   10   11 2
  18   11   12 1
  19   11   14 1
  20   12   17 2
  21   14   15 ar
  22   14   18 ar
  23   15   16 1
  24   15   21 ar
  25   16   17 1
  26   16   22 1
  27   17   38 1
  28   18   19 ar
  29   18   39 1
  30   19   20 ar
  31   19   40 1
  32   20   21 ar
  33   20   41 1
  34   22   23 1
  35   22   42 1
  36   22   43 1
  37   23   24 ar
  38   23   28 ar
  39   24   25 ar
  40   24   44 1
  41   25   26 ar
  42   25   45 1
  43   26   27 ar
  44   26   29 1
  45   27   28 ar
  46   27   46 1
  47   28   47 1
  48   29   30 1
  49   29   33 1
  50   30   31 2
  51   30   48 1
  52   31   32 1
  53   31   49 1
  54   32   33 2
  55   32   50 1

#	End of record

