#	Name: ASD01918571
#	Creating user name:	WinNT
#	Creation time:	15. 06. 2019 20:11

#	Modifying user name:	WinNT
#	Modification time:	15. 06. 2019 20:11

#	Program:	/corina/corina34_cracker 3.40 0067  02.08.2006

@<TRIPOS>MOLECULE
ASD01918571
  40   43    0    0    0
SMALL
NO_CHARGES


@<TRIPOS>ATOM
   1 Cl1           -0.4824     0.4866    -2.5134 Cl      
   2 C2            -0.3119     2.1649    -2.1035 C.ar    
   3 C3             0.9497     2.7277    -1.9595 C.ar    
   4 C4             1.0406     4.0692    -1.6321 C.ar    
   5 C5            -0.1268     4.8039    -1.4594 C.ar    
   6 N6            -0.0491     6.1557    -1.1300 N.am    
   7 C7            -1.1708     6.9008    -1.0721 C.2     
   8 O8            -2.2386     6.4183    -1.3971 O.2     
   9 C9            -1.1030     8.3006    -0.6147 C.ar    
  10 C10            0.1084     8.8614    -0.2479 C.ar    
  11 C11            0.1749    10.1927     0.1869 C.ar    
  12 C12           -0.9635    10.9814     0.2621 C.ar    
  13 C13           -2.2127    10.4590    -0.0984 C.ar    
  14 C14           -3.3807    11.2440    -0.0295 C.ar    
  15 C15           -4.5656    10.6701    -0.3967 C.ar    
  16 C16           -4.5928     9.3458    -0.8235 C.ar    
  17 N17           -3.5012     8.6180    -0.8856 N.ar    
  18 C18           -2.3145     9.1188    -0.5479 C.ar    
  19 C19            1.4806    10.7653     0.5722 C.2     
  20 O20            1.5260    11.7653     1.2618 O.2     
  21 C21            2.7316    10.1227     0.1195 C.ar    
  22 C22            2.7623     9.3486    -1.0472 C.ar    
  23 N23            3.9030     8.7923    -1.4148 N.ar    
  24 C24            4.9998     8.9576    -0.7014 C.ar    
  25 N25            5.0158     9.6777     0.4033 N.ar    
  26 C26            3.9218    10.2752     0.8416 C.ar    
  27 N27           -1.3117     4.2317    -1.6053 N.ar    
  28 C28           -1.4302     2.9568    -1.9226 C.ar    
  29 H29            1.8395     2.1318    -2.0995 H       
  30 H30            2.0056     4.5390    -1.5119 H       
  31 H31            0.8122     6.5605    -0.9423 H       
  32 H32            1.0097     8.2683    -0.2967 H       
  33 H33           -0.8866    12.0040     0.6008 H       
  34 H34           -3.3408    12.2702     0.3045 H       
  35 H35           -5.4797    11.2437    -0.3555 H       
  36 H36           -5.5360     8.9050    -1.1107 H       
  37 H37            1.8682     9.2083    -1.6365 H       
  38 H38            5.9142     8.4878    -1.0323 H       
  39 H39            3.9441    10.8676     1.7443 H       
  40 H40           -2.4135     2.5254    -2.0382 H       
@<TRIPOS>BOND
   1    1    2 1
   2    2   28 ar
   3    2    3 ar
   4    3    4 ar
   5    3   29 1
   6    4    5 ar
   7    4   30 1
   8    5    6 1
   9    5   27 ar
  10    6    7 am
  11    6   31 1
  12    7    8 2
  13    7    9 1
  14    9   18 ar
  15    9   10 ar
  16   10   11 ar
  17   10   32 1
  18   11   12 ar
  19   11   19 1
  20   12   13 ar
  21   12   33 1
  22   13   18 ar
  23   13   14 ar
  24   14   15 ar
  25   14   34 1
  26   15   16 ar
  27   15   35 1
  28   16   17 ar
  29   16   36 1
  30   17   18 ar
  31   19   20 2
  32   19   21 1
  33   21   26 ar
  34   21   22 ar
  35   22   23 ar
  36   22   37 1
  37   23   24 ar
  38   24   25 ar
  39   24   38 1
  40   25   26 ar
  41   26   39 1
  42   27   28 ar
  43   28   40 1

#	End of record

