#	Name: ASD03091499
#	Creating user name:	WinNT
#	Creation time:	15. 06. 2019 20:30

#	Modifying user name:	WinNT
#	Modification time:	15. 06. 2019 20:30

#	Program:	/corina/corina34_cracker 3.40 0067  02.08.2006

@<TRIPOS>MOLECULE
ASD03091499
  42   45    0    0    0
SMALL
NO_CHARGES


@<TRIPOS>ATOM
   1 N1            -0.0091     1.3370    -0.0439 N.pl3   
   2 C2             0.0140    -0.0187    -0.0545 C.2     
   3 C3             1.1495    -0.7209     0.2202 C.2     
   4 C4             2.3844     0.0186     0.5277 C.2     
   5 C5             2.3772     1.4613     0.2504 C.ar    
   6 C6             3.5473     2.2325     0.2615 C.ar    
   7 N7             3.4815     3.5296    -0.0015 N.ar    
   8 C8             2.3381     4.1337    -0.2774 C.ar    
   9 C9             1.1439     3.4480    -0.3059 C.ar    
  10 C10            1.1447     2.0793    -0.0364 C.ar    
  11 N11            4.7663     1.6420     0.5465 N.pl3   
  12 C12            5.9450     2.3856     0.4399 C.ar    
  13 C13            6.9974     2.1516     1.3159 C.ar    
  14 C14            8.1605     2.8881     1.2078 C.ar    
  15 C15            8.2782     3.8581     0.2292 C.ar    
  16 C16            7.2322     4.0940    -0.6442 C.ar    
  17 C17            6.0688     3.3565    -0.5459 C.ar    
  18 O18            3.3656    -0.5390     0.9905 O.2     
  19 C19            1.1407    -2.2036     0.2101 C.ar    
  20 C20            0.9021    -2.8936    -0.9773 C.ar    
  21 C21            0.8950    -4.2737    -0.9808 C.ar    
  22 C22            1.1242    -4.9721     0.1911 C.ar    
  23 C23            1.3616    -4.2926     1.3724 C.ar    
  24 C24            1.3767    -2.9127     1.3867 C.ar    
  25 C25            1.1147    -6.4790     0.1809 C.3     
  26 F26            2.4055    -6.9517    -0.0791 F       
  27 F27            0.6873    -6.9511     1.4265 F       
  28 F28            0.2426    -6.9331    -0.8143 F       
  29 H29           -0.8645     1.7944    -0.0457 H       
  30 H30           -0.8929    -0.5573    -0.2869 H       
  31 H31            2.3406     5.1935    -0.4857 H       
  32 H32            0.2216     3.9617    -0.5337 H       
  33 H33            4.8026     0.7121     0.8202 H       
  34 H34            6.9059     1.3947     2.0808 H       
  35 H35            8.9791     2.7067     1.8885 H       
  36 H36            9.1888     4.4330     0.1470 H       
  37 H37            7.3271     4.8527    -1.4069 H       
  38 H38            5.2541     3.5379    -1.2314 H       
  39 H39            0.7227    -2.3494    -1.8927 H       
  40 H40            0.7099    -4.8094    -1.9001 H       
  41 H41            1.5399    -4.8430     2.2843 H       
  42 H42            1.5666    -2.3832     2.3087 H       
@<TRIPOS>BOND
   1    1    2 1
   2    1   10 1
   3    1   29 1
   4    2    3 2
   5    2   30 1
   6    3    4 1
   7    3   19 1
   8    4    5 1
   9    4   18 2
  10    5    6 ar
  11    5   10 ar
  12    6    7 ar
  13    6   11 1
  14    7    8 ar
  15    8    9 ar
  16    8   31 1
  17    9   10 ar
  18    9   32 1
  19   11   12 1
  20   11   33 1
  21   12   13 ar
  22   12   17 ar
  23   13   14 ar
  24   13   34 1
  25   14   15 ar
  26   14   35 1
  27   15   16 ar
  28   15   36 1
  29   16   17 ar
  30   16   37 1
  31   17   38 1
  32   19   20 ar
  33   19   24 ar
  34   20   21 ar
  35   20   39 1
  36   21   22 ar
  37   21   40 1
  38   22   23 ar
  39   22   25 1
  40   23   24 ar
  41   23   41 1
  42   24   42 1
  43   25   26 1
  44   25   27 1
  45   25   28 1

#	End of record

