#	Name: ASD03330891
#	Creating user name:	WinNT
#	Creation time:	15. 06. 2019 20:38

#	Modifying user name:	WinNT
#	Modification time:	15. 06. 2019 20:38

#	Program:	/corina/corina34_cracker 3.40 0067  02.08.2006

@<TRIPOS>MOLECULE
ASD03330891
  63   66    0    0    0
SMALL
NO_CHARGES


@<TRIPOS>ATOM
   1 N1             0.1669     0.9784    -0.0165 N.pl3   
   2 C2             0.0547    -0.3600     0.1972 C.2     
   3 C3             1.1804    -1.2850     0.5797 C.3     
   4 N4             1.9490    -0.6804     1.6789 N.3     
   5 C5             3.0217     0.1751     1.1680 C.3     
   6 C6             2.6029     0.8592    -0.1302 C.3     
   7 C7             1.3954     1.7648     0.1271 C.3     
   8 C8            -1.0669     1.4403    -0.3722 C.2     
   9 N9            -1.9099     0.4342    -0.3614 N.2     
  10 C10           -1.2493    -0.6914    -0.0109 C.2     
  11 C11           -1.8353    -2.0368     0.1217 C.2     
  12 O12           -1.1340    -2.9765     0.4449 O.2     
  13 N13           -3.1485    -2.2262    -0.1153 N.am    
  14 C14            2.4819    -1.7123     2.5784 C.3     
  15 C15           -4.9640    -3.6620    -0.8446 C.2     
  16 C16           -3.7312    -3.5639     0.0166 C.3     
  17 C17           -4.1088    -3.8140     1.4780 C.3     
  18 C18           -5.1802    -2.8095     1.9070 C.3     
  19 O19           -5.6020    -2.6642    -1.1061 O.2     
  20 N20           -5.3576    -4.8584    -1.3242 N.am    
  21 C21           -6.6135    -4.9715    -2.0700 C.3     
  22 C22           -4.6535    -5.2358     1.6279 C.3     
  23 C23           -2.8702    -3.6466     2.3605 C.3     
  24 O24           -3.2446     4.4580    -3.2849 O.3     
  25 C25           -3.7402     3.1141    -3.4315 C.3     
  26 O26           -2.7430     2.3091    -2.7750 O.3     
  27 C27           -2.1759     3.1231    -1.8395 C.ar    
  28 C28           -2.4834     4.4439    -2.1515 C.ar    
  29 C29           -2.0197     5.4705    -1.3447 C.ar    
  30 C30           -1.2510     5.1895    -0.2284 C.ar    
  31 C31           -0.9395     3.8849     0.0918 C.ar    
  32 C32           -1.3988     2.8403    -0.7126 C.ar    
  33 F33           -4.9796     2.9752    -2.7976 F       
  34 F34           -3.8370     2.7705    -4.7842 F       
  35 H35            0.7714    -2.2418     0.9043 H       
  36 H36            1.8331    -1.4393    -0.2796 H       
  37 H37            3.2592     0.9348     1.9127 H       
  38 H38            3.9072    -0.4329     0.9828 H       
  39 H39            3.4314     1.4586    -0.5076 H       
  40 H40            2.3379     0.1031    -0.8692 H       
  41 H41            1.3918     2.5814    -0.5949 H       
  42 H42            1.4526     2.1702     1.1373 H       
  43 H43           -3.7079    -1.4769    -0.3731 H       
  44 H44            3.0814    -2.4196     2.0053 H       
  45 H45            3.1036    -1.2435     3.3412 H       
  46 H46            1.6561    -2.2395     3.0562 H       
  47 H47           -3.0040    -4.3101    -0.3036 H       
  48 H48           -6.0625    -2.9287     1.2783 H       
  49 H49           -5.4491    -2.9877     2.9482 H       
  50 H50           -4.7921    -1.7965     1.8002 H       
  51 H51           -4.8093    -5.6447    -1.1756 H       
  52 H52           -6.7628    -6.0072    -2.3752 H       
  53 H53           -7.4422    -4.6564    -1.4359 H       
  54 H54           -6.5698    -4.3350    -2.9538 H       
  55 H55           -3.8691    -5.9529     1.3855 H       
  56 H56           -4.9837    -5.3920     2.6549 H       
  57 H57           -5.4956    -5.3756     0.9502 H       
  58 H58           -2.4821    -2.6337     2.2538 H       
  59 H59           -3.1392    -3.8248     3.4017 H       
  60 H60           -2.1069    -4.3622     2.0549 H       
  61 H61           -2.2590     6.4951    -1.5882 H       
  62 H62           -0.8937     5.9958     0.3949 H       
  63 H63           -0.3397     3.6714     0.9641 H       
@<TRIPOS>BOND
   1    1    2 1
   2    1    7 1
   3    1    8 1
   4    2    3 1
   5    2   10 2
   6    3    4 1
   7    3   35 1
   8    3   36 1
   9    4    5 1
  10    4   14 1
  11    5    6 1
  12    5   37 1
  13    5   38 1
  14    6    7 1
  15    6   39 1
  16    6   40 1
  17    7   41 1
  18    7   42 1
  19    8    9 2
  20    8   32 1
  21    9   10 1
  22   10   11 1
  23   11   12 2
  24   11   13 am
  25   13   16 1
  26   13   43 1
  27   14   44 1
  28   14   45 1
  29   14   46 1
  30   15   19 2
  31   15   20 am
  32   15   16 1
  33   16   17 1
  34   16   47 1
  35   17   18 1
  36   17   22 1
  37   17   23 1
  38   18   48 1
  39   18   49 1
  40   18   50 1
  41   20   21 1
  42   20   51 1
  43   21   52 1
  44   21   53 1
  45   21   54 1
  46   22   55 1
  47   22   56 1
  48   22   57 1
  49   23   58 1
  50   23   59 1
  51   23   60 1
  52   24   25 1
  53   24   28 1
  54   25   26 1
  55   25   33 1
  56   25   34 1
  57   26   27 1
  58   27   28 ar
  59   27   32 ar
  60   28   29 ar
  61   29   30 ar
  62   29   61 1
  63   30   31 ar
  64   30   62 1
  65   31   32 ar
  66   31   63 1

#	End of record

