#	Name: ASD04590316
#	Creating user name:	WinNT
#	Creation time:	15. 06. 2019 20:50

#	Modifying user name:	WinNT
#	Modification time:	15. 06. 2019 20:50

#	Program:	/corina/corina34_cracker 3.40 0067  02.08.2006

@<TRIPOS>MOLECULE
ASD04590316
  44   47    0    0    0
SMALL
NO_CHARGES


@<TRIPOS>ATOM
   1 C1            -0.0167     1.3834     0.0096 C.ar    
   2 C2             0.0021    -0.0041     0.0020 C.ar    
   3 C3             1.1863    -0.6848    -0.0125 C.ar    
   4 C4             2.3948     0.0191    -0.0202 C.ar    
   5 C5             2.3756     1.4250    -0.0129 C.ar    
   6 C6             1.1624     2.0987     0.0022 C.ar    
   7 N7             3.6952    -0.3636    -0.0343 N.2     
   8 C8             4.4665     0.6967    -0.0361 C.2     
   9 N9             3.6970     1.8290    -0.0232 N.pl3   
  10 C10            5.9438     0.6731    -0.0496 C.2     
  11 C11            6.7566    -0.4840    -0.0630 C.2     
  12 C12            8.0504    -0.0800    -0.0734 C.2     
  13 N13            8.0626     1.2789    -0.0669 N.pl3   
  14 N14            6.7358     1.7273    -0.0570 N.2     
  15 N15            6.3043    -1.8135    -0.0645 N.am    
  16 C16            7.1922    -2.8273    -0.0780 C.2     
  17 C17            6.7178    -4.2218    -0.0796 C.ar    
  18 O18            8.3854    -2.5908    -0.0890 O.2     
  19 C19            4.9079    -5.8009    -0.0628 C.ar    
  20 C20            5.8233    -6.8486    -0.0826 C.ar    
  21 C21            7.1856    -6.5869    -0.0951 C.ar    
  22 C22            7.6399    -5.2796    -0.0936 C.ar    
  23 C23            5.3471    -4.4969    -0.0613 C.ar    
  24 O24            5.3816    -8.1319    -0.0835 O.3     
  25 O25            8.9717    -5.0217    -0.1063 O.3     
  26 C26            9.8506    -6.1484    -0.1202 C.3     
  27 C27            3.9667    -8.3310    -0.0636 C.3     
  28 H28           -0.9614     1.9069     0.0169 H       
  29 H29           -0.9290    -0.5513     0.0080 H       
  30 H30            1.1893    -1.7648    -0.0176 H       
  31 H31            1.1417     3.1785     0.0075 H       
  32 H32            4.0192     2.7439    -0.0223 H       
  33 H33            8.9175    -0.7238    -0.0843 H       
  34 H34            8.8532     1.8409    -0.0717 H       
  35 H35            5.3528    -2.0021    -0.0558 H       
  36 H36            3.8488    -6.0118    -0.0532 H       
  37 H37            7.8920    -7.4038    -0.1104 H       
  38 H38            4.6335    -3.6865    -0.0455 H       
  39 H39           10.8843    -5.8028    -0.1294 H       
  40 H40            9.6781    -6.7548     0.7690 H       
  41 H41            9.6598    -6.7471    -1.0109 H       
  42 H42            3.7500    -9.3993    -0.0666 H       
  43 H43            3.5486    -7.8780     0.8354 H       
  44 H44            3.5221    -7.8676    -0.9444 H       
@<TRIPOS>BOND
   1    1    2 ar
   2    1    6 ar
   3    1   28 1
   4    2    3 ar
   5    2   29 1
   6    3    4 ar
   7    3   30 1
   8    4    5 ar
   9    4    7 1
  10    5    6 ar
  11    5    9 1
  12    6   31 1
  13    7    8 2
  14    8    9 1
  15    8   10 1
  16    9   32 1
  17   10   11 1
  18   10   14 2
  19   11   12 2
  20   11   15 1
  21   12   13 1
  22   12   33 1
  23   13   14 1
  24   13   34 1
  25   15   16 am
  26   15   35 1
  27   16   17 1
  28   16   18 2
  29   17   22 ar
  30   17   23 ar
  31   19   20 ar
  32   19   23 ar
  33   19   36 1
  34   20   21 ar
  35   20   24 1
  36   21   22 ar
  37   21   37 1
  38   22   25 1
  39   23   38 1
  40   24   27 1
  41   25   26 1
  42   26   39 1
  43   26   40 1
  44   26   41 1
  45   27   42 1
  46   27   43 1
  47   27   44 1

#	End of record

