#	Name: ASD02038004
#	Creating user name:	WinNT
#	Creation time:	15. 06. 2019 20:16

#	Modifying user name:	WinNT
#	Modification time:	15. 06. 2019 20:16

#	Program:	/corina/corina34_cracker 3.40 0067  02.08.2006

@<TRIPOS>MOLECULE
ASD02038004
  53   56    0    0    0
SMALL
NO_CHARGES


@<TRIPOS>ATOM
   1 C1             0.0792     1.2350    -0.6884 C.ar    
   2 C2            -0.0154     0.0077    -0.0459 C.ar    
   3 N3            -1.2120    -0.7175    -0.0918 N.am    
   4 C4            -2.3301    -4.2278    -0.1164 C.3     
   5 N5            -2.3309    -2.7638     0.0080 N.am    
   6 C6            -1.1836    -2.0649    -0.0999 C.2     
   7 C7            -3.3489    -4.6323    -1.1866 C.3     
   8 C8            -4.7131    -4.0317    -0.8395 C.3     
   9 C9            -4.6107    -2.5048    -0.8226 C.3     
  10 C10           -3.6062    -2.0762     0.2517 C.3     
  11 C11           -5.7411    -4.4620    -1.8878 C.3     
  12 O12           -7.0369    -3.9990    -1.5023 O.3     
  13 C13           -8.0716    -4.2992    -2.3317 C.ar    
  14 C14           -9.3561    -3.8802    -2.0175 C.ar    
  15 C15           -7.8414    -5.0196    -3.4949 C.ar    
  16 C16           -8.8913    -5.3241    -4.3384 C.ar    
  17 C17          -10.1781    -4.9096    -4.0217 C.ar    
  18 C18          -10.4068    -4.1848    -2.8598 C.ar    
  19 N19          -11.2454    -5.2169    -4.8744 N.am    
  20 C20          -12.4012    -4.5326    -4.7937 C.2     
  21 C21          -12.5652    -3.4131    -3.8014 C.3     
  22 C22          -11.8043    -3.7372    -2.5183 C.3     
  23 O23           -0.1229    -2.6500    -0.2046 O.2     
  24 O24          -13.3214    -4.8211    -5.5294 O.2     
  25 C25            1.0791    -0.4994     0.6420 C.ar    
  26 C26            2.2586     0.2178     0.6855 C.ar    
  27 C27            2.3501     1.4409     0.0447 C.ar    
  28 C28            1.2610     1.9482    -0.6419 C.ar    
  29 Cl29           3.8340     2.3401     0.1017 Cl      
  30 H30           -0.7692     1.6295    -1.2278 H       
  31 H31           -2.0616    -0.2501    -0.1179 H       
  32 H32           -1.3373    -4.5691    -0.4094 H       
  33 H33           -2.6058    -4.6758     0.8383 H       
  34 H34           -3.0237    -4.2594    -2.1578 H       
  35 H35           -3.4280    -5.7188    -1.2214 H       
  36 H36           -5.0263    -4.3855     0.1427 H       
  37 H37           -4.2736    -2.1519    -1.7973 H       
  38 H38           -5.5879    -2.0771    -0.5983 H       
  39 H39           -3.9859    -2.3487     1.2365 H       
  40 H40           -3.4554    -0.9979     0.2016 H       
  41 H41           -5.4751    -4.0344    -2.8545 H       
  42 H42           -5.7510    -5.5495    -1.9619 H       
  43 H43           -9.5343    -3.3161    -1.1139 H       
  44 H44           -6.8404    -5.3420    -3.7409 H       
  45 H45           -8.7116    -5.8841    -5.2443 H       
  46 H46          -11.1509    -5.9275    -5.5278 H       
  47 H47          -12.1726    -2.4903    -4.2285 H       
  48 H48          -13.6232    -3.2835    -3.5734 H       
  49 H49          -12.3189    -4.5349    -1.9827 H       
  50 H50          -11.7584    -2.8484    -1.8890 H       
  51 H51            1.0079    -1.4536     1.1429 H       
  52 H52            3.1102    -0.1762     1.2203 H       
  53 H53            1.3351     2.9028    -1.1415 H       
@<TRIPOS>BOND
   1    1    2 ar
   2    1   28 ar
   3    1   30 1
   4    2   25 ar
   5    2    3 1
   6    3    6 am
   7    3   31 1
   8    4    5 1
   9    4    7 1
  10    4   32 1
  11    4   33 1
  12    5    6 am
  13    5   10 1
  14    6   23 2
  15    7    8 1
  16    7   34 1
  17    7   35 1
  18    8    9 1
  19    8   11 1
  20    8   36 1
  21    9   10 1
  22    9   37 1
  23    9   38 1
  24   10   39 1
  25   10   40 1
  26   11   12 1
  27   11   41 1
  28   11   42 1
  29   12   13 1
  30   13   14 ar
  31   13   15 ar
  32   14   18 ar
  33   14   43 1
  34   15   16 ar
  35   15   44 1
  36   16   17 ar
  37   16   45 1
  38   17   18 ar
  39   17   19 1
  40   18   22 1
  41   19   20 am
  42   19   46 1
  43   20   21 1
  44   20   24 2
  45   21   22 1
  46   21   47 1
  47   21   48 1
  48   22   49 1
  49   22   50 1
  50   25   26 ar
  51   25   51 1
  52   26   27 ar
  53   26   52 1
  54   27   28 ar
  55   27   29 1
  56   28   53 1

#	End of record

