#	Name: ASD01881251
#	Creating user name:	WinNT
#	Creation time:	15. 06. 2019 19:42

#	Modifying user name:	WinNT
#	Modification time:	15. 06. 2019 19:42

#	Program:	/corina/corina34_cracker 3.40 0067  02.08.2006

@<TRIPOS>MOLECULE
ASD01881251
  52   55    0    0    0
SMALL
NO_CHARGES


@<TRIPOS>ATOM
   1 C1            -0.0162     1.3398     0.0094 C.2     
   2 N2             0.0021    -0.0041     0.0020 N.am    
   3 C3             1.3976    -0.4572    -0.0137 C.3     
   4 C4             2.2455     0.7903    -0.0151 C.ar    
   5 C5             3.6017     1.0053    -0.0273 C.ar    
   6 C6             4.0981     2.3048    -0.0255 C.ar    
   7 C7             3.2227     3.3847    -0.0109 C.ar    
   8 C8             1.8621     3.1749     0.0014 C.ar    
   9 C9             1.3579     1.8709    -0.0009 C.ar    
  10 O10           -1.0236     2.0205     0.0181 O.2     
  11 O11            5.4382     2.5186    -0.0375 O.3     
  12 C12            5.8783     3.8781    -0.0348 C.3     
  13 C13            8.0739     3.9434    -1.2467 C.ar    
  14 C14            7.3847     3.9185    -0.0494 C.ar    
  15 C15            8.1051     3.9318     1.1473 C.ar    
  16 C16            9.5010     3.9699     1.0779 C.ar    
  17 C17           10.1098     3.9929    -0.1595 C.ar    
  18 N18            9.3933     3.9793    -1.2675 N.ar    
  19 C19            7.4077     3.9065     2.4567 C.ar    
  20 C20            7.7873     2.9881     3.4335 C.ar    
  21 C21            7.1351     2.9690     4.6497 C.ar    
  22 C22            6.1062     3.8590     4.8997 C.ar    
  23 C23            5.7250     4.7725     3.9335 C.ar    
  24 C24            6.3746     4.8049     2.7162 C.ar    
  25 Cl25           7.1937     3.9201    -2.7428 Cl      
  26 C26           -1.1772    -0.8733     0.0093 C.3     
  27 C27           -1.6020    -1.1687    -1.4305 C.3     
  28 C28           -2.8335    -2.0765    -1.4229 C.3     
  29 C29           -3.2583    -2.3719    -2.8627 C.3     
  30 H30            1.6083    -1.0525     0.8747 H       
  31 H31            1.5913    -1.0429    -0.9124 H       
  32 H32            4.2820     0.1666    -0.0380 H       
  33 H33            3.6115     4.3922    -0.0088 H       
  34 H34            1.1852     4.0164     0.0131 H       
  35 H35            5.4926     4.3866    -0.9185 H       
  36 H36            5.5101     4.3774     0.8614 H       
  37 H37           10.0942     3.9816     1.9804 H       
  38 H38           11.1875     4.0224    -0.2224 H       
  39 H39            8.5901     2.2923     3.2392 H       
  40 H40            7.4285     2.2576     5.4075 H       
  41 H41            5.5983     3.8404     5.8526 H       
  42 H42            4.9205     5.4647     4.1337 H       
  43 H43            6.0797     5.5220     1.9644 H       
  44 H44           -0.9365    -1.8079     0.5161 H       
  45 H45           -1.9925    -0.3751     0.5338 H       
  46 H46           -1.8426    -0.2342    -1.9373 H       
  47 H47           -0.7866    -1.6669    -1.9550 H       
  48 H48           -2.5929    -3.0110    -0.9161 H       
  49 H49           -3.6489    -1.5783    -0.8984 H       
  50 H50           -3.4990    -1.4373    -3.3695 H       
  51 H51           -2.4430    -2.8701    -3.3872 H       
  52 H52           -4.1357    -3.0186    -2.8573 H       
@<TRIPOS>BOND
   1    1    2 am
   2    1    9 1
   3    1   10 2
   4    2    3 1
   5    2   26 1
   6    3    4 1
   7    3   30 1
   8    3   31 1
   9    4    5 ar
  10    4    9 ar
  11    5    6 ar
  12    5   32 1
  13    6    7 ar
  14    6   11 1
  15    7    8 ar
  16    7   33 1
  17    8    9 ar
  18    8   34 1
  19   11   12 1
  20   12   14 1
  21   12   35 1
  22   12   36 1
  23   13   14 ar
  24   13   18 ar
  25   13   25 1
  26   14   15 ar
  27   15   16 ar
  28   15   19 1
  29   16   17 ar
  30   16   37 1
  31   17   18 ar
  32   17   38 1
  33   19   20 ar
  34   19   24 ar
  35   20   21 ar
  36   20   39 1
  37   21   22 ar
  38   21   40 1
  39   22   23 ar
  40   22   41 1
  41   23   24 ar
  42   23   42 1
  43   24   43 1
  44   26   27 1
  45   26   44 1
  46   26   45 1
  47   27   28 1
  48   27   46 1
  49   27   47 1
  50   28   29 1
  51   28   48 1
  52   28   49 1
  53   29   50 1
  54   29   51 1
  55   29   52 1

#	End of record

