#	Name: ASD03930082
#	Creating user name:	WinNT
#	Creation time:	15. 06. 2019 20:47

#	Modifying user name:	WinNT
#	Modification time:	15. 06. 2019 20:47

#	Program:	/corina/corina34_cracker 3.40 0067  02.08.2006

@<TRIPOS>MOLECULE
ASD03930082
  29   32    0    0    0
SMALL
NO_CHARGES


@<TRIPOS>ATOM
   1 C1            -0.0163     1.3534     0.0095 C.ar    
   2 C2             0.0021    -0.0041     0.0020 C.ar    
   3 C3             1.2279    -0.6975    -0.0125 C.ar    
   4 C4             2.4470     0.0248    -0.0186 C.ar    
   5 C5             2.4142     1.4353    -0.0125 C.ar    
   6 C6             1.1809     2.0846     0.0020 C.ar    
   7 C7             1.1660     3.5672     0.0088 C.2     
   8 O8             0.1617     4.2058     0.2588 O.2     
   9 N9             2.3470     4.1610    -0.2818 N.am    
  10 C10            3.5429     3.4057    -0.7098 C.3     
  11 C11            4.7317     4.2807    -0.2470 C.3     
  12 C12            4.1905     5.7098    -0.5241 C.3     
  13 C13            2.6847     5.5816    -0.2003 C.3     
  14 N14            1.2558    -2.0352    -0.0211 N.ar    
  15 C15            2.4091    -2.6640    -0.0329 C.ar    
  16 C16            3.6095    -1.9506    -0.0369 C.ar    
  17 N17            3.6075    -0.6371    -0.0305 N.ar    
  18 O18            3.5631     2.1538    -0.0220 O.3     
  19 H19           -0.9618     1.8754     0.0168 H       
  20 H20           -0.9271    -0.5545     0.0076 H       
  21 H21            3.5544     3.2689    -1.7911 H       
  22 H22            4.9325     4.1377     0.8148 H       
  23 H23            5.6218     4.0775    -0.8424 H       
  24 H24            4.6658     6.4363     0.1349 H       
  25 H25            4.3379     5.9818    -1.5692 H       
  26 H26            2.0995     6.1447    -0.9273 H       
  27 H27            2.4884     5.9526     0.8056 H       
  28 H28            2.4291    -3.7438    -0.0393 H       
  29 H29            4.5485    -2.4839    -0.0457 H       
@<TRIPOS>BOND
   1    1    2 ar
   2    1    6 ar
   3    1   19 1
   4    2    3 ar
   5    2   20 1
   6    3    4 ar
   7    3   14 ar
   8    4    5 ar
   9    4   17 ar
  10    5    6 ar
  11    5   18 1
  12    6    7 1
  13    7    8 2
  14    7    9 am
  15    9   10 1
  16    9   13 1
  17   10   11 1
  18   10   18 1
  19   10   21 1
  20   11   12 1
  21   11   22 1
  22   11   23 1
  23   12   13 1
  24   12   24 1
  25   12   25 1
  26   13   26 1
  27   13   27 1
  28   14   15 ar
  29   15   16 ar
  30   15   28 1
  31   16   17 ar
  32   16   29 1

#	End of record

