#	Name: ASD09720032
#	Creating user name:	WinNT
#	Creation time:	15. 06. 2019 21:22

#	Modifying user name:	WinNT
#	Modification time:	15. 06. 2019 21:22

#	Program:	/corina/corina34_cracker 3.40 0067  02.08.2006

@<TRIPOS>MOLECULE
ASD09720032
  33   34    0    0    0
SMALL
NO_CHARGES


@<TRIPOS>ATOM
   1 C1            -0.2511     0.3312     0.8694 C.2     
   2 S2             0.1834     1.1168    -0.6387 S.3     
   3 C3            -1.4300     1.5667    -0.9541 C.2     
   4 C4            -2.2543     1.1398     0.0386 C.2     
   5 C5            -1.5601     0.4231     1.0830 C.2     
   6 Cl6            0.8709    -0.4619     1.9305 Cl      
   7 Cl7           -1.9502     2.4514    -2.3542 Cl      
   8 C8            -3.7074     1.3798     0.0464 C.2     
   9 N9            -4.5290     0.3828    -0.0486 N.2     
  10 C10           -4.2383     2.7851     0.1650 C.3     
  11 O11           -4.0331    -0.9244    -0.2734 O.3     
  12 S12           -6.0519     2.7500     0.1455 S.3     
  13 C13           -6.4829     4.4522     0.2911 C.ar    
  14 C14           -5.4875     5.4171     0.3849 C.ar    
  15 C15           -5.8291     6.7504     0.4989 C.ar    
  16 C16           -7.1598     7.1255     0.5198 C.ar    
  17 C17           -8.1535     6.1677     0.4271 C.ar    
  18 C18           -7.8195     4.8335     0.3066 C.ar    
  19 C19           -8.9027     3.7908     0.2057 C.3     
  20 C20           -7.5285     8.5814     0.6444 C.3     
  21 H21           -2.0525     0.0106     1.9512 H       
  22 H22           -3.8936     3.2260     1.1003 H       
  23 H23           -3.8774     3.3818    -0.6727 H       
  24 H24           -4.7210    -1.6017    -0.3297 H       
  25 H25           -4.4479     5.1248     0.3690 H       
  26 H26           -5.0559     7.5009     0.5722 H       
  27 H27           -9.1918     6.4643     0.4445 H       
  28 H28           -9.1587     3.6330    -0.8420 H       
  29 H29           -8.5478     2.8551     0.6378 H       
  30 H30           -9.7852     4.1299     0.7483 H       
  31 H31           -7.6081     9.0224    -0.3492 H       
  32 H32           -8.4849     8.6713     1.1595 H       
  33 H33           -6.7591     9.1037     1.2131 H       
@<TRIPOS>BOND
   1    1    2 1
   2    1    6 1
   3    1    5 2
   4    2    3 1
   5    3    4 2
   6    3    7 1
   7    4    5 1
   8    4    8 1
   9    5   21 1
  10    8    9 2
  11    8   10 1
  12    9   11 1
  13   10   12 1
  14   10   22 1
  15   10   23 1
  16   11   24 1
  17   12   13 1
  18   13   14 ar
  19   13   18 ar
  20   14   15 ar
  21   14   25 1
  22   15   16 ar
  23   15   26 1
  24   16   17 ar
  25   16   20 1
  26   17   18 ar
  27   17   27 1
  28   18   19 1
  29   19   28 1
  30   19   29 1
  31   19   30 1
  32   20   31 1
  33   20   32 1
  34   20   33 1

#	End of record

