#	Name: ASD00431076
#	Creating user name:	WinNT
#	Creation time:	15. 06. 2019 18:35

#	Modifying user name:	WinNT
#	Modification time:	15. 06. 2019 18:35

#	Program:	/corina/corina34_cracker 3.40 0067  02.08.2006

@<TRIPOS>MOLECULE
ASD00431076
  52   54    0    0    0
SMALL
NO_CHARGES


@<TRIPOS>ATOM
   1 C1             0.0878     1.5677    -0.2470 C.2     
   2 N2             0.0831     0.2200    -0.2337 N.am    
   3 O3             1.1422     2.1716    -0.2499 O.2     
   4 O4            -1.0759     2.2447    -0.2629 O.3     
   5 C5             1.3493    -0.5168    -0.2226 C.3     
   6 C6             1.8491    -0.6504     1.2174 C.3     
   7 C7            -0.0097    -2.6043    -0.5182 C.ar    
   8 C8             1.1376    -1.8883    -0.8101 C.ar    
   9 C9             2.0883    -2.4444    -1.6473 C.ar    
  10 C10            1.8475    -3.7210    -2.1694 C.ar    
  11 C11            0.6646    -4.3774    -1.8262 C.ar    
  12 N12           -0.2104    -3.8054    -1.0250 N.ar    
  13 S13            4.3609    -3.6691    -3.5951 S.3     
  14 C14            4.6936    -5.0719    -4.5135 C.2     
  15 N15            3.7254    -5.9266    -4.3968 N.2     
  16 C16            2.7106    -5.5821    -3.6324 C.2     
  17 C17            2.8290    -4.3624    -3.0693 C.2     
  18 O18            5.8096    -5.2635    -5.2571 O.3     
  19 C19            5.9805    -6.4744    -5.8515 C.ar    
  20 C20            5.1113    -6.8850    -6.8517 C.ar    
  21 C21            5.2850    -8.1151    -7.4554 C.ar    
  22 C22            6.3285    -8.9398    -7.0615 C.ar    
  23 C23            7.1976    -8.5293    -6.0615 C.ar    
  24 C24            7.0275    -7.2968    -5.4616 C.ar    
  25 O25            6.4991   -10.1510    -7.6556 O.3     
  26 C26            5.4911   -10.5687    -8.5783 C.3     
  27 C27            5.9012   -10.1689    -9.9971 C.3     
  28 C28            5.3292   -12.0883    -8.5033 C.3     
  29 C29           -0.9949     3.6944    -0.2766 C.3     
  30 H30           -0.7586    -0.2621    -0.2314 H       
  31 H31            2.0886     0.0222    -0.8152 H       
  32 H32            2.0022     0.3416     1.6423 H       
  33 H33            1.1099    -1.1893     1.8100 H       
  34 H34            2.7911    -1.1986     1.2256 H       
  35 H35           -0.7513    -2.1743     0.1387 H       
  36 H36            2.9929    -1.9075    -1.8921 H       
  37 H37            0.4650    -5.3625    -2.2211 H       
  38 H38            1.8556    -6.2218    -3.4702 H       
  39 H39            4.2987    -6.2430    -7.1581 H       
  40 H40            4.6082    -8.4349    -8.2338 H       
  41 H41            8.0097    -9.1717    -5.7546 H       
  42 H42            7.7068    -6.9753    -4.6861 H       
  43 H43            4.5454   -10.0896    -8.3249 H       
  44 H44            6.0165    -9.0864   -10.0505 H       
  45 H45            6.8469   -10.6480   -10.2506 H       
  46 H46            5.1323   -10.4876   -10.7010 H       
  47 H47            5.0371   -12.3731    -7.4926 H       
  48 H48            4.5604   -12.4069    -9.2072 H       
  49 H49            6.2749   -12.5674    -8.7568 H       
  50 H50           -0.4686     4.0374     0.6141 H       
  51 H51           -0.4547     4.0197    -1.1657 H       
  52 H52           -2.0007     4.1144    -0.2887 H       
@<TRIPOS>BOND
   1    1    2 am
   2    1    3 2
   3    1    4 1
   4    2    5 1
   5    2   30 1
   6    4   29 1
   7    5    6 1
   8    5    8 1
   9    5   31 1
  10    6   32 1
  11    6   33 1
  12    6   34 1
  13    7    8 ar
  14    7   12 ar
  15    7   35 1
  16    8    9 ar
  17    9   10 ar
  18    9   36 1
  19   10   11 ar
  20   10   17 1
  21   11   12 ar
  22   11   37 1
  23   13   14 1
  24   13   17 1
  25   14   15 2
  26   14   18 1
  27   15   16 1
  28   16   17 2
  29   16   38 1
  30   18   19 1
  31   19   20 ar
  32   19   24 ar
  33   20   21 ar
  34   20   39 1
  35   21   22 ar
  36   21   40 1
  37   22   23 ar
  38   22   25 1
  39   23   24 ar
  40   23   41 1
  41   24   42 1
  42   25   26 1
  43   26   27 1
  44   26   28 1
  45   26   43 1
  46   27   44 1
  47   27   45 1
  48   27   46 1
  49   28   47 1
  50   28   48 1
  51   28   49 1
  52   29   50 1
  53   29   51 1
  54   29   52 1

#	End of record

