#	Name: ASD08070326
#	Creating user name:	WinNT
#	Creation time:	15. 06. 2019 21:14

#	Modifying user name:	WinNT
#	Modification time:	15. 06. 2019 21:14

#	Program:	/corina/corina34_cracker 3.40 0067  02.08.2006

@<TRIPOS>MOLECULE
ASD08070326
  45   45    0    0    0
SMALL
NO_CHARGES


@<TRIPOS>ATOM
   1 C1            -0.0184     1.5028     0.0103 C.2     
   2 C2             0.0021    -0.0041     0.0020 C.3     
   3 C3            -0.7241    -0.5171    -1.2431 C.3     
   4 C4            -0.8126    -2.0436    -1.1892 C.3     
   5 C5            -1.5388    -2.5567    -2.4343 C.3     
   6 C6            -1.6273    -4.0831    -2.3804 C.3     
   7 O7             1.0197     2.1211     0.0037 O.2     
   8 O8            -1.1898     2.1580     0.0194 O.3     
   9 C9             2.0717    -0.5994     1.1419 C.2     
  10 C10            3.4571    -1.0681     1.1261 C.2     
  11 C11            4.1401    -1.1941     2.2835 C.2     
  12 O12            1.5347    -0.3230     2.1987 O.2     
  13 N13            1.3897    -0.4735    -0.0138 N.am    
  14 C14            5.5325    -1.6652     2.2677 C.ar    
  15 C15            6.2430    -1.7968     3.4665 C.ar    
  16 C16            7.5466    -2.2388     3.4462 C.ar    
  17 C17            8.1574    -2.5543     2.2379 C.ar    
  18 C18            7.4561    -2.4254     1.0445 C.ar    
  19 C19            6.1505    -1.9892     1.0543 C.ar    
  20 O20            9.4431    -2.9893     2.2233 O.3     
  21 C21           10.0098    -3.2960     0.9478 C.3     
  22 C22           -1.1335     3.6089     0.0270 C.3     
  23 H23           -0.4983    -0.3791     0.8948 H       
  24 H24           -1.7288    -0.0959    -1.2772 H       
  25 H25           -0.1736    -0.2164    -2.1345 H       
  26 H26            0.1921    -2.4648    -1.1551 H       
  27 H27           -1.3631    -2.3444    -0.2978 H       
  28 H28           -2.5435    -2.1354    -2.4684 H       
  29 H29           -0.9883    -2.2559    -3.3257 H       
  30 H30           -0.6225    -4.5044    -2.3463 H       
  31 H31           -2.1777    -4.3839    -1.4890 H       
  32 H32           -2.1446    -4.4487    -3.2675 H       
  33 H33            3.9336    -1.3134     0.1885 H       
  34 H34            3.6636    -0.9488     3.2212 H       
  35 H35            1.8177    -0.6938    -0.8559 H       
  36 H36            5.7695    -1.5516     4.4056 H       
  37 H37            8.0958    -2.3403     4.3706 H       
  38 H38            7.9352    -2.6718     0.1084 H       
  39 H39            5.6052    -1.8934     0.1270 H       
  40 H40            9.4280    -4.0855     0.4721 H       
  41 H41            9.9949    -2.4051     0.3199 H       
  42 H42           11.0387    -3.6312     1.0785 H       
  43 H43           -2.1463     4.0118     0.0340 H       
  44 H44           -0.6017     3.9472     0.9164 H       
  45 H45           -0.6102     3.9569    -0.8636 H       
@<TRIPOS>BOND
   1    1    2 1
   2    1    7 2
   3    1    8 1
   4    2    3 1
   5    2   13 1
   6    2   23 1
   7    3    4 1
   8    3   24 1
   9    3   25 1
  10    4    5 1
  11    4   26 1
  12    4   27 1
  13    5    6 1
  14    5   28 1
  15    5   29 1
  16    6   30 1
  17    6   31 1
  18    6   32 1
  19    8   22 1
  20    9   10 1
  21    9   12 2
  22    9   13 am
  23   10   11 2
  24   10   33 1
  25   11   14 1
  26   11   34 1
  27   13   35 1
  28   14   15 ar
  29   14   19 ar
  30   15   16 ar
  31   15   36 1
  32   16   17 ar
  33   16   37 1
  34   17   18 ar
  35   17   20 1
  36   18   19 ar
  37   18   38 1
  38   19   39 1
  39   20   21 1
  40   21   40 1
  41   21   41 1
  42   21   42 1
  43   22   43 1
  44   22   44 1
  45   22   45 1

#	End of record

