#	Name: ASD01880506
#	Creating user name:	WinNT
#	Creation time:	15. 06. 2019 19:40

#	Modifying user name:	WinNT
#	Modification time:	15. 06. 2019 19:40

#	Program:	/corina/corina34_cracker 3.40 0067  02.08.2006

@<TRIPOS>MOLECULE
ASD01880506
  51   53    0    0    0
SMALL
NO_CHARGES


@<TRIPOS>ATOM
   1 N1            -0.0158     1.3147     0.0093 N.ar    
   2 C2             0.0021    -0.0041     0.0020 C.ar    
   3 N3             1.1328    -0.6834    -0.0124 N.ar    
   4 C4             2.3019    -0.0604    -0.0202 C.ar    
   5 C5             2.3295     1.3216    -0.0131 C.ar    
   6 C6             1.1168     2.0083     0.0022 C.ar    
   7 C7             3.6389     2.0675    -0.0211 C.3     
   8 O8             4.7196     1.1327    -0.0360 O.3     
   9 C9             5.9766     1.6442    -0.0448 C.ar    
  10 C10            7.0747     0.7896    -0.0594 C.ar    
  11 C11            8.3457     1.3082    -0.0688 C.ar    
  12 C12            8.5452     2.6928    -0.0636 C.ar    
  13 C13            7.4388     3.5466    -0.0493 C.ar    
  14 C14            6.1659     3.0210    -0.0449 C.ar    
  15 C15            9.7172     0.6805    -0.0848 C.3     
  16 N16           10.6760     1.7912    -0.0882 N.am    
  17 C17            9.9956     2.9502    -0.0760 C.2     
  18 O18           10.5048     4.0543    -0.0755 O.2     
  19 Cl19          -1.5030    -0.8692     0.0123 Cl      
  20 C20           -0.0160     5.5101     0.0309 C.3     
  21 C21           -1.3908     6.1813     0.0476 C.3     
  22 C22           -1.2163     7.7013     0.0536 C.3     
  23 O23            1.0936     3.3633     0.0092 O.3     
  24 C24           -0.1905     3.9901     0.0249 C.3     
  25 C25           14.1533     1.4809    -1.5640 C.3     
  26 C26           12.6297     1.6194    -1.5495 C.3     
  27 C27           12.1350     1.6586    -0.1022 C.3     
  28 H28            3.2223    -0.6254    -0.0317 H       
  29 H29            3.6921     2.6986    -0.9082 H       
  30 H30            3.7085     2.6891     0.8716 H       
  31 H31            6.9272    -0.2803    -0.0631 H       
  32 H32            7.5819     4.6171    -0.0448 H       
  33 H33            5.3114     3.6814    -0.0342 H       
  34 H34            9.8585     0.0662     0.8044 H       
  35 H35            9.8417     0.0753    -0.9827 H       
  36 H36            0.5272     5.8170    -0.8629 H       
  37 H37            0.5446     5.8080     0.9169 H       
  38 H38           -1.9514     5.8834    -0.8385 H       
  39 H39           -1.9341     5.8744     0.9414 H       
  40 H40           -2.1958     8.1794     0.0655 H       
  41 H41           -0.6558     7.9992     0.9397 H       
  42 H42           -0.6731     8.0081    -0.8402 H       
  43 H43           -0.7337     3.6833     0.9187 H       
  44 H44           -0.7510     3.6922    -0.8612 H       
  45 H45           14.4393     0.5593    -1.0572 H       
  46 H46           14.5058     1.4530    -2.5951 H       
  47 H47           14.6004     2.3319    -1.0502 H       
  48 H48           12.3438     2.5411    -2.0563 H       
  49 H49           12.1826     0.7685    -2.0634 H       
  50 H50           12.5821     2.5096     0.4117 H       
  51 H51           12.4209     0.7369     0.4046 H       
@<TRIPOS>BOND
   1    1    2 ar
   2    1    6 ar
   3    2    3 ar
   4    2   19 1
   5    3    4 ar
   6    4    5 ar
   7    4   28 1
   8    5    6 ar
   9    5    7 1
  10    6   23 1
  11    7    8 1
  12    7   29 1
  13    7   30 1
  14    8    9 1
  15    9   10 ar
  16    9   14 ar
  17   10   11 ar
  18   10   31 1
  19   11   12 ar
  20   11   15 1
  21   12   13 ar
  22   12   17 1
  23   13   14 ar
  24   13   32 1
  25   14   33 1
  26   15   16 1
  27   15   34 1
  28   15   35 1
  29   16   17 am
  30   16   27 1
  31   17   18 2
  32   20   21 1
  33   20   24 1
  34   20   36 1
  35   20   37 1
  36   21   22 1
  37   21   38 1
  38   21   39 1
  39   22   40 1
  40   22   41 1
  41   22   42 1
  42   23   24 1
  43   24   43 1
  44   24   44 1
  45   25   26 1
  46   25   45 1
  47   25   46 1
  48   25   47 1
  49   26   27 1
  50   26   48 1
  51   26   49 1
  52   27   50 1
  53   27   51 1

#	End of record

