#	Name: ASD01817056
#	Creating user name:	WinNT
#	Creation time:	15. 06. 2019 19:36

#	Modifying user name:	WinNT
#	Modification time:	15. 06. 2019 19:36

#	Program:	/corina/corina34_cracker 3.40 0067  02.08.2006

@<TRIPOS>MOLECULE
ASD01817056
  58   63    0    0    0
SMALL
NO_CHARGES


@<TRIPOS>ATOM
   1 C1            -0.0167     1.3812     0.0096 C.ar    
   2 C2             0.0021    -0.0041     0.0020 C.ar    
   3 C3             1.1984    -0.6908    -0.0131 C.ar    
   4 C4             2.4015     0.0061    -0.0204 C.ar    
   5 C5             2.3789     1.4106    -0.0127 C.ar    
   6 C6             1.1664     2.0916     0.0022 C.ar    
   7 N7             3.6054    -0.6770    -0.0347 N.pl3   
   8 C8             4.7971    -0.0584    -0.0423 C.2     
   9 C9             4.9001     1.3105    -0.0364 C.2     
  10 C10            3.6673     2.1304    -0.0207 C.2     
  11 C11            5.9972     2.2731    -0.0422 C.2     
  12 N12            5.4244     3.4961    -0.0313 N.am    
  13 N13            4.0322     3.3795    -0.0185 N.2     
  14 O14            7.1917     2.0232    -0.0541 O.2     
  15 C15            6.1581     4.7641    -0.0316 C.3     
  16 C16            5.8003     5.5608     1.2246 C.3     
  17 C17            6.5666     6.8850     1.2243 C.3     
  18 C18            6.1869     7.6937    -0.0178 C.3     
  19 C19            6.5448     6.8970    -1.2741 C.3     
  20 C20            5.7784     5.5728    -1.2737 C.3     
  21 C21            3.5781    -2.1418    -0.0413 C.3     
  22 C22            3.5556    -2.6374    -1.4643 C.ar    
  23 C23            4.7435    -2.8866    -2.1269 C.ar    
  24 C24            4.7261    -3.3413    -3.4310 C.ar    
  25 C25            3.5144    -3.5481    -4.0765 C.ar    
  26 C26            2.3235    -3.2970    -3.4086 C.ar    
  27 C27            2.3472    -2.8474    -2.1028 C.ar    
  28 N28            3.4936    -4.0091    -5.4002 N.pl3   
  29 N29            4.6136    -4.3014    -6.1892 N.2     
  30 C30            4.1943    -4.7044    -7.3616 C.2     
  31 C31            2.7953    -4.6820    -7.3579 C.2     
  32 C32            2.3886    -4.2560    -6.1396 C.2     
  33 O33            6.1549     4.8055     2.3847 O.3     
  34 H34           -0.9602     1.9068     0.0170 H       
  35 H35           -0.9288    -0.5516     0.0083 H       
  36 H36            1.2005    -1.7708    -0.0189 H       
  37 H37            1.1508     3.1714     0.0084 H       
  38 H38            5.6984    -0.6535    -0.0530 H       
  39 H39            7.2295     4.5639    -0.0420 H       
  40 H40            4.7289     5.7610     1.2350 H       
  41 H41            6.3116     7.4526     2.1193 H       
  42 H42            7.6380     6.6848     1.2140 H       
  43 H43            5.1155     7.8939    -0.0075 H       
  44 H44            6.7328     8.6371    -0.0180 H       
  45 H45            6.2742     7.4731    -2.1589 H       
  46 H46            7.6162     6.6968    -1.2844 H       
  47 H47            6.0334     5.0052    -2.1687 H       
  48 H48            4.7070     5.7730    -1.2634 H       
  49 H49            4.4658    -2.5240     0.4626 H       
  50 H50            2.6862    -2.4908     0.4791 H       
  51 H51            5.6857    -2.7252    -1.6244 H       
  52 H52            5.6541    -3.5355    -3.9482 H       
  53 H53            1.3794    -3.4566    -3.9082 H       
  54 H54            1.4211    -2.6518    -1.5827 H       
  55 H55            4.8204    -5.0025    -8.1896 H       
  56 H56            2.1533    -4.9597    -8.1808 H       
  57 H57            1.3654    -4.1302    -5.8176 H       
  58 H58            5.9558     5.2506     3.2198 H       
@<TRIPOS>BOND
   1    1    2 ar
   2    1    6 ar
   3    1   34 1
   4    2    3 ar
   5    2   35 1
   6    3    4 ar
   7    3   36 1
   8    4    5 ar
   9    4    7 1
  10    5    6 ar
  11    5   10 1
  12    6   37 1
  13    7    8 1
  14    7   21 1
  15    8    9 2
  16    8   38 1
  17    9   10 1
  18    9   11 1
  19   10   13 2
  20   11   12 am
  21   11   14 2
  22   12   13 1
  23   12   15 1
  24   15   16 1
  25   15   20 1
  26   15   39 1
  27   16   17 1
  28   16   33 1
  29   16   40 1
  30   17   18 1
  31   17   41 1
  32   17   42 1
  33   18   19 1
  34   18   43 1
  35   18   44 1
  36   19   20 1
  37   19   45 1
  38   19   46 1
  39   20   47 1
  40   20   48 1
  41   21   22 1
  42   21   49 1
  43   21   50 1
  44   22   23 ar
  45   22   27 ar
  46   23   24 ar
  47   23   51 1
  48   24   25 ar
  49   24   52 1
  50   25   26 ar
  51   25   28 1
  52   26   27 ar
  53   26   53 1
  54   27   54 1
  55   28   29 1
  56   28   32 1
  57   29   30 2
  58   30   31 1
  59   30   55 1
  60   31   32 2
  61   31   56 1
  62   32   57 1
  63   33   58 1

#	End of record

