#	Name: ASD01230451
#	Creating user name:	WinNT
#	Creation time:	15. 06. 2019 19:14

#	Modifying user name:	WinNT
#	Modification time:	15. 06. 2019 19:14

#	Program:	/corina/corina34_cracker 3.40 0067  02.08.2006

@<TRIPOS>MOLECULE
ASD01230451
  34   35    0    0    0
SMALL
NO_CHARGES


@<TRIPOS>ATOM
   1 C1            -0.0170     1.4020     0.0098 C.ar    
   2 C2             0.0021    -0.0041     0.0020 C.ar    
   3 C3             1.2372    -0.6607    -0.0134 C.ar    
   4 C4             2.3903     0.1067    -0.0203 C.ar    
   5 C5             2.2903     1.4851    -0.0119 C.ar    
   6 N6             1.1150     2.0859     0.0026 N.ar    
   7 N7            -1.2294     2.0752     0.0191 N.pl3   
   8 C8            -1.2203    -0.7500     0.0102 C.1     
   9 C9            -2.2224    -1.3615     0.0169 C.1     
  10 C10           -3.4448    -2.1074     0.0251 C.ar    
  11 C11           -3.4149    -3.5046     0.0173 C.ar    
  12 C12           -4.5962    -4.2162     0.0257 C.ar    
  13 C13           -5.8091    -3.5501     0.0419 C.ar    
  14 C14           -5.8466    -2.1668     0.0492 C.ar    
  15 C15           -4.6734    -1.4417     0.0468 C.ar    
  16 C16           -7.0955    -4.3351     0.0510 C.3     
  17 C17           -7.8935    -3.9918     1.3105 C.3     
  18 C18           -7.9194    -3.9784    -1.1879 C.3     
  19 H19            1.2904    -1.7394    -0.0193 H       
  20 H20            3.3601    -0.3684    -0.0318 H       
  21 H21            3.1905     2.0818    -0.0173 H       
  22 H22           -2.0612     1.5762     0.0204 H       
  23 H23           -1.2456     3.0451     0.0245 H       
  24 H24           -2.4690    -4.0257     0.0043 H       
  25 H25           -4.5747    -5.2960     0.0194 H       
  26 H26           -6.7969    -1.6538     0.0615 H       
  27 H27           -4.7042    -0.3622     0.0570 H       
  28 H28           -6.8704    -5.4016     0.0430 H       
  29 H29           -8.1186    -2.9253     1.3185 H       
  30 H30           -8.8239    -4.5595     1.3171 H       
  31 H31           -7.3065    -4.2459     2.1930 H       
  32 H32           -7.3509    -4.2230    -2.0851 H       
  33 H33           -8.8498    -4.5462    -1.1813 H       
  34 H34           -8.1445    -2.9119    -1.1798 H       
@<TRIPOS>BOND
   1    1    2 ar
   2    1    6 ar
   3    1    7 1
   4    2    3 ar
   5    2    8 1
   6    3    4 ar
   7    3   19 1
   8    4    5 ar
   9    4   20 1
  10    5    6 ar
  11    5   21 1
  12    7   22 1
  13    7   23 1
  14    8    9 3
  15    9   10 1
  16   10   11 ar
  17   10   15 ar
  18   11   12 ar
  19   11   24 1
  20   12   13 ar
  21   12   25 1
  22   13   14 ar
  23   13   16 1
  24   14   15 ar
  25   14   26 1
  26   15   27 1
  27   16   17 1
  28   16   18 1
  29   16   28 1
  30   17   29 1
  31   17   30 1
  32   17   31 1
  33   18   32 1
  34   18   33 1
  35   18   34 1

#	End of record

