#	Name: ASD04590737
#	Creating user name:	WinNT
#	Creation time:	15. 06. 2019 20:51

#	Modifying user name:	WinNT
#	Modification time:	15. 06. 2019 20:51

#	Program:	/corina/corina34_cracker 3.40 0067  02.08.2006

@<TRIPOS>MOLECULE
ASD04590737
  68   73    0    0    0
SMALL
NO_CHARGES


@<TRIPOS>ATOM
   1 N1            -2.3782    -2.7058     0.0195 N.ar    
   2 C2            -1.2116    -2.0737     0.0036 C.ar    
   3 N3            -0.0572    -2.7201    -0.0183 N.ar    
   4 C4            -0.0258    -4.0494    -0.0249 C.ar    
   5 C5            -1.2485    -4.7504    -0.0081 C.ar    
   6 C6            -2.4369    -4.0273     0.0144 C.ar    
   7 N7             0.9981    -4.9637    -0.0460 N.pl3   
   8 C8             0.4951    -6.2533    -0.0436 C.ar    
   9 C9            -0.9091    -6.1790    -0.0202 C.ar    
  10 C10            1.0916    -7.5074    -0.0596 C.ar    
  11 N11            0.3554    -8.5999    -0.0533 N.ar    
  12 C12           -0.9653    -8.5647    -0.0314 C.ar    
  13 C13           -1.6434    -7.3643    -0.0131 C.ar    
  14 C14            2.4227    -4.6225    -0.0683 C.3     
  15 N15           -1.2019    -0.6887     0.0098 N.pl3   
  16 C16           -2.4016     0.0177    -0.0802 C.ar    
  17 N17           -3.5391    -0.6295    -0.2720 N.ar    
  18 N18           -4.6655    -0.0208    -0.3610 N.ar    
  19 C19           -4.7646     1.2952    -0.2669 C.ar    
  20 C20           -3.6184     2.0654    -0.0641 C.ar    
  21 C21           -2.4049     1.4084     0.0375 C.ar    
  22 N22           -6.0101     1.9108    -0.3704 N.3     
  23 C23           -7.3702     3.6234    -1.4706 C.3     
  24 C24           -6.0131     2.9165    -1.4419 C.3     
  25 C25            2.7460    -3.7909    -1.3219 C.3     
  26 C26            3.2825    -2.4331    -0.8238 C.3     
  27 C27            3.8152    -2.7341     0.5992 C.3     
  28 C28            2.7741    -3.7410     1.1480 C.3     
  29 C29           -7.0726     0.9176    -0.5813 C.3     
  30 C30           -8.4297     1.6245    -0.6100 C.3     
  31 N31           -8.4327     2.6303    -1.6815 N.3     
  32 C32           -9.7460     3.2793    -1.7906 C.3     
  33 C33           -9.7896     4.1175    -3.0423 C.2     
  34 O34           -8.8256     4.1688    -3.7689 O.2     
  35 O35          -10.8994     4.8069    -3.3500 O.3     
  36 C36          -12.2132     6.3025    -4.7526 C.3     
  37 C37          -10.8701     5.5927    -4.5707 C.3     
  38 H38           -3.3897    -4.5355     0.0273 H       
  39 H39            2.1685    -7.5878    -0.0777 H       
  40 H40           -1.5221    -9.4901    -0.0272 H       
  41 H41           -2.7231    -7.3426     0.0047 H       
  42 H42            3.0242    -5.5315    -0.0578 H       
  43 H43           -0.3610    -0.2099     0.0768 H       
  44 H44           -3.6773     3.1409     0.0151 H       
  45 H45           -1.4872     1.9557     0.1945 H       
  46 H46           -7.5338     4.1351    -0.5222 H       
  47 H47           -7.3848     4.3497    -2.2832 H       
  48 H48           -5.2261     3.6475    -1.2567 H       
  49 H49           -5.8375     2.4275    -2.4001 H       
  50 H50            3.5050    -4.2958    -1.9194 H       
  51 H51            1.8429    -3.6412    -1.9137 H       
  52 H52            4.0896    -2.0826    -1.4670 H       
  53 H53            2.4793    -1.6974    -0.7827 H       
  54 H54            4.8049    -3.1884     0.5530 H       
  55 H55            3.8327    -1.8280     1.2048 H       
  56 H56            1.8888    -3.2165     1.5075 H       
  57 H57            3.2102    -4.3451     1.9436 H       
  58 H58           -6.9089     0.4059    -1.5297 H       
  59 H59           -7.0580     0.1913     0.2314 H       
  60 H60           -9.2167     0.8935    -0.7952 H       
  61 H61           -8.6053     2.1135     0.3482 H       
  62 H62          -10.5248     2.5181    -1.8357 H       
  63 H63           -9.9100     3.9159    -0.9212 H       
  64 H64          -12.3952     6.9593    -3.9020 H       
  65 H65          -12.1912     6.8924    -5.6690 H       
  66 H66          -13.0101     5.5615    -4.8165 H       
  67 H67          -10.0733     6.3337    -4.5068 H       
  68 H68          -10.6881     4.9359    -5.4213 H       
@<TRIPOS>BOND
   1    1    2 ar
   2    1    6 ar
   3    2    3 ar
   4    2   15 1
   5    3    4 ar
   6    4    5 ar
   7    4    7 1
   8    5    6 ar
   9    5    9 1
  10    6   38 1
  11    7    8 1
  12    7   14 1
  13    8    9 ar
  14    8   10 ar
  15    9   13 ar
  16   10   11 ar
  17   10   39 1
  18   11   12 ar
  19   12   13 ar
  20   12   40 1
  21   13   41 1
  22   14   25 1
  23   14   28 1
  24   14   42 1
  25   15   16 1
  26   15   43 1
  27   16   17 ar
  28   16   21 ar
  29   17   18 ar
  30   18   19 ar
  31   19   20 ar
  32   19   22 1
  33   20   21 ar
  34   20   44 1
  35   21   45 1
  36   22   29 1
  37   22   24 1
  38   23   24 1
  39   23   31 1
  40   23   46 1
  41   23   47 1
  42   24   48 1
  43   24   49 1
  44   25   26 1
  45   25   50 1
  46   25   51 1
  47   26   27 1
  48   26   52 1
  49   26   53 1
  50   27   28 1
  51   27   54 1
  52   27   55 1
  53   28   56 1
  54   28   57 1
  55   29   30 1
  56   29   58 1
  57   29   59 1
  58   30   31 1
  59   30   60 1
  60   30   61 1
  61   31   32 1
  62   32   33 1
  63   32   62 1
  64   32   63 1
  65   33   34 2
  66   33   35 1
  67   35   37 1
  68   36   37 1
  69   36   64 1
  70   36   65 1
  71   36   66 1
  72   37   67 1
  73   37   68 1

#	End of record

