#	Name: ASD01420456
#	Creating user name:	WinNT
#	Creation time:	15. 06. 2019 19:20

#	Modifying user name:	WinNT
#	Modification time:	15. 06. 2019 19:20

#	Program:	/corina/corina34_cracker 3.40 0067  02.08.2006

@<TRIPOS>MOLECULE
ASD01420456
  22   23    0    0    0
SMALL
NO_CHARGES


@<TRIPOS>ATOM
   1 C1            -0.0173     1.4248     0.0099 C.3     
   2 O2             0.0021    -0.0041     0.0020 O.3     
   3 C3             5.3764     3.4172    -0.3375 C.3     
   4 N4             5.3225     3.8662    -1.7473 N.3     
   5 C5             4.2637     3.0238    -2.3483 C.3     
   6 C6             3.3299     2.6698    -1.2132 C.ar    
   7 C7             2.0334     2.1920    -1.2027 C.ar    
   8 C8             1.3965     1.9464    -0.0008 C.ar    
   9 C9             2.0563     2.1797     1.1916 C.ar    
  10 C10            3.3530     2.6581     1.1819 C.ar    
  11 C11            3.9906     2.9034    -0.0193 C.ar    
  12 H12           -0.5445     1.7859    -0.8732 H       
  13 H13           -0.5275     1.7763     0.9067 H       
  14 H14           -0.8759    -0.4094     0.0082 H       
  15 H15            6.1093     2.6184    -0.2245 H       
  16 H16            5.6267     4.2538     0.3148 H       
  17 H17            5.0831     4.8446    -1.8062 H       
  18 H18            3.7284     3.5826    -3.1159 H       
  19 H19            4.6984     2.1195    -2.7742 H       
  20 H20            1.5176     2.0102    -2.1339 H       
  21 H21            1.5583     1.9884     2.1306 H       
  22 H22            3.8680     2.8406     2.1135 H       
@<TRIPOS>BOND
   1    1    2 1
   2    1    8 1
   3    1   12 1
   4    1   13 1
   5    2   14 1
   6    3    4 1
   7    3   11 1
   8    3   15 1
   9    3   16 1
  10    4    5 1
  11    4   17 1
  12    5    6 1
  13    5   18 1
  14    5   19 1
  15    6    7 ar
  16    6   11 ar
  17    7    8 ar
  18    7   20 1
  19    8    9 ar
  20    9   10 ar
  21    9   21 1
  22   10   11 ar
  23   10   22 1

#	End of record

