#	Name: ASD00841450
#	Creating user name:	WinNT
#	Creation time:	15. 06. 2019 18:42

#	Modifying user name:	WinNT
#	Modification time:	15. 06. 2019 18:42

#	Program:	/corina/corina34_cracker 3.40 0067  02.08.2006

@<TRIPOS>MOLECULE
ASD00841450
  91   96    0    0    0
SMALL
NO_CHARGES


@<TRIPOS>ATOM
   1 C1            -0.0149     1.3803     0.0255 C.ar    
   2 C2             0.0029    -0.0066     0.0108 C.ar    
   3 C3             1.2146    -0.6824    -0.0068 C.ar    
   4 C4             2.3997     0.0270    -0.0096 C.ar    
   5 C5             2.3793     1.4096     0.0055 C.ar    
   6 C6             1.1734     2.0853     0.0225 C.ar    
   7 C7             1.2376    -2.1892    -0.0222 C.3     
   8 C8             0.4952    -2.7185    -1.2307 C.2     
   9 N9             2.6178    -2.6803    -0.0120 N.am    
  10 C10            3.4635    -2.3343    -1.0027 C.2     
  11 N11            4.7591    -2.7005    -0.9414 N.am    
  12 O12            3.0577    -1.6917    -1.9518 O.2     
  13 C13            5.6728    -2.4340    -2.0628 C.3     
  14 C14            6.9194    -1.7289    -1.5178 C.3     
  15 N15            7.4922    -2.5279    -0.4263 N.3     
  16 C16            6.5582    -2.6352     0.7024 C.3     
  17 C17            5.2982    -3.3719     0.2510 C.3     
  18 C18            8.7825    -1.9766     0.0087 C.3     
  19 C19            9.2884    -2.7568     1.2252 C.3     
  20 C20           10.6605    -2.2180     1.6361 C.3     
  21 N21           11.5993    -2.3603     0.5159 N.3     
  22 C22           11.1586    -1.5813    -0.6483 C.3     
  23 C23            9.8013    -2.1012    -1.1275 C.3     
  24 H24           12.5341    -2.1001     0.7923 H       
  25 O25            0.7748    -2.5162    -2.3935 O.2     
  26 N26           -0.5318    -3.4543    -0.7732 N.am    
  27 C27            0.4669    -2.7426     1.1543 C.ar    
  28 C28           -0.5770    -3.4889     0.6215 C.ar    
  29 C29            0.6299    -2.6286     2.5165 C.ar    
  30 C30           -0.2537    -3.2628     3.3737 C.ar    
  31 C31           -1.2992    -4.0102     2.8550 C.ar    
  32 C32           -1.4632    -4.1249     1.4878 C.ar    
  33 Cl33          -0.0522    -3.1226     5.0923 Cl      
  34 F34           -2.1620    -4.6295     3.6900 F       
  35 C35           -0.9823    -5.8443    -2.0614 C.ar    
  36 C36            0.1972    -5.9987    -2.7756 C.ar    
  37 C37           -1.6551    -6.9547    -1.5878 C.ar    
  38 C38           -1.1552    -8.2208    -1.8238 C.ar    
  39 C39            0.0243    -8.3805    -2.5377 C.ar    
  40 C40            0.7007    -7.2684    -3.0141 C.ar    
  41 O41            0.5153    -9.6262    -2.7698 O.3     
  42 O42            0.8581    -4.9065    -3.2413 O.3     
  43 C43           -0.2341   -10.7263    -2.2499 C.3     
  44 C44            2.0659    -5.1402    -3.9685 C.3     
  45 C45            2.6631    -3.8022    -4.4088 C.3     
  46 S46           -1.6190    -4.2308    -1.7516 S.o2    
  47 O47           -2.7992    -4.4065    -0.9799 O.2     
  48 O48           -1.5992    -3.5458    -2.9965 O.2     
  49 O49           -1.1645    -0.7024     0.0141 O.3     
  50 C50           -3.5738    -0.8895     0.0339 C.3     
  51 C51           -2.3735     0.0592     0.0330 C.3     
  52 H52           -0.9568     1.9087     0.0346 H       
  53 H53            3.3431    -0.4986    -0.0233 H       
  54 H54            3.3071     1.9625     0.0040 H       
  55 H55            1.1601     3.1652     0.0343 H       
  56 H56            2.9230    -3.2544     0.7078 H       
  57 H57            5.9601    -3.3747    -2.5325 H       
  58 H58            5.1791    -1.7927    -2.7929 H       
  59 H59            7.6549    -1.6224    -2.3153 H       
  60 H60            6.6448    -0.7434    -1.1418 H       
  61 H61            7.0316    -3.1859     1.5153 H       
  62 H62            6.2885    -1.6370     1.0475 H       
  63 H63            4.5570    -3.3534     1.0500 H       
  64 H64            5.5467    -4.4036     0.0021 H       
  65 H65            8.6589    -0.9268     0.2749 H       
  66 H66            8.5878    -2.6368     2.0516 H       
  67 H67            9.3737    -3.8132     0.9702 H       
  68 H68           10.5719    -1.1652     1.9042 H       
  69 H69           11.0299    -2.7810     2.4933 H       
  70 H70           11.0676    -0.5315    -0.3696 H       
  71 H71           11.8898    -1.6819    -1.4504 H       
  72 H72            9.8947    -3.1472    -1.4195 H       
  73 H73            9.4673    -1.5126    -1.9820 H       
  74 H74            1.4462    -2.0454     2.9163 H       
  75 H75           -2.2802    -4.7086     1.0900 H       
  76 H76           -2.5731    -6.8324    -1.0321 H       
  77 H77           -1.6824    -9.0870    -1.4521 H       
  78 H78            1.6185    -7.3907    -3.5701 H       
  79 H79           -0.3059   -10.6371    -1.1660 H       
  80 H80           -1.2348   -10.7207    -2.6820 H       
  81 H81            0.2667   -11.6601    -2.5053 H       
  82 H82            2.7783    -5.6638    -3.3309 H       
  83 H83            1.8493    -5.7481    -4.8469 H       
  84 H84            3.5844    -3.9805    -4.9635 H       
  85 H85            1.9508    -3.2786    -5.0464 H       
  86 H86            2.8797    -3.1943    -3.5304 H       
  87 H87           -3.5484    -1.5086    -0.8628 H       
  88 H88           -3.5323    -1.5272     0.9170 H       
  89 H89           -4.4961    -0.3087     0.0483 H       
  90 H90           -2.3990     0.6783     0.9298 H       
  91 H91           -2.4151     0.6969    -0.8500 H       
@<TRIPOS>BOND
   1    1    2 ar
   2    1    6 ar
   3    1   52 1
   4    2    3 ar
   5    2   49 1
   6    3    4 ar
   7    3    7 1
   8    4    5 ar
   9    4   53 1
  10    5    6 ar
  11    5   54 1
  12    6   55 1
  13    7    8 1
  14    7    9 1
  15    7   27 1
  16    8   25 2
  17    8   26 am
  18    9   10 am
  19    9   56 1
  20   10   11 am
  21   10   12 2
  22   11   13 1
  23   11   17 1
  24   13   14 1
  25   13   57 1
  26   13   58 1
  27   14   15 1
  28   14   59 1
  29   14   60 1
  30   15   16 1
  31   15   18 1
  32   16   17 1
  33   16   61 1
  34   16   62 1
  35   17   63 1
  36   17   64 1
  37   18   19 1
  38   18   23 1
  39   18   65 1
  40   19   20 1
  41   19   66 1
  42   19   67 1
  43   20   21 1
  44   20   68 1
  45   20   69 1
  46   21   22 1
  47   21   24 1
  48   22   23 1
  49   22   70 1
  50   22   71 1
  51   23   72 1
  52   23   73 1
  53   26   46 am
  54   26   28 1
  55   27   28 ar
  56   27   29 ar
  57   28   32 ar
  58   29   30 ar
  59   29   74 1
  60   30   31 ar
  61   30   33 1
  62   31   32 ar
  63   31   34 1
  64   32   75 1
  65   35   36 ar
  66   35   37 ar
  67   35   46 1
  68   36   42 1
  69   36   40 ar
  70   37   38 ar
  71   37   76 1
  72   38   39 ar
  73   38   77 1
  74   39   40 ar
  75   39   41 1
  76   40   78 1
  77   41   43 1
  78   42   44 1
  79   43   79 1
  80   43   80 1
  81   43   81 1
  82   44   45 1
  83   44   82 1
  84   44   83 1
  85   45   84 1
  86   45   85 1
  87   45   86 1
  88   46   47 2
  89   46   48 2
  90   49   51 1
  91   50   51 1
  92   50   87 1
  93   50   88 1
  94   50   89 1
  95   51   90 1
  96   51   91 1

#	End of record

