#	Name: ASD01150174
#	Creating user name:	WinNT
#	Creation time:	15. 06. 2019 19:03

#	Modifying user name:	WinNT
#	Modification time:	15. 06. 2019 19:03

#	Program:	/corina/corina34_cracker 3.40 0067  02.08.2006

@<TRIPOS>MOLECULE
ASD01150174
  52   54    0    0    0
SMALL
NO_CHARGES


@<TRIPOS>ATOM
   1 N1            -0.0592     1.3335     0.0737 N.pl3   
   2 C2            -0.0746    -0.0439     0.1655 C.2     
   3 C3            -1.4126    -0.4173     0.1836 C.2     
   4 N4            -2.1370     0.7019     0.1051 N.2     
   5 C5            -1.3432     1.7407     0.0458 C.2     
   6 C6             0.9194    -1.0434     0.2378 C.2     
   7 N7             0.5473    -2.3376     0.3226 N.am    
   8 C8            -0.7511    -2.6849     0.3387 C.2     
   9 N9            -1.7301    -1.7630     0.2722 N.am    
  10 O10            2.0992    -0.7412     0.2232 O.2     
  11 C11           -3.1333    -2.1836     0.2925 C.3     
  12 O12           -1.0491    -3.8613     0.4156 O.2     
  13 C13            1.5739    -3.3801     0.3979 C.3     
  14 C14            1.9185    -3.6424     1.8413 C.ar    
  15 C15            1.2223    -4.6002     2.5548 C.ar    
  16 C16            1.5379    -4.8413     3.8787 C.ar    
  17 C17            2.5508    -4.1238     4.4898 C.ar    
  18 C18            3.2472    -3.1654     3.7752 C.ar    
  19 C19            2.9345    -2.9292     2.4498 C.ar    
  20 C20           -1.7967     3.1746    -0.0499 C.3     
  21 C21           -2.0685     3.7183     1.3542 C.3     
  22 C22            1.1280     2.1903     0.0226 C.3     
  23 C23           -3.6296    -2.2344     1.7389 C.3     
  24 C24           -5.0950    -2.6736     1.7602 C.3     
  25 Cl25           2.9474    -4.4256     6.1527 Cl      
  26 C26            1.9594     1.9860     1.2907 C.3     
  27 C27            1.9684     1.8248    -1.2026 C.3     
  28 H28           -3.7343    -1.4714    -0.2730 H       
  29 H29           -3.2228    -3.1724    -0.1572 H       
  30 H30            1.1963    -4.2955    -0.0577 H       
  31 H31            2.4661    -3.0505    -0.1345 H       
  32 H32            0.4314    -5.1599     2.0778 H       
  33 H33            0.9937    -5.5893     4.4361 H       
  34 H34            4.0380    -2.6050     4.2517 H       
  35 H35            3.4780    -2.1811     1.8918 H       
  36 H36           -1.0183     3.7709    -0.5260 H       
  37 H37           -2.7094     3.2282    -0.6432 H       
  38 H38           -1.1816     3.5846     1.9736 H       
  39 H39           -2.3119     4.7790     1.2923 H       
  40 H40           -2.9056     3.1786     1.7970 H       
  41 H41            0.8204     3.2337    -0.0461 H       
  42 H42           -3.0286    -2.9465     2.3044 H       
  43 H43           -3.5401    -1.2455     2.1887 H       
  44 H44           -5.6960    -1.9615     1.1947 H       
  45 H45           -5.1845    -3.6624     1.3104 H       
  46 H46           -5.4486    -2.7098     2.7906 H       
  47 H47            2.3566     0.9711     1.3051 H       
  48 H48            2.7837     2.6991     1.3035 H       
  49 H49            1.3300     2.1424     2.1668 H       
  50 H50            1.4157     2.0714    -2.1091 H       
  51 H51            2.9028     2.3858    -1.1828 H       
  52 H52            2.1856     0.7567    -1.1887 H       
@<TRIPOS>BOND
   1    1    2 1
   2    1   22 1
   3    1    5 1
   4    2    3 2
   5    2    6 1
   6    3    4 1
   7    3    9 1
   8    4    5 2
   9    5   20 1
  10    6    7 am
  11    6   10 2
  12    7    8 am
  13    7   13 1
  14    8    9 am
  15    8   12 2
  16    9   11 1
  17   11   23 1
  18   11   28 1
  19   11   29 1
  20   13   14 1
  21   13   30 1
  22   13   31 1
  23   14   15 ar
  24   14   19 ar
  25   15   16 ar
  26   15   32 1
  27   16   17 ar
  28   16   33 1
  29   17   18 ar
  30   17   25 1
  31   18   19 ar
  32   18   34 1
  33   19   35 1
  34   20   21 1
  35   20   36 1
  36   20   37 1
  37   21   38 1
  38   21   39 1
  39   21   40 1
  40   22   26 1
  41   22   27 1
  42   22   41 1
  43   23   24 1
  44   23   42 1
  45   23   43 1
  46   24   44 1
  47   24   45 1
  48   24   46 1
  49   26   47 1
  50   26   48 1
  51   26   49 1
  52   27   50 1
  53   27   51 1
  54   27   52 1

#	End of record

