#	Name: ASD03430713
#	Creating user name:	WinNT
#	Creation time:	15. 06. 2019 20:41

#	Modifying user name:	WinNT
#	Modification time:	15. 06. 2019 20:41

#	Program:	/corina/corina34_cracker 3.40 0067  02.08.2006

@<TRIPOS>MOLECULE
ASD03430713
  47   51    0    0    0
SMALL
NO_CHARGES


@<TRIPOS>ATOM
   1 C1            -0.0169     1.3939     0.0097 C.ar    
   2 C2             0.0021    -0.0041     0.0020 C.ar    
   3 C3             1.2002    -0.6756    -0.0128 C.ar    
   4 C4             2.4088     0.0217    -0.0124 C.ar    
   5 C5             2.3896     1.4153    -0.0093 C.ar    
   6 C6             1.1931     2.0987     0.0019 C.ar    
   7 O7             3.4696    -0.8323    -0.0029 O.3     
   8 C8             1.5514    -2.1392    -0.0439 C.3     
   9 C9             3.0358    -2.1363    -0.4342 C.3     
  10 C10            0.4300    -3.8483     1.0244 C.ar    
  11 C11            1.3221    -2.8096     1.2782 C.ar    
  12 C12            0.7151    -2.9043    -1.0287 C.2     
  13 N13            0.0946    -3.8768    -0.3313 N.am    
  14 O14            0.6167    -2.6892    -2.2183 O.2     
  15 C15            1.7974    -2.5894     2.5517 C.ar    
  16 C16            1.3884    -3.4019     3.5941 C.ar    
  17 C17            0.5008    -4.4350     3.3541 C.ar    
  18 C18            0.0228    -4.6604     2.0802 C.ar    
  19 C19           -0.8249    -4.8501    -0.9260 C.3     
  20 F20            1.1874     3.4497     0.0050 F       
  21 C21           -2.2300    -4.3077    -0.8786 C.ar    
  22 C22           -2.7144    -3.5533    -1.9312 C.ar    
  23 C23           -4.0022    -3.0549    -1.8902 C.ar    
  24 C24           -4.8096    -3.3119    -0.7917 C.ar    
  25 C25           -4.3212    -4.0691     0.2631 C.ar    
  26 C26           -3.0346    -4.5700     0.2148 C.ar    
  27 C27           -1.2632     2.0991     0.0194 C.1     
  28 N28           -2.2519     2.6585     0.0272 N.1     
  29 O29           -6.0766    -2.8224    -0.7488 O.3     
  30 C30           -6.8507    -3.1266     0.4132 C.3     
  31 H31           -0.9260    -0.5563     0.0081 H       
  32 H32            3.3199     1.9639    -0.0150 H       
  33 H33            3.1527    -2.2461    -1.5123 H       
  34 H34            3.5771    -2.9194     0.0966 H       
  35 H35            2.4903    -1.7820     2.7369 H       
  36 H36            1.7617    -3.2301     4.5928 H       
  37 H37            0.1807    -5.0685     4.1681 H       
  38 H38           -0.6700    -5.4693     1.9006 H       
  39 H39           -0.5405    -5.0325    -1.9623 H       
  40 H40           -0.7769    -5.7842    -0.3663 H       
  41 H41           -2.0854    -3.3531    -2.7860 H       
  42 H42           -4.3800    -2.4653    -2.7125 H       
  43 H43           -4.9478    -4.2706     1.1194 H       
  44 H44           -2.6540    -5.1595     1.0357 H       
  45 H45           -7.8392    -2.6770     0.3192 H       
  46 H46           -6.9509    -4.2076     0.5102 H       
  47 H47           -6.3523    -2.7272     1.2965 H       
@<TRIPOS>BOND
   1    1    2 ar
   2    1    6 ar
   3    1   27 1
   4    2    3 ar
   5    2   31 1
   6    3    4 ar
   7    3    8 1
   8    4    5 ar
   9    4    7 1
  10    5    6 ar
  11    5   32 1
  12    6   20 1
  13    7    9 1
  14    8    9 1
  15    8   11 1
  16    8   12 1
  17    9   33 1
  18    9   34 1
  19   10   11 ar
  20   10   13 1
  21   10   18 ar
  22   11   15 ar
  23   12   13 am
  24   12   14 2
  25   13   19 1
  26   15   16 ar
  27   15   35 1
  28   16   17 ar
  29   16   36 1
  30   17   18 ar
  31   17   37 1
  32   18   38 1
  33   19   21 1
  34   19   39 1
  35   19   40 1
  36   21   22 ar
  37   21   26 ar
  38   22   23 ar
  39   22   41 1
  40   23   24 ar
  41   23   42 1
  42   24   25 ar
  43   24   29 1
  44   25   26 ar
  45   25   43 1
  46   26   44 1
  47   27   28 3
  48   29   30 1
  49   30   45 1
  50   30   46 1
  51   30   47 1

#	End of record

