#	Name: ASD01913634
#	Creating user name:	WinNT
#	Creation time:	15. 06. 2019 20:01

#	Modifying user name:	WinNT
#	Modification time:	15. 06. 2019 20:01

#	Program:	/corina/corina34_cracker 3.40 0067  02.08.2006

@<TRIPOS>MOLECULE
ASD01913634
  39   41    0    0    0
SMALL
NO_CHARGES


@<TRIPOS>ATOM
   1 C1            -0.0386     1.4084    -0.0787 C.ar    
   2 C2            -0.0115     0.0448     0.1463 C.ar    
   3 C3             1.1955    -0.5993     0.3439 C.ar    
   4 C4             2.3756     0.1203     0.3161 C.ar    
   5 C5             2.3485     1.4838     0.0902 C.ar    
   6 C6             1.1413     2.1281    -0.1060 C.ar    
   7 C7             3.6349     2.2683     0.0604 C.3     
   8 O8             4.1434     2.2986    -1.2747 O.3     
   9 C9             5.3035     2.9693    -1.4760 C.ar    
  10 N10            5.9046     3.5552    -0.4520 N.ar    
  11 C11            7.0328     4.2183    -0.5966 C.ar    
  12 C12            7.6384     4.3263    -1.8490 C.ar    
  13 C13            7.0271     3.7167    -2.9550 C.ar    
  14 C14            5.8490     3.0274    -2.7550 C.ar    
  15 C15            8.9026     5.0711    -2.0081 C.2     
  16 N16            9.4809     5.6531    -0.9389 N.am    
  17 O17            9.4225     5.1595    -3.1037 O.2     
  18 C18           10.7269     6.2747    -1.0697 C.ar    
  19 C19           11.0478     6.9510    -2.2396 C.ar    
  20 C20           12.2791     7.5637    -2.3657 C.ar    
  21 C21           13.1921     7.5041    -1.3288 C.ar    
  22 C22           12.8759     6.8312    -0.1628 C.ar    
  23 C23           11.6438     6.2220    -0.0278 C.ar    
  24 H24           -0.9814     1.9109    -0.2375 H       
  25 H25           -0.9334    -0.5174     0.1680 H       
  26 H26            1.2167    -1.6645     0.5204 H       
  27 H27            3.3186    -0.3828     0.4712 H       
  28 H28            1.1202     3.1933    -0.2828 H       
  29 H29            3.4474     3.2866     0.4010 H       
  30 H30            4.3648     1.7942     0.7165 H       
  31 H31            7.4938     4.6832     0.2623 H       
  32 H32            7.4701     3.7821    -3.9378 H       
  33 H33            5.3509     2.5458    -3.5834 H       
  34 H34            9.0330     5.6409    -0.0786 H       
  35 H35           10.3355     6.9973    -3.0501 H       
  36 H36           12.5293     8.0897    -3.2751 H       
  37 H37           14.1545     7.9838    -1.4300 H       
  38 H38           13.5914     6.7859     0.6448 H       
  39 H39           11.3972     5.6969     0.8832 H       
@<TRIPOS>BOND
   1    1    2 ar
   2    1    6 ar
   3    1   24 1
   4    2    3 ar
   5    2   25 1
   6    3    4 ar
   7    3   26 1
   8    4    5 ar
   9    4   27 1
  10    5    6 ar
  11    5    7 1
  12    6   28 1
  13    7    8 1
  14    7   29 1
  15    7   30 1
  16    8    9 1
  17    9   10 ar
  18    9   14 ar
  19   10   11 ar
  20   11   12 ar
  21   11   31 1
  22   12   13 ar
  23   12   15 1
  24   13   14 ar
  25   13   32 1
  26   14   33 1
  27   15   16 am
  28   15   17 2
  29   16   18 1
  30   16   34 1
  31   18   19 ar
  32   18   23 ar
  33   19   20 ar
  34   19   35 1
  35   20   21 ar
  36   20   36 1
  37   21   22 ar
  38   21   37 1
  39   22   23 ar
  40   22   38 1
  41   23   39 1

#	End of record

