#	Name: ASD03331199
#	Creating user name:	WinNT
#	Creation time:	15. 06. 2019 20:38

#	Modifying user name:	WinNT
#	Modification time:	15. 06. 2019 20:38

#	Program:	/corina/corina34_cracker 3.40 0067  02.08.2006

@<TRIPOS>MOLECULE
ASD03331199
  51   54    0    0    0
SMALL
NO_CHARGES


@<TRIPOS>ATOM
   1 N1             0.7712    -0.2192     0.2965 N.am    
   2 C2             1.0562    -1.1746    -0.7848 C.3     
   3 C3             1.8267    -0.4439    -1.8895 C.3     
   4 N4             3.0083     0.2080    -1.3091 N.3     
   5 C5             2.6240     1.2353    -0.3319 C.3     
   6 C6             1.8862     0.5733     0.8368 C.3     
   7 C7            -0.4796    -0.0698     0.7757 C.2     
   8 O8            -1.4061    -0.6559     0.2499 O.2     
   9 N9            -0.7035     0.7293     1.8377 N.am    
  10 C10           -2.0117     0.9539     2.2810 C.ar    
  11 C11           -2.3741     2.1992     2.7772 C.ar    
  12 C12           -3.6661     2.4178     3.2135 C.ar    
  13 C13           -4.5985     1.3981     3.1566 C.ar    
  14 C14           -4.2408     0.1570     2.6630 C.ar    
  15 C15           -2.9517    -0.0665     2.2203 C.ar    
  16 C16            3.8659     0.7744    -2.3587 C.3     
  17 C17            5.0164     1.5120    -1.7236 C.ar    
  18 C18            5.8209     0.8720    -0.7811 C.ar    
  19 N19            6.8308     1.4829    -0.2078 N.ar    
  20 C20            7.1341     2.7509    -0.5032 C.ar    
  21 C21            6.3567     3.4592    -1.4527 C.ar    
  22 C22            5.2758     2.8059    -2.0744 C.ar    
  23 C23            8.2170     3.4005     0.1148 C.ar    
  24 C24            8.5017     4.6921    -0.2057 C.ar    
  25 C25            7.7356     5.3869    -1.1395 C.ar    
  26 Cl26           5.4769    -0.7754    -0.3551 Cl      
  27 C27            6.6794     4.7912    -1.7585 C.ar    
  28 C28            9.0590     2.6695     1.1285 C.3     
  29 H29            1.6605    -1.9953    -0.3983 H       
  30 H30            0.1203    -1.5629    -1.1865 H       
  31 H31            2.1423    -1.1604    -2.6479 H       
  32 H32            1.1831     0.3087    -2.3451 H       
  33 H33            3.5179     1.7365     0.0395 H       
  34 H34            1.9693     1.9645    -0.8091 H       
  35 H35            1.4990     1.3406     1.5071 H       
  36 H36            2.5703    -0.0794     1.3791 H       
  37 H37            0.0422     1.1487     2.2947 H       
  38 H38           -1.6463     2.9958     2.8222 H       
  39 H39           -3.9485     3.3860     3.5998 H       
  40 H40           -5.6081     1.5715     3.4987 H       
  41 H41           -4.9712    -0.6374     2.6198 H       
  42 H42           -2.6741    -1.0347     1.8307 H       
  43 H43            4.2515    -0.0293    -2.9859 H       
  44 H44            3.2845     1.4650    -2.9696 H       
  45 H45            4.6632     3.3168    -2.8024 H       
  46 H46            9.3347     5.1867     0.2718 H       
  47 H47            7.9828     6.4115    -1.3751 H       
  48 H48            6.0932     5.3399    -2.4808 H       
  49 H49            9.8846     2.1693     0.6222 H       
  50 H50            9.4548     3.3811     1.8531 H       
  51 H51            8.4467     1.9292     1.6434 H       
@<TRIPOS>BOND
   1    1    2 1
   2    1    6 1
   3    1    7 am
   4    2    3 1
   5    2   29 1
   6    2   30 1
   7    3    4 1
   8    3   31 1
   9    3   32 1
  10    4    5 1
  11    4   16 1
  12    5    6 1
  13    5   33 1
  14    5   34 1
  15    6   35 1
  16    6   36 1
  17    7    8 2
  18    7    9 am
  19    9   10 1
  20    9   37 1
  21   10   11 ar
  22   10   15 ar
  23   11   12 ar
  24   11   38 1
  25   12   13 ar
  26   12   39 1
  27   13   14 ar
  28   13   40 1
  29   14   15 ar
  30   14   41 1
  31   15   42 1
  32   16   17 1
  33   16   43 1
  34   16   44 1
  35   17   18 ar
  36   17   22 ar
  37   18   19 ar
  38   18   26 1
  39   19   20 ar
  40   20   21 ar
  41   20   23 ar
  42   21   22 ar
  43   21   27 ar
  44   22   45 1
  45   23   24 ar
  46   23   28 1
  47   24   25 ar
  48   24   46 1
  49   25   27 ar
  50   25   47 1
  51   27   48 1
  52   28   49 1
  53   28   50 1
  54   28   51 1

#	End of record

