#	Name: ASD01411106
#	Creating user name:	WinNT
#	Creation time:	15. 06. 2019 19:19

#	Modifying user name:	WinNT
#	Modification time:	15. 06. 2019 19:19

#	Program:	/corina/corina34_cracker 3.40 0067  02.08.2006

@<TRIPOS>MOLECULE
ASD01411106
  57   60    0    0    0
SMALL
NO_CHARGES


@<TRIPOS>ATOM
   1 C1            -0.1805     1.6239     0.3407 C.3     
   2 C2            -0.2236     0.0940     0.2168 C.3     
   3 O3             1.1742     2.0717     0.2423 O.3     
   4 C4             0.8310    -0.4736     1.1334 C.2     
   5 C5             1.9877     1.7475     1.3767 C.3     
   6 C6             1.8335     0.2720     1.6611 C.2     
   7 C7             1.0011    -1.8194     1.6176 C.ar    
   8 C8             1.5281     2.5580     2.5902 C.3     
   9 N9             2.6267    -0.5126     2.4475 N.pl3   
  10 C10            0.2764    -3.0133     1.4114 C.ar    
  11 C11            2.1524    -1.7948     2.4472 C.ar    
  12 C12            0.7540    -4.1556     2.0647 C.ar    
  13 C13            2.5981    -2.9516     3.0810 C.ar    
  14 C14            1.8752    -4.1159     2.8684 C.ar    
  15 C15            2.3818     2.1869     3.8044 C.3     
  16 C16            3.4526     2.0645     1.0690 C.3     
  17 N17            3.6135     3.5105     0.8969 N.am    
  18 C18            4.7997     4.0928     1.1622 C.2     
  19 O19            5.7360     3.4182     1.5442 O.2     
  20 C20            4.9621     5.5520     0.9885 C.ar    
  21 C21            6.1892     6.1581     1.2624 C.ar    
  22 C22            6.3342     7.5202     1.0978 C.ar    
  23 C23            5.2665     8.2851     0.6628 C.ar    
  24 C24            4.0474     7.6905     0.3896 C.ar    
  25 C25            3.8907     6.3286     0.5445 C.ar    
  26 C26            3.8190    -2.9390     3.9643 C.3     
  27 C27            1.9905     3.0689     4.9918 C.3     
  28 C28            3.8639     1.3591    -0.1976 C.2     
  29 O29            4.2517     1.9985    -1.1466 O.2     
  30 O30            3.7995     0.0204    -0.2714 O.3     
  31 C31           -0.8871    -3.0537     0.5775 C.1     
  32 N32           -1.8100    -3.0857    -0.0840 N.1     
  33 H33           -0.7698     2.0701    -0.4603 H       
  34 H34           -0.5927     1.9221     1.3047 H       
  35 H35           -1.2063    -0.2727     0.5133 H       
  36 H36           -0.0146    -0.1989    -0.8121 H       
  37 H37            1.6387     3.6217     2.3797 H       
  38 H38            0.4818     2.3361     2.8002 H       
  39 H39            3.4089    -0.2068     2.9328 H       
  40 H40            0.2314    -5.0920     1.9367 H       
  41 H41            2.2018    -5.0257     3.3500 H       
  42 H42            2.2157     1.1401     4.0591 H       
  43 H43            3.4349     2.3408     3.5689 H       
  44 H44            4.0789     1.7249     1.8939 H       
  45 H45            2.8664     4.0488     0.5921 H       
  46 H46            7.0232     5.5623     1.6027 H       
  47 H47            7.2832     7.9905     1.3094 H       
  48 H48            5.3851     9.3511     0.5363 H       
  49 H49            3.2179     8.2932     0.0504 H       
  50 H50            2.9387     5.8656     0.3306 H       
  51 H51            3.5232    -2.7182     4.9899 H       
  52 H52            4.3038    -3.9146     3.9280 H       
  53 H53            4.5131    -2.1751     3.6139 H       
  54 H54            0.9375     2.9150     5.2273 H       
  55 H55            2.5987     2.8045     5.8568 H       
  56 H56            2.1567     4.1157     4.7371 H       
  57 H57            4.0738    -0.3871    -1.1044 H       
@<TRIPOS>BOND
   1    1    2 1
   2    1    3 1
   3    1   33 1
   4    1   34 1
   5    2    4 1
   6    2   35 1
   7    2   36 1
   8    3    5 1
   9    4    6 2
  10    4    7 1
  11    5    8 1
  12    5   16 1
  13    5    6 1
  14    6    9 1
  15    7   10 ar
  16    7   11 ar
  17    8   15 1
  18    8   37 1
  19    8   38 1
  20    9   11 1
  21    9   39 1
  22   10   12 ar
  23   10   31 1
  24   11   13 ar
  25   12   14 ar
  26   12   40 1
  27   13   14 ar
  28   13   26 1
  29   14   41 1
  30   15   27 1
  31   15   42 1
  32   15   43 1
  33   16   17 1
  34   16   28 1
  35   16   44 1
  36   17   18 am
  37   17   45 1
  38   18   19 2
  39   18   20 1
  40   20   21 ar
  41   20   25 ar
  42   21   22 ar
  43   21   46 1
  44   22   23 ar
  45   22   47 1
  46   23   24 ar
  47   23   48 1
  48   24   25 ar
  49   24   49 1
  50   25   50 1
  51   26   51 1
  52   26   52 1
  53   26   53 1
  54   27   54 1
  55   27   55 1
  56   27   56 1
  57   28   29 2
  58   28   30 1
  59   30   57 1
  60   31   32 3

#	End of record

