#	Name: ASD01816817
#	Creating user name:	WinNT
#	Creation time:	15. 06. 2019 19:36

#	Modifying user name:	WinNT
#	Modification time:	15. 06. 2019 19:36

#	Program:	/corina/corina34_cracker 3.40 0067  02.08.2006

@<TRIPOS>MOLECULE
ASD01816817
  49   52    0    0    0
SMALL
NO_CHARGES


@<TRIPOS>ATOM
   1 C1            -0.0238     1.3785     0.1065 C.ar    
   2 C2             0.0083    -0.0092     0.2215 C.ar    
   3 C3             1.1858    -0.6926     0.1361 C.ar    
   4 C4             2.3849     0.0111    -0.0707 C.ar    
   5 C5             2.3555     1.4255    -0.1884 C.ar    
   6 C6             1.1181     2.0945    -0.0944 C.ar    
   7 C7             3.6187    -0.6589    -0.1636 C.ar    
   8 C8             4.7449     0.0860    -0.3647 C.ar    
   9 C9             4.6482     1.4814    -0.4725 C.ar    
  10 N10            3.4872     2.1008    -0.3846 N.ar    
  11 C11            5.8793     2.2779    -0.6908 C.2     
  12 N12            5.8041     3.6194    -0.7966 N.am    
  13 O13            6.9562     1.7214    -0.7743 O.2     
  14 C14            7.0207     4.4065    -1.0123 C.3     
  15 C15            7.3413     4.4544    -2.5094 C.3     
  16 C16            6.8044     5.8345    -0.5018 C.3     
  17 C17            8.0514     6.6700    -0.8025 C.3     
  18 O18            8.3110     6.6473    -2.2076 O.3     
  19 C19            8.5677     5.3432    -2.7325 C.3     
  20 O20            6.5760     5.8079     0.9086 O.3     
  21 C21            3.6950    -2.1592    -0.0439 C.3     
  22 C22            5.1288    -2.6020    -0.1828 C.ar    
  23 C23            5.9312    -2.7069     0.9380 C.ar    
  24 C24            5.6394    -2.9085    -1.4303 C.ar    
  25 C25            6.9542    -3.3151    -1.5584 C.ar    
  26 C26            7.7594    -3.4148    -0.4377 C.ar    
  27 C27            7.2464    -3.1125     0.8111 C.ar    
  28 Cl28           9.4109    -3.9255    -0.5977 Cl      
  29 F29            1.1995    -2.0387     0.2502 F       
  30 F30            1.0646     3.4401    -0.2027 F       
  31 H31           -0.9698     1.8952     0.1732 H       
  32 H32           -0.9118    -0.5517     0.3808 H       
  33 H33            5.7076    -0.3975    -0.4402 H       
  34 H34            4.9444     4.0637    -0.7299 H       
  35 H35            7.8515     3.9481    -0.4760 H       
  36 H36            7.5511     3.4471    -2.8693 H       
  37 H37            6.4898     4.8659    -3.0513 H       
  38 H38            5.9420     6.2738    -1.0032 H       
  39 H39            7.8867     7.6980    -0.4798 H       
  40 H40            8.9055     6.2535    -0.2683 H       
  41 H41            9.4284     4.9094    -2.2236 H       
  42 H42            8.7748     5.4154    -3.8002 H       
  43 H43            6.4308     6.6801     1.3000 H       
  44 H44            3.3128    -2.4659     0.9298 H       
  45 H45            3.0954    -2.6175    -0.8303 H       
  46 H46            5.5305    -2.4715     1.9129 H       
  47 H47            5.0108    -2.8306    -2.3051 H       
  48 H48            7.3528    -3.5552    -2.5330 H       
  49 H49            7.8746    -3.1898     1.6862 H       
@<TRIPOS>BOND
   1    1    2 ar
   2    1    6 ar
   3    1   31 1
   4    2    3 ar
   5    2   32 1
   6    3    4 ar
   7    3   29 1
   8    4    5 ar
   9    4    7 ar
  10    5    6 ar
  11    5   10 ar
  12    6   30 1
  13    7    8 ar
  14    7   21 1
  15    8    9 ar
  16    8   33 1
  17    9   10 ar
  18    9   11 1
  19   11   12 am
  20   11   13 2
  21   12   14 1
  22   12   34 1
  23   14   15 1
  24   14   16 1
  25   14   35 1
  26   15   19 1
  27   15   36 1
  28   15   37 1
  29   16   17 1
  30   16   20 1
  31   16   38 1
  32   17   18 1
  33   17   39 1
  34   17   40 1
  35   18   19 1
  36   19   41 1
  37   19   42 1
  38   20   43 1
  39   21   22 1
  40   21   44 1
  41   21   45 1
  42   22   23 ar
  43   22   24 ar
  44   23   27 ar
  45   23   46 1
  46   24   25 ar
  47   24   47 1
  48   25   26 ar
  49   25   48 1
  50   26   27 ar
  51   26   28 1
  52   27   49 1

#	End of record

