#	Name: ASD03200047
#	Creating user name:	WinNT
#	Creation time:	15. 06. 2019 20:34

#	Modifying user name:	WinNT
#	Modification time:	15. 06. 2019 20:34

#	Program:	/corina/corina34_cracker 3.40 0067  02.08.2006

@<TRIPOS>MOLECULE
ASD03200047
  48   51    0    0    0
SMALL
NO_CHARGES


@<TRIPOS>ATOM
   1 C1             0.9748    -1.0681    -0.1582 C.3     
   2 N2            -0.0125     0.0063     0.0073 N.3     
   3 C3             0.3275     0.8692     1.1458 C.3     
   4 C4             1.6825     1.5353     0.8960 C.3     
   5 C5             2.7514     0.4542     0.7139 C.3     
   6 C6             2.3491    -0.4598    -0.4469 C.3     
   7 C7            -1.2989    -0.5136     0.1411 C.ar    
   8 C8            -2.0031    -0.3804     1.3353 C.ar    
   9 C9            -3.2746    -0.9091     1.4283 C.ar    
  10 N10           -3.8265    -1.5347     0.4058 N.ar    
  11 C11           -3.1965    -1.6843    -0.7443 C.ar    
  12 C12           -1.9196    -1.1785    -0.9231 C.ar    
  13 N13           -1.2551    -1.3396    -2.1463 N.am    
  14 C14           -1.4417    -2.4598    -2.8722 C.2     
  15 C15           -0.6723    -2.6719    -4.1100 C.2     
  16 O16           -2.2456    -3.2957    -2.5049 O.2     
  17 C17           -0.8897    -3.7266    -4.9268 C.2     
  18 S18            0.1853    -3.6384    -6.2539 S.3     
  19 C19            0.8798    -2.1525    -5.6156 C.2     
  20 N20            0.2805    -1.8386    -4.5069 N.2     
  21 C21            1.9707    -1.3795    -6.2460 C.ar    
  22 N22            2.0320     2.3819     2.0445 N.3     
  23 C23            2.6086    -1.8688    -7.3889 C.ar    
  24 C24            3.6279    -1.1401    -7.9725 C.ar    
  25 C25            4.0170     0.0702    -7.4280 C.ar    
  26 C26            3.3908     0.5610    -6.2966 C.ar    
  27 C27            2.3653    -0.1529    -5.7054 C.ar    
  28 F28            2.2304    -3.0513    -7.9217 F       
  29 F29            1.7548     0.3281    -4.6003 F       
  30 H30            1.0243    -1.6597     0.7559 H       
  31 H31            0.6791    -1.7082    -0.9894 H       
  32 H32           -0.4383     1.6361     1.2617 H       
  33 H33            0.3801     0.2684     2.0538 H       
  34 H34            1.6267     2.1472    -0.0043 H       
  35 H35            3.7101     0.9233     0.4927 H       
  36 H36            2.8347    -0.1334     1.6281 H       
  37 H37            3.0847    -1.2570    -0.5542 H       
  38 H38            2.3038     0.1208    -1.3683 H       
  39 H39           -1.5598     0.1296     2.1778 H       
  40 H40           -3.8259    -0.8095     2.3516 H       
  41 H41           -3.6840    -2.2031    -1.5565 H       
  42 H42           -0.6609    -0.6449    -2.4706 H       
  43 H43           -1.6246    -4.5017    -4.7667 H       
  44 H44            2.9581     2.7685     1.9403 H       
  45 H45            1.3482     3.1120     2.1769 H       
  46 H46            4.1219    -1.5170    -8.8559 H       
  47 H47            4.8143     0.6348    -7.8883 H       
  48 H48            3.7007     1.5065    -5.8768 H       
@<TRIPOS>BOND
   1    1    2 1
   2    1    6 1
   3    1   30 1
   4    1   31 1
   5    2    3 1
   6    2    7 1
   7    3    4 1
   8    3   32 1
   9    3   33 1
  10    4    5 1
  11    4   22 1
  12    4   34 1
  13    5    6 1
  14    5   35 1
  15    5   36 1
  16    6   37 1
  17    6   38 1
  18    7    8 ar
  19    7   12 ar
  20    8    9 ar
  21    8   39 1
  22    9   10 ar
  23    9   40 1
  24   10   11 ar
  25   11   12 ar
  26   11   41 1
  27   12   13 1
  28   13   14 am
  29   13   42 1
  30   14   15 1
  31   14   16 2
  32   15   17 2
  33   15   20 1
  34   17   18 1
  35   17   43 1
  36   18   19 1
  37   19   20 2
  38   19   21 1
  39   21   23 ar
  40   21   27 ar
  41   22   44 1
  42   22   45 1
  43   23   24 ar
  44   23   28 1
  45   24   25 ar
  46   24   46 1
  47   25   26 ar
  48   25   47 1
  49   26   27 ar
  50   26   48 1
  51   27   29 1

#	End of record

