#	Name: ASD01120116
#	Creating user name:	WinNT
#	Creation time:	15. 06. 2019 18:59

#	Modifying user name:	WinNT
#	Modification time:	15. 06. 2019 18:59

#	Program:	/corina/corina34_cracker 3.40 0067  02.08.2006

@<TRIPOS>MOLECULE
ASD01120116
  33   35    0    0    0
SMALL
NO_CHARGES


@<TRIPOS>ATOM
   1 C1            -0.0116     1.3835     0.1014 C.ar    
   2 C2             0.0678     0.1557    -0.5296 C.ar    
   3 C3             1.2750    -0.5217    -0.5782 C.ar    
   4 C4             2.4077     0.0373     0.0100 C.ar    
   5 C5             2.3203     1.2697     0.6414 C.ar    
   6 C6             1.1119     1.9390     0.6854 C.ar    
   7 N7             3.6305    -0.6430    -0.0355 N.pl3   
   8 C8             4.8150     0.0677    -0.1476 C.2     
   9 N9             6.0059    -0.4436    -0.0800 N.2     
  10 C10            7.0274     0.3923    -0.2100 C.2     
  11 C11            6.6970     1.6816    -0.3979 C.2     
  12 S12            4.9392     1.8044    -0.4116 S.3     
  13 C13            8.4374    -0.0641    -0.1514 C.ar    
  14 C14            8.7288    -1.4174     0.0462 C.ar    
  15 C15           10.0469    -1.8373     0.1000 C.ar    
  16 C16           11.0746    -0.9167    -0.0419 C.ar    
  17 C17           10.7861     0.4273    -0.2382 C.ar    
  18 C18            9.4754     0.8535    -0.2988 C.ar    
  19 O19            1.3545    -1.7295    -1.1981 O.3     
  20 O20           12.3678    -1.3314     0.0117 O.3     
  21 O21            7.7208    -2.3179     0.1855 O.3     
  22 H22           -0.9528     1.9122     0.1343 H       
  23 H23           -0.8118    -0.2754    -0.9845 H       
  24 H24            3.1962     1.7056     1.0987 H       
  25 H25            1.0450     2.8982     1.1771 H       
  26 H26            3.6486    -1.6117     0.0114 H       
  27 H27            7.3897     2.5008    -0.5226 H       
  28 H28           10.2749    -2.8818     0.2528 H       
  29 H29           11.5899     1.1402    -0.3481 H       
  30 H30            9.2541     1.8994    -0.4519 H       
  31 H31            1.5732    -1.6753    -2.1385 H       
  32 H32           12.7369    -1.5803    -0.8467 H       
  33 H33            7.4233    -2.7074    -0.6482 H       
@<TRIPOS>BOND
   1    1    2 ar
   2    1    6 ar
   3    1   22 1
   4    2    3 ar
   5    2   23 1
   6    3    4 ar
   7    3   19 1
   8    4    5 ar
   9    4    7 1
  10    5    6 ar
  11    5   24 1
  12    6   25 1
  13    7    8 1
  14    7   26 1
  15    8    9 2
  16    8   12 1
  17    9   10 1
  18   10   11 2
  19   10   13 1
  20   11   12 1
  21   11   27 1
  22   13   14 ar
  23   13   18 ar
  24   14   15 ar
  25   14   21 1
  26   15   16 ar
  27   15   28 1
  28   16   17 ar
  29   16   20 1
  30   17   18 ar
  31   17   29 1
  32   18   30 1
  33   19   31 1
  34   20   32 1
  35   21   33 1

#	End of record

