#	Name: ASD03092972
#	Creating user name:	WinNT
#	Creation time:	15. 06. 2019 20:33

#	Modifying user name:	WinNT
#	Modification time:	15. 06. 2019 20:33

#	Program:	/corina/corina34_cracker 3.40 0067  02.08.2006

@<TRIPOS>MOLECULE
ASD03092972
  45   48    0    0    0
SMALL
NO_CHARGES


@<TRIPOS>ATOM
   1 C1            -0.0187     1.5258     0.0104 C.3     
   2 C2             0.0021    -0.0041     0.0020 C.3     
   3 C3            -1.2387    -0.6776    -0.5878 C.3     
   4 C4             1.3513    -0.6911    -0.2180 C.3     
   5 H5             1.3553    -1.6231    -0.7832 H       
   6 C6             0.7014    -0.7075     1.1670 C.3     
   7 H7             1.1466    -0.0804     1.9393 H       
   8 C8             0.1156    -2.0110     1.6453 C.ar    
   9 C9             0.0219    -3.0853     0.7804 C.ar    
  10 C10           -0.5154    -4.2810     1.2192 C.ar    
  11 C11           -0.9585    -4.4026     2.5230 C.ar    
  12 C12           -0.8639    -3.3286     3.3881 C.ar    
  13 C13           -0.3227    -2.1342     2.9505 C.ar    
  14 S14           -1.6444    -5.9263     3.0819 S.o2    
  15 N15           -0.3964    -6.8351     3.6812 N.am    
  16 O16           -2.4775    -5.6094     4.1886 O.2     
  17 O17           -2.1141    -6.6035     1.9243 O.2     
  18 C18            2.5581     0.1909    -0.4104 C.2     
  19 N19            3.0181     1.0590     0.4415 N.2     
  20 O20            4.0019     1.6111    -0.0039 O.3     
  21 C21            4.2748     1.1314    -1.2274 C.2     
  22 N22            3.3555     0.2181    -1.4894 N.2     
  23 C23            5.3878     1.5400    -2.1068 C.ar    
  24 C24            5.5415     0.9509    -3.3657 C.ar    
  25 F25            4.6709     0.0051    -3.7813 F       
  26 C26            6.5856     1.3387    -4.1840 C.ar    
  27 C27            7.4782     2.3069    -3.7615 C.ar    
  28 C28            7.3342     2.8956    -2.5162 C.ar    
  29 F29            8.2112     3.8403    -2.1117 F       
  30 C30            6.2905     2.5222    -1.6876 C.ar    
  31 F31            6.1474     3.1009    -0.4752 F       
  32 H32            1.0039     1.9031     0.0027 H       
  33 H33           -0.5459     1.8868    -0.8726 H       
  34 H34           -0.5289     1.8773     0.9072 H       
  35 H35           -1.6281    -0.0702    -1.4047 H       
  36 H36           -0.9716    -1.6650    -0.9644 H       
  37 H37           -2.0001    -0.7775     0.1857 H       
  38 H38            0.3681    -2.9904    -0.2382 H       
  39 H39           -0.5893    -5.1201     0.5433 H       
  40 H40           -1.2104    -3.4234     4.4066 H       
  41 H41           -0.2453    -1.2962     3.6275 H       
  42 H42            0.5076    -6.4836     3.6719 H       
  43 H43           -0.5695    -7.7189     4.0415 H       
  44 H44            6.7051     0.8838    -5.1563 H       
  45 H45            8.2919     2.6053    -4.4059 H       
@<TRIPOS>BOND
   1    1    2 1
   2    1   32 1
   3    1   33 1
   4    1   34 1
   5    2    6 1
   6    2    3 1
   7    2    4 1
   8    3   35 1
   9    3   36 1
  10    3   37 1
  11    4    5 1
  12    4    6 1
  13    4   18 1
  14    6    7 1
  15    6    8 1
  16    8   13 ar
  17    8    9 ar
  18    9   10 ar
  19    9   38 1
  20   10   11 ar
  21   10   39 1
  22   11   12 ar
  23   11   14 1
  24   12   13 ar
  25   12   40 1
  26   13   41 1
  27   14   15 am
  28   14   16 2
  29   14   17 2
  30   15   42 1
  31   15   43 1
  32   18   22 1
  33   18   19 2
  34   19   20 1
  35   20   21 1
  36   21   22 2
  37   21   23 1
  38   23   30 ar
  39   23   24 ar
  40   24   25 1
  41   24   26 ar
  42   26   27 ar
  43   26   44 1
  44   27   28 ar
  45   27   45 1
  46   28   29 1
  47   28   30 ar
  48   30   31 1

#	End of record

