#	Name: ASD06660137
#	Creating user name:	WinNT
#	Creation time:	15. 06. 2019 21:08

#	Modifying user name:	WinNT
#	Modification time:	15. 06. 2019 21:08

#	Program:	/corina/corina34_cracker 3.40 0067  02.08.2006

@<TRIPOS>MOLECULE
ASD06660137
  84   88    0    0    0
SMALL
NO_CHARGES


@<TRIPOS>ATOM
   1 C1            -0.5557     1.5652     1.0927 C.2     
   2 C2            -0.3753     0.1318     0.6640 C.3     
   3 C3            -1.3783    -0.1995    -0.4429 C.3     
   4 O4             0.3602     2.3465     0.9892 O.2     
   5 O5            -1.7354     1.9753     1.5844 O.3     
   6 C6            -1.2973    -1.6681    -0.7711 C.ar    
   7 C7            -2.0647    -2.5761    -0.0648 C.ar    
   8 C8            -1.9929    -3.9227    -0.3630 C.ar    
   9 C9            -1.1486    -4.3646    -1.3736 C.ar    
  10 C10           -0.3790    -3.4498    -2.0810 C.ar    
  11 C11           -0.4599    -2.1040    -1.7815 C.ar    
  12 N12           -1.0732    -5.7258    -1.6774 N.3     
  13 C13           -0.1246    -5.9690    -2.7718 C.3     
  14 C14           -0.1756    -7.4446    -3.1743 C.3     
  15 C15            0.1803    -8.3115    -1.9634 C.3     
  16 C16           -0.7927    -8.0039    -0.8218 C.3     
  17 C17           -0.7238    -6.5121    -0.4874 C.3     
  18 C18            0.0719    -9.7897    -2.3433 C.3     
  19 N19            0.5266   -10.6165    -1.2226 N.pl3   
  20 C20            0.5198   -12.0023    -1.3336 C.ar    
  21 C21            0.0804   -12.5958    -2.5100 C.ar    
  22 C22            0.0793   -13.9816    -2.6063 C.ar    
  23 C23            0.5221   -14.7229    -1.5108 C.ar    
  24 C24            0.9433   -14.0629    -0.3769 C.ar    
  25 N25            0.9376   -12.7436    -0.3181 N.ar    
  26 O26           -0.3430   -14.5994    -3.7389 O.3     
  27 C27           -0.3099   -16.0280    -3.7495 C.3     
  28 C28            2.0127    -0.1889     1.0268 C.2     
  29 C29            3.3966    -0.2902     0.5219 C.ar    
  30 C30            3.9955    -1.5431     0.3669 C.ar    
  31 C31            5.2861    -1.6338    -0.1047 C.ar    
  32 C32            5.9932    -0.4805    -0.4265 C.ar    
  33 C33            5.4007     0.7678    -0.2732 C.ar    
  34 C34            4.1081     0.8659     0.1926 C.ar    
  35 O35            1.7982    -0.2218     2.2231 O.2     
  36 N36            0.9874    -0.0599     0.1616 N.am    
  37 C37            3.4644     2.2191     0.3522 C.3     
  38 C38            8.0092    -1.7209    -1.1058 C.2     
  39 N39            9.1918    -1.4059    -1.5583 N.2     
  40 C40            9.2873    -0.0718    -1.6630 C.2     
  41 C41            8.1207     0.4664    -1.2608 C.2     
  42 N42            7.3038    -0.5765    -0.9053 N.pl3   
  43 C43            3.2302    -2.7935     0.7159 C.3     
  44 C44            2.4082    -3.2427    -0.4938 C.3     
  45 H45           -0.5443    -0.5264     1.5163 H       
  46 H46           -2.3858     0.0421    -0.1045 H       
  47 H47           -1.1438     0.3850    -1.3325 H       
  48 H48           -1.8031     2.9038     1.8460 H       
  49 H49           -2.7208    -2.2319     0.7210 H       
  50 H50           -2.5923    -4.6314     0.1892 H       
  51 H51            0.2785    -3.7901    -2.8674 H       
  52 H52            0.1346    -1.3917    -2.3343 H       
  53 H53           -0.3915    -5.3495    -3.6280 H       
  54 H54            0.8832    -5.7172    -2.4416 H       
  55 H55           -1.1797    -7.6937    -3.5177 H       
  56 H56            0.5398    -7.6280    -3.9760 H       
  57 H57            1.1986    -8.0904    -1.6437 H       
  58 H58           -1.8064    -8.2618    -1.1282 H       
  59 H59           -0.5182    -8.5869     0.0573 H       
  60 H60            0.2868    -6.2578    -0.1679 H       
  61 H61           -1.4258    -6.2871     0.3155 H       
  62 H62           -0.9658   -10.0302    -2.5746 H       
  63 H63            0.6939    -9.9870    -3.2163 H       
  64 H64            0.8325   -10.1970    -0.4033 H       
  65 H65           -0.2557   -11.9888    -3.3376 H       
  66 H66            0.5343   -15.8021    -1.5508 H       
  67 H67            1.2871   -14.6323     0.4740 H       
  68 H68           -0.6724   -16.3927    -4.7106 H       
  69 H69            0.7137   -16.3689    -3.5942 H       
  70 H70           -0.9458   -16.4121    -2.9518 H       
  71 H71            5.7498    -2.6018    -0.2244 H       
  72 H72            5.9531     1.6614    -0.5235 H       
  73 H73            1.1518    -0.0940    -0.7937 H       
  74 H74            3.6645     2.6009     1.3533 H       
  75 H75            3.8750     2.9063    -0.3876 H       
  76 H76            2.3880     2.1288     0.2062 H       
  77 H77            7.6495    -2.7231    -0.9253 H       
  78 H78           10.1511     0.4759    -2.0097 H       
  79 H79            7.8752     1.5175    -1.2250 H       
  80 H80            3.9297    -3.5822     0.9930 H       
  81 H81            2.5628    -2.5892     1.5531 H       
  82 H82            1.7784    -4.0866    -0.2120 H       
  83 H83            1.7808    -2.4185    -0.8331 H       
  84 H84            3.0797    -3.5431    -1.2981 H       
@<TRIPOS>BOND
   1    1    2 1
   2    1    4 2
   3    1    5 1
   4    2    3 1
   5    2   36 1
   6    2   45 1
   7    3    6 1
   8    3   46 1
   9    3   47 1
  10    5   48 1
  11    6    7 ar
  12    6   11 ar
  13    7    8 ar
  14    7   49 1
  15    8    9 ar
  16    8   50 1
  17    9   10 ar
  18    9   12 1
  19   10   11 ar
  20   10   51 1
  21   11   52 1
  22   12   13 1
  23   12   17 1
  24   13   14 1
  25   13   53 1
  26   13   54 1
  27   14   15 1
  28   14   55 1
  29   14   56 1
  30   15   16 1
  31   15   18 1
  32   15   57 1
  33   16   17 1
  34   16   58 1
  35   16   59 1
  36   17   60 1
  37   17   61 1
  38   18   19 1
  39   18   62 1
  40   18   63 1
  41   19   20 1
  42   19   64 1
  43   20   21 ar
  44   20   25 ar
  45   21   22 ar
  46   21   65 1
  47   22   23 ar
  48   22   26 1
  49   23   24 ar
  50   23   66 1
  51   24   25 ar
  52   24   67 1
  53   26   27 1
  54   27   68 1
  55   27   69 1
  56   27   70 1
  57   28   29 1
  58   28   35 2
  59   28   36 am
  60   29   30 ar
  61   29   34 ar
  62   30   31 ar
  63   30   43 1
  64   31   32 ar
  65   31   71 1
  66   32   33 ar
  67   32   42 1
  68   33   34 ar
  69   33   72 1
  70   34   37 1
  71   36   73 1
  72   37   74 1
  73   37   75 1
  74   37   76 1
  75   38   39 2
  76   38   42 1
  77   38   77 1
  78   39   40 1
  79   40   41 2
  80   40   78 1
  81   41   42 1
  82   41   79 1
  83   43   44 1
  84   43   80 1
  85   43   81 1
  86   44   82 1
  87   44   83 1
  88   44   84 1

#	End of record

