#	Name: ASD03331575
#	Creating user name:	WinNT
#	Creation time:	15. 06. 2019 20:39

#	Modifying user name:	WinNT
#	Modification time:	15. 06. 2019 20:39

#	Program:	/corina/corina34_cracker 3.40 0067  02.08.2006

@<TRIPOS>MOLECULE
ASD03331575
  56   58    0    0    0
SMALL
NO_CHARGES


@<TRIPOS>ATOM
   1 C1             0.0015     0.8348     1.4886 C.ar    
   2 C2             0.0029    -0.5781     1.0496 C.2     
   3 N3            -1.0509    -1.4411     1.1399 N.pl3   
   4 C4            -0.6388    -2.6366     0.6557 C.2     
   5 C5             0.6520    -2.4850     0.2496 C.2     
   6 N6             1.0155    -1.2090     0.5035 N.2     
   7 C7             1.4984    -3.5246    -0.3624 C.2     
   8 O8             1.0531    -4.6414    -0.5455 O.2     
   9 N9             2.7660    -3.2377    -0.7192 N.am    
  10 C10            3.6075    -4.2711    -1.3277 C.3     
  11 C11            5.0583    -3.9499    -1.0764 C.2     
  12 C12           -2.3930    -1.1353     1.6454 C.3     
  13 C13           -3.0300    -2.4153     2.1932 C.3     
  14 C14           -3.7094    -3.1806     1.0594 C.3     
  15 O15           -2.7605    -3.5775     0.0763 O.3     
  16 C16           -1.4686    -3.8928     0.6065 C.3     
  17 C17            3.3490    -4.3171    -2.8350 C.3     
  18 C18            3.6236    -2.9397    -3.4418 C.3     
  19 C19            4.2734    -5.3520    -3.4796 C.3     
  20 C20            1.8915    -4.7057    -3.0908 C.3     
  21 O21            5.3845    -2.8252    -0.7608 O.2     
  22 C22            1.2068     1.4936     1.7329 C.ar    
  23 C23            1.1988     2.8114     2.1416 C.ar    
  24 C24           -0.0010     3.4794     2.3093 C.ar    
  25 C25           -1.1996     2.8317     2.0687 C.ar    
  26 C26           -1.2049     1.5156     1.6544 C.ar    
  27 N27            5.9932    -4.9124    -1.2024 N.am    
  28 C28            7.3890    -4.6270    -0.8610 C.3     
  29 H29            3.1212    -2.3469    -0.5732 H       
  30 H30            3.3684    -5.2395    -0.8883 H       
  31 H31           -2.3219    -0.3945     2.4418 H       
  32 H32           -3.0063    -0.7416     0.8349 H       
  33 H33           -2.2582    -3.0411     2.6413 H       
  34 H34           -3.7702    -2.1564     2.9502 H       
  35 H35           -4.1960    -4.0670     1.4663 H       
  36 H36           -4.4605    -2.5415     0.5952 H       
  37 H37           -0.9807    -4.6274    -0.0342 H       
  38 H38           -1.5763    -4.2984     1.6125 H       
  39 H39            4.6620    -2.6629    -3.2596 H       
  40 H40            3.4395    -2.9725    -4.5157 H       
  41 H41            2.9651    -2.2025    -2.9826 H       
  42 H42            4.0806    -6.3325    -3.0444 H       
  43 H43            4.0864    -5.3877    -4.5528 H       
  44 H44            5.3118    -5.0729    -3.3008 H       
  45 H45            1.2329    -3.9685    -2.6316 H       
  46 H46            1.7073    -4.7385    -4.1646 H       
  47 H47            1.6958    -5.6870    -2.6585 H       
  48 H48            2.1441     0.9731     1.6027 H       
  49 H49            2.1312     3.3224     2.3314 H       
  50 H50           -0.0020     4.5108     2.6297 H       
  51 H51           -2.1329     3.3587     2.2013 H       
  52 H52           -2.1412     1.0111     1.4669 H       
  53 H53            5.7419    -5.7942    -1.5190 H       
  54 H54            7.9931    -5.5192    -1.0255 H       
  55 H55            7.7585    -3.8170    -1.4900 H       
  56 H56            7.4540    -4.3322     0.1863 H       
@<TRIPOS>BOND
   1    1    2 1
   2    1   22 ar
   3    1   26 ar
   4    2    3 1
   5    2    6 2
   6    3    4 1
   7    3   12 1
   8    4    5 2
   9    4   16 1
  10    5    6 1
  11    5    7 1
  12    7    8 2
  13    7    9 am
  14    9   10 1
  15    9   29 1
  16   10   11 1
  17   10   17 1
  18   10   30 1
  19   11   21 2
  20   11   27 am
  21   12   13 1
  22   12   31 1
  23   12   32 1
  24   13   14 1
  25   13   33 1
  26   13   34 1
  27   14   15 1
  28   14   35 1
  29   14   36 1
  30   15   16 1
  31   16   37 1
  32   16   38 1
  33   17   18 1
  34   17   19 1
  35   17   20 1
  36   18   39 1
  37   18   40 1
  38   18   41 1
  39   19   42 1
  40   19   43 1
  41   19   44 1
  42   20   45 1
  43   20   46 1
  44   20   47 1
  45   22   23 ar
  46   22   48 1
  47   23   24 ar
  48   23   49 1
  49   24   25 ar
  50   24   50 1
  51   25   26 ar
  52   25   51 1
  53   26   52 1
  54   27   28 1
  55   27   53 1
  56   28   54 1
  57   28   55 1
  58   28   56 1

#	End of record

