#	Name: ASD05380057
#	Creating user name:	WinNT
#	Creation time:	15. 06. 2019 20:59

#	Modifying user name:	WinNT
#	Modification time:	15. 06. 2019 20:59

#	Program:	/corina/corina34_cracker 3.40 0067  02.08.2006

@<TRIPOS>MOLECULE
ASD05380057
  49   53    0    0    0
SMALL
NO_CHARGES


@<TRIPOS>ATOM
   1 C1            -0.1422     1.0825     0.3773 C.ar    
   2 C2            -0.0389    -0.2478    -0.0876 C.ar    
   3 C3             1.0081     1.8048     0.6871 C.ar    
   4 C4             2.2430     1.2123     0.5366 C.ar    
   5 C5             2.3482    -0.0945     0.0795 C.ar    
   6 C6             1.2237    -0.8260    -0.2313 C.ar    
   7 N7            -1.1725    -0.9317    -0.3831 N.2     
   8 C8            -2.3465    -0.3938    -0.2490 C.2     
   9 N9            -2.5399     0.8791     0.1909 N.am    
  10 C10           -1.4860     1.6603     0.5240 C.2     
  11 C11           -3.8415     1.3833     0.3065 C.ar    
  12 C12           -4.6871     0.9054     1.2994 C.ar    
  13 C13           -4.2870     2.3656    -0.5674 C.ar    
  14 C14           -5.5723     2.8611    -0.4506 C.ar    
  15 C15           -6.4137     2.3788     0.5365 C.ar    
  16 C16           -5.9701     1.4040     1.4113 C.ar    
  17 C17           -3.5565    -1.2212    -0.5987 C.3     
  18 N18           -4.0976    -0.7756    -1.8851 N.pl3   
  19 C19           -5.4333    -0.9818    -2.1828 C.ar    
  20 N20           -6.2389    -1.5825    -1.3129 N.ar    
  21 O21           -1.6443     2.8007     0.9193 O.2     
  22 C22           -5.9706    -0.5558    -3.4092 C.ar    
  23 C23           -7.3338    -0.7931    -3.6545 C.ar    
  24 N24           -8.0598    -1.4067    -2.7259 N.ar    
  25 C25           -7.5146    -1.7835    -1.5884 C.ar    
  26 N26           -5.4725     0.0744    -4.5001 N.2     
  27 C27           -6.4199     0.2350    -5.3778 C.2     
  28 N28           -7.5876    -0.2837    -4.9028 N.pl3   
  29 C29           -3.1558    -2.6946    -0.6969 C.3     
  30 C30            0.9026     3.2241     1.1829 C.3     
  31 Cl31          -6.1310     4.0895    -1.5426 Cl      
  32 H32            3.1368     1.7694     0.7758 H       
  33 H33            3.3242    -0.5432    -0.0329 H       
  34 H34            1.3180    -1.8417    -0.5860 H       
  35 H35           -4.3416     0.1441     1.9831 H       
  36 H36           -3.6301     2.7425    -1.3373 H       
  37 H37           -7.4173     2.7675     0.6267 H       
  38 H38           -6.6290     1.0295     2.1807 H       
  39 H39           -4.3145    -1.1017     0.1753 H       
  40 H40           -3.5197    -0.3359    -2.5283 H       
  41 H41           -8.1338    -2.2758    -0.8531 H       
  42 H42           -6.2987     0.7092    -6.3405 H       
  43 H43           -8.4413    -0.2918    -5.3633 H       
  44 H44           -2.3515    -2.8047    -1.4244 H       
  45 H45           -2.8146    -3.0440     0.2775 H       
  46 H46           -4.0157    -3.2846    -1.0139 H       
  47 H47            0.7208     3.2210     2.2576 H       
  48 H48            1.8327     3.7522     0.9732 H       
  49 H49            0.0779     3.7255     0.6763 H       
@<TRIPOS>BOND
   1    1    2 ar
   2    1    3 ar
   3    1   10 1
   4    2    7 1
   5    2    6 ar
   6    3    4 ar
   7    3   30 1
   8    4    5 ar
   9    4   32 1
  10    5    6 ar
  11    5   33 1
  12    6   34 1
  13    7    8 2
  14    8    9 1
  15    8   17 1
  16    9   10 am
  17    9   11 1
  18   10   21 2
  19   11   12 ar
  20   11   13 ar
  21   12   16 ar
  22   12   35 1
  23   13   14 ar
  24   13   36 1
  25   14   15 ar
  26   14   31 1
  27   15   16 ar
  28   15   37 1
  29   16   38 1
  30   17   18 1
  31   17   29 1
  32   17   39 1
  33   18   19 1
  34   18   40 1
  35   19   20 ar
  36   19   22 ar
  37   20   25 ar
  38   22   23 ar
  39   22   26 1
  40   23   24 ar
  41   23   28 1
  42   24   25 ar
  43   25   41 1
  44   26   27 2
  45   27   28 1
  46   27   42 1
  47   28   43 1
  48   29   44 1
  49   29   45 1
  50   29   46 1
  51   30   47 1
  52   30   48 1
  53   30   49 1

#	End of record

