#	Name: ASD01120162
#	Creating user name:	WinNT
#	Creation time:	15. 06. 2019 18:59

#	Modifying user name:	WinNT
#	Modification time:	15. 06. 2019 18:59

#	Program:	/corina/corina34_cracker 3.40 0067  02.08.2006

@<TRIPOS>MOLECULE
ASD01120162
  30   31    0    0    0
SMALL
NO_CHARGES


@<TRIPOS>ATOM
   1 C1            -0.1826     1.3447     0.2388 C.ar    
   2 C2            -0.1255    -0.0431     0.2295 C.ar    
   3 C3             1.0662    -0.6952     0.0039 C.ar    
   4 C4             2.2266     0.0408    -0.2179 C.ar    
   5 C5             2.1660     1.4485    -0.2084 C.ar    
   6 C6             0.9415     2.0881     0.0240 C.ar    
   7 N7             3.5317    -0.3128    -0.4663 N.pl3   
   8 C8             4.2843     0.8371    -0.6116 C.2     
   9 C9             3.4769     1.9201    -0.4592 C.2     
  10 C10            3.9013     3.3638    -0.5423 C.3     
  11 C11            3.9010     3.8120    -2.0052 C.3     
  12 C12            4.3254     5.2556    -2.0883 C.2     
  13 O13            4.3985     5.8660    -3.2815 O.3     
  14 O14            4.5999     5.8636    -1.0809 O.2     
  15 C15            5.7265     0.8819    -0.8868 C.2     
  16 O16            6.2916     1.9528    -0.9957 O.2     
  17 O17            6.4237    -0.2648    -1.0186 O.3     
  18 N18            0.8670     3.5664     0.0355 N.pl3   
  19 O19            0.2437     4.1379     0.9121 O.2     
  20 O20            1.4289     4.2113    -0.8316 O.2     
  21 H21           -1.1262     1.8401     0.4133 H       
  22 H22           -1.0245    -0.6164     0.4013 H       
  23 H23            1.1005    -1.7747    -0.0007 H       
  24 H24            3.8688    -1.2201    -0.5289 H       
  25 H25            3.2055     3.9804     0.0267 H       
  26 H26            4.9042     3.4720    -0.1293 H       
  27 H27            4.5968     3.1954    -2.5742 H       
  28 H28            2.8981     3.7037    -2.4182 H       
  29 H29            4.6755     6.7925    -3.2844 H       
  30 H30            7.3703    -0.1847    -1.1992 H       
@<TRIPOS>BOND
   1    1    2 ar
   2    1    6 ar
   3    1   21 1
   4    2    3 ar
   5    2   22 1
   6    3    4 ar
   7    3   23 1
   8    4    5 ar
   9    4    7 1
  10    5    6 ar
  11    5    9 1
  12    6   18 1
  13    7    8 1
  14    7   24 1
  15    8    9 2
  16    8   15 1
  17    9   10 1
  18   10   11 1
  19   10   25 1
  20   10   26 1
  21   11   12 1
  22   11   27 1
  23   11   28 1
  24   12   13 1
  25   12   14 2
  26   13   29 1
  27   15   16 2
  28   15   17 1
  29   17   30 1
  30   18   19 2
  31   18   20 2

#	End of record

