#	Name: ASD01880145
#	Creating user name:	WinNT
#	Creation time:	15. 06. 2019 19:40

#	Modifying user name:	WinNT
#	Modification time:	15. 06. 2019 19:40

#	Program:	/corina/corina34_cracker 3.40 0067  02.08.2006

@<TRIPOS>MOLECULE
ASD01880145
  50   54    0    0    0
SMALL
NO_CHARGES


@<TRIPOS>ATOM
   1 C1            -0.0129     1.3622     0.0067 C.ar    
   2 C2            -0.0012    -0.0286     0.0042 C.ar    
   3 C3            -1.1977    -0.7354     0.0139 C.ar    
   4 C4            -2.3956    -0.0729     0.0264 C.ar    
   5 C5            -2.4237     1.3239     0.0296 C.ar    
   6 C6            -1.2122     2.0395     0.0251 C.ar    
   7 C7            -3.8085    -0.6063     0.0390 C.3     
   8 C8            -4.7307     0.6205     0.0505 C.3     
   9 C9            -3.8077     1.8146     0.0441 C.2     
  10 Cl10          -1.2290     3.7754     0.0290 Cl      
  11 Cl11           1.4826     2.2436    -0.0060 Cl      
  12 O12           -4.1498     2.9784     0.0498 O.2     
  13 C13            2.5161    -2.6869    -0.0245 C.ar    
  14 C14            1.1184    -2.1238    -0.0102 C.3     
  15 O15            1.1800    -0.6961    -0.0083 O.3     
  16 C16            3.1665    -2.9465     1.1686 C.ar    
  17 C17            4.4465    -3.4617     1.1621 C.ar    
  18 C18            5.0845    -3.7212    -0.0508 C.ar    
  19 C19            4.4233    -3.4578    -1.2504 C.ar    
  20 C20            3.1415    -2.9475    -1.2307 C.ar    
  21 C21            6.4577    -4.2734    -0.0648 C.2     
  22 N22            7.1938    -4.5673     0.9861 N.2     
  23 N23            8.3358    -5.0272     0.6208 N.2     
  24 N24            8.4156    -5.0619    -0.6652 N.2     
  25 N25            7.1931    -4.5777    -1.1628 N.pl3   
  26 C26           -5.6037     0.6289    -1.1779 C.ar    
  27 C27           -5.5927     0.6238     1.3146 C.3     
  28 C28           -6.9728     0.4838    -1.0538 C.ar    
  29 C29           -7.7736     0.4914    -2.1806 C.ar    
  30 C30           -7.2052     0.6446    -3.4314 C.ar    
  31 C31           -5.8362     0.7906    -3.5554 C.ar    
  32 C32           -5.0359     0.7873    -2.4282 C.ar    
  33 H33           -1.1823    -1.8153     0.0111 H       
  34 H34           -3.9912    -1.2039    -0.8541 H       
  35 H35           -3.9739    -1.2076     0.9330 H       
  36 H36            0.5809    -2.4631    -0.8957 H       
  37 H37            0.5979    -2.4662     0.8842 H       
  38 H38            2.6714    -2.7451     2.1071 H       
  39 H39            4.9534    -3.6632     2.0942 H       
  40 H40            4.9122    -3.6567    -2.1927 H       
  41 H41            2.6283    -2.7435    -2.1588 H       
  42 H42            6.9337    -4.4769    -2.0920 H       
  43 H43           -4.9487     0.6541     2.1934 H       
  44 H44           -6.2419     1.4994     1.3094 H       
  45 H45           -6.2017    -0.2799     1.3414 H       
  46 H46           -7.4168     0.3641    -0.0766 H       
  47 H47           -8.8431     0.3774    -2.0838 H       
  48 H48           -7.8308     0.6499    -4.3118 H       
  49 H49           -5.3922     0.9100    -4.5326 H       
  50 H50           -3.9663     0.9014    -2.5251 H       
@<TRIPOS>BOND
   1    1    2 ar
   2    1   11 1
   3    1    6 ar
   4    2    3 ar
   5    2   15 1
   6    3    4 ar
   7    3   33 1
   8    4    5 ar
   9    4    7 1
  10    5    6 ar
  11    5    9 1
  12    6   10 1
  13    7    8 1
  14    7   34 1
  15    7   35 1
  16    8    9 1
  17    8   26 1
  18    8   27 1
  19    9   12 2
  20   13   14 1
  21   13   16 ar
  22   13   20 ar
  23   14   15 1
  24   14   36 1
  25   14   37 1
  26   16   17 ar
  27   16   38 1
  28   17   18 ar
  29   17   39 1
  30   18   19 ar
  31   18   21 1
  32   19   20 ar
  33   19   40 1
  34   20   41 1
  35   21   22 2
  36   21   25 1
  37   22   23 1
  38   23   24 2
  39   24   25 1
  40   25   42 1
  41   26   28 ar
  42   26   32 ar
  43   27   43 1
  44   27   44 1
  45   27   45 1
  46   28   29 ar
  47   28   46 1
  48   29   30 ar
  49   29   47 1
  50   30   31 ar
  51   30   48 1
  52   31   32 ar
  53   31   49 1
  54   32   50 1

#	End of record

