#	Name: ASD03082259
#	Creating user name:	WinNT
#	Creation time:	15. 06. 2019 20:27

#	Modifying user name:	WinNT
#	Modification time:	15. 06. 2019 20:27

#	Program:	/corina/corina34_cracker 3.40 0067  02.08.2006

@<TRIPOS>MOLECULE
ASD03082259
  49   51    0    0    0
SMALL
NO_CHARGES


@<TRIPOS>ATOM
   1 N1            -0.1222     1.4374     0.0323 N.pl3   
   2 N2            -0.1016     0.0334     0.0093 N.2     
   3 C3             1.1604    -0.3308     0.0107 C.2     
   4 N4             1.9278     0.7598     0.0331 N.2     
   5 C5             1.1689     1.8373     0.0464 C.2     
   6 N6             1.6239    -1.6476    -0.0083 N.pl3   
   7 C7             2.9949    -1.9054    -0.1240 C.ar    
   8 C8             3.5226    -3.0925     0.3676 C.ar    
   9 C9             4.8750    -3.3462     0.2526 C.ar    
  10 C10            5.7067    -2.4156    -0.3532 C.ar    
  11 C11            5.1807    -1.2301    -0.8442 C.ar    
  12 C12            3.8272    -0.9771    -0.7353 C.ar    
  13 C13            5.4478    -4.6341     0.7858 C.3     
  14 F14            4.4228    -5.4033     1.3469 F       
  15 F15            6.0466    -5.3460    -0.2591 F       
  16 F16            6.4057    -4.3485     1.7646 F       
  17 C17            3.0248     4.9700     0.9889 C.ar    
  18 C18            2.6080     3.6533     1.0011 C.ar    
  19 C19            1.6461     3.2378     0.0722 C.ar    
  20 C20            1.1492     4.1833    -0.8309 C.ar    
  21 C21            1.6223     5.4784    -0.7721 C.ar    
  22 N22            2.5294     5.8289     0.1190 N.ar    
  23 C23           -1.3078     2.2979     0.0341 C.3     
  24 C24           -1.8015     2.4699     1.4476 C.2     
  25 N25           -2.8889     3.2269     1.6941 N.am    
  26 O26           -1.2202     1.9270     2.3632 O.2     
  27 C27           -3.3688     3.3941     3.0682 C.3     
  28 C28           -3.5911     3.8826     0.5881 C.3     
  29 Cl29           3.2668     2.5308     2.1498 Cl      
  30 O30            7.0387    -2.6659    -0.4652 O.3     
  31 C31            7.8360    -1.6642    -1.1000 C.3     
  32 H32            0.9959    -2.3838     0.0587 H       
  33 H33            2.8754    -3.8167     0.8398 H       
  34 H34            5.8289    -0.5061    -1.3154 H       
  35 H35            3.4171    -0.0557    -1.1214 H       
  36 H36            3.7630     5.3018     1.7041 H       
  37 H37            0.4067     3.9039    -1.5637 H       
  38 H38            1.2447     6.2152    -1.4656 H       
  39 H39           -1.0504     3.2720    -0.3819 H       
  40 H40           -2.0903     1.8398    -0.5708 H       
  41 H41           -2.8875     4.2624     3.5180 H       
  42 H42           -4.4489     3.5407     3.0605 H       
  43 H43           -3.1272     2.5035     3.6483 H       
  44 H44           -3.0921     3.6443    -0.3512 H       
  45 H45           -4.6217     3.5297     0.5519 H       
  46 H46           -3.5818     4.9619     0.7408 H       
  47 H47            7.4806    -1.5086    -2.1186 H       
  48 H48            7.7592    -0.7311    -0.5418 H       
  49 H49            8.8762    -1.9889    -1.1237 H       
@<TRIPOS>BOND
   1    1    2 1
   2    1    5 1
   3    1   23 1
   4    2    3 2
   5    3    4 1
   6    3    6 1
   7    4    5 2
   8    5   19 1
   9    6    7 1
  10    6   32 1
  11    7    8 ar
  12    7   12 ar
  13    8    9 ar
  14    8   33 1
  15    9   10 ar
  16    9   13 1
  17   10   11 ar
  18   10   30 1
  19   11   12 ar
  20   11   34 1
  21   12   35 1
  22   13   14 1
  23   13   15 1
  24   13   16 1
  25   17   18 ar
  26   17   22 ar
  27   17   36 1
  28   18   19 ar
  29   18   29 1
  30   19   20 ar
  31   20   21 ar
  32   20   37 1
  33   21   22 ar
  34   21   38 1
  35   23   24 1
  36   23   39 1
  37   23   40 1
  38   24   25 am
  39   24   26 2
  40   25   27 1
  41   25   28 1
  42   27   41 1
  43   27   42 1
  44   27   43 1
  45   28   44 1
  46   28   45 1
  47   28   46 1
  48   30   31 1
  49   31   47 1
  50   31   48 1
  51   31   49 1

#	End of record

