#	Name: ASD00660019
#	Creating user name:	WinNT
#	Creation time:	15. 06. 2019 18:36

#	Modifying user name:	WinNT
#	Modification time:	15. 06. 2019 18:36

#	Program:	/corina/corina34_cracker 3.40 0067  02.08.2006

@<TRIPOS>MOLECULE
ASD00660019
  63   66    0    0    0
SMALL
NO_CHARGES


@<TRIPOS>ATOM
   1 C1             7.0179    -2.2797    -6.1847 C.ar    
   2 C2             6.6468    -3.3670    -5.4041 C.ar    
   3 C3             6.4523    -3.2283    -4.0487 C.ar    
   4 C4             6.6297    -1.9789    -3.4480 C.ar    
   5 C5             7.0074    -0.8745    -4.2458 C.ar    
   6 C6             7.1990    -1.0379    -5.6168 C.ar    
   7 N7             6.4472    -1.8005    -2.1185 N.2     
   8 C8             6.6125    -0.6293    -1.5552 C.2     
   9 N9             6.9767     0.4890    -2.2534 N.am    
  10 C10            7.1860     0.4273    -3.5888 C.2     
  11 C11            7.1343     1.7078    -1.5806 C.ar    
  12 O12            7.5104     1.4146    -4.2227 O.2     
  13 S13            6.3532    -0.4881     0.1818 S.3     
  14 C14            5.7499    -2.1553     0.5461 C.3     
  15 C15            6.8665    -3.1478     0.3487 C.2     
  16 N16            6.5823    -4.4340     0.0632 N.am    
  17 O17            8.0210    -2.7893     0.4466 O.2     
  18 C18            7.6600    -5.4133    -0.1320 C.3     
  19 C19            7.4562    -6.1083    -1.4819 C.3     
  20 C20            6.0477    -6.7044    -1.5367 C.3     
  21 C21            5.0126    -5.5844    -1.4089 C.3     
  22 C22            5.1887    -4.8847    -0.0526 C.3     
  23 C23            5.8555    -7.4182    -2.8499 C.2     
  24 N24            4.6828    -8.0243    -3.1222 N.am    
  25 O25            6.7560    -7.4474    -3.6618 O.2     
  26 C26            5.2636    -2.2163     1.9955 C.3     
  27 C27            4.0406    -1.3121     2.1616 C.3     
  28 C28            3.6211    -1.2868     3.6327 C.3     
  29 C29            2.3981    -0.3826     3.7988 C.3     
  30 C30            8.3960     2.2646    -1.4177 C.ar    
  31 N31            8.5484     3.4107    -0.7851 N.ar    
  32 C32            7.5215     4.0706    -0.2858 C.ar    
  33 C33            6.2349     3.5803    -0.4079 C.ar    
  34 C34            6.0277     2.3814    -1.0707 C.ar    
  35 H35            7.1701    -2.4101    -7.2460 H       
  36 H36            6.5089    -4.3332    -5.8665 H       
  37 H37            6.1635    -4.0810    -3.4520 H       
  38 H38            7.4872    -0.1966    -6.2296 H       
  39 H39            4.9254    -2.3978    -0.1243 H       
  40 H40            8.6231    -4.9029    -0.1255 H       
  41 H41            7.6308    -6.1531     0.6680 H       
  42 H42            7.5757    -5.3826    -2.2864 H       
  43 H43            8.1926    -6.9037    -1.5964 H       
  44 H44            5.9206    -7.4116    -0.7172 H       
  45 H45            5.1551    -4.8636    -2.2141 H       
  46 H46            4.0098    -6.0070    -1.4715 H       
  47 H47            4.9568    -5.5830     0.7516 H       
  48 H48            4.5217    -4.0244     0.0040 H       
  49 H49            3.9626    -8.0009    -2.4728 H       
  50 H50            4.5591    -8.4837    -3.9674 H       
  51 H51            4.9934    -3.2424     2.2451 H       
  52 H52            6.0585    -1.8779     2.6600 H       
  53 H53            4.2891    -0.3016     1.8372 H       
  54 H54            3.2196    -1.6965     1.5562 H       
  55 H55            3.3726    -2.2973     3.9571 H       
  56 H56            4.4420    -0.9024     4.2380 H       
  57 H57            1.5772    -0.7669     3.1935 H       
  58 H58            2.0992    -0.3645     4.8469 H       
  59 H59            2.6466     0.6279     3.4744 H       
  60 H60            9.2611     1.7531    -1.8131 H       
  61 H61            7.6882     5.0070     0.2259 H       
  62 H62            5.4002     4.1277     0.0046 H       
  63 H63            5.0333     1.9747    -1.1809 H       
@<TRIPOS>BOND
   1    1    2 ar
   2    1    6 ar
   3    1   35 1
   4    2    3 ar
   5    2   36 1
   6    3    4 ar
   7    3   37 1
   8    4    5 ar
   9    4    7 1
  10    5    6 ar
  11    5   10 1
  12    6   38 1
  13    7    8 2
  14    8    9 1
  15    8   13 1
  16    9   10 am
  17    9   11 1
  18   10   12 2
  19   11   30 ar
  20   11   34 ar
  21   13   14 1
  22   14   15 1
  23   14   26 1
  24   14   39 1
  25   15   16 am
  26   15   17 2
  27   16   18 1
  28   16   22 1
  29   18   19 1
  30   18   40 1
  31   18   41 1
  32   19   20 1
  33   19   42 1
  34   19   43 1
  35   20   21 1
  36   20   23 1
  37   20   44 1
  38   21   22 1
  39   21   45 1
  40   21   46 1
  41   22   47 1
  42   22   48 1
  43   23   24 am
  44   23   25 2
  45   24   49 1
  46   24   50 1
  47   26   27 1
  48   26   51 1
  49   26   52 1
  50   27   28 1
  51   27   53 1
  52   27   54 1
  53   28   29 1
  54   28   55 1
  55   28   56 1
  56   29   57 1
  57   29   58 1
  58   29   59 1
  59   30   31 ar
  60   30   60 1
  61   31   32 ar
  62   32   33 ar
  63   32   61 1
  64   33   34 ar
  65   33   62 1
  66   34   63 1

#	End of record

