#	Name: ASD01120316
#	Creating user name:	WinNT
#	Creation time:	15. 06. 2019 18:59

#	Modifying user name:	WinNT
#	Modification time:	15. 06. 2019 18:59

#	Program:	/corina/corina34_cracker 3.40 0067  02.08.2006

@<TRIPOS>MOLECULE
ASD01120316
  38   40    0    0    0
SMALL
NO_CHARGES


@<TRIPOS>ATOM
   1 C1            -0.0187     1.5258     0.0104 C.3     
   2 C2             0.0021    -0.0041     0.0020 C.3     
   3 O3             0.6817    -0.4723    -1.1926 O.3     
   4 C4             0.7867    -1.8071    -1.3538 C.2     
   5 O5             0.3227    -2.5587    -0.5184 O.2     
   6 C6             1.4615    -2.3527    -2.5384 C.2     
   7 N7             2.0277    -1.6060    -3.5538 N.pl3   
   8 C8             2.5633    -2.4629    -4.4865 C.ar    
   9 C9             2.3232    -3.7756    -4.0385 C.ar    
  10 C10            1.6347    -3.6749    -2.8095 C.2     
  11 C11            2.7708    -4.8685    -4.8113 C.ar    
  12 C12            3.4413    -4.6327    -6.0022 C.ar    
  13 C13            3.6712    -3.3346    -6.4311 C.ar    
  14 C14            3.2393    -2.2586    -5.6866 C.ar    
  15 N15            3.4952    -0.8810    -6.1639 N.pl3   
  16 O16            4.0867    -0.7000    -7.2131 O.2     
  17 O17            3.1143     0.0716    -5.5073 O.2     
  18 C18            2.5268    -6.2563    -4.3538 C.ar    
  19 C19            2.8575    -6.6312    -3.0510 C.ar    
  20 C20            2.6310    -7.9245    -2.6221 C.ar    
  21 C21            2.0764    -8.8548    -3.4778 C.ar    
  22 C22            1.7405    -8.4926    -4.7849 C.ar    
  23 C23            1.9617    -7.1873    -5.2212 C.ar    
  24 C24            1.1652    -9.4583    -5.6721 C.1     
  25 N25            0.7088   -10.2244    -6.3759 N.1     
  26 H26            1.0039     1.9031     0.0027 H       
  27 H27           -0.5459     1.8868    -0.8726 H       
  28 H28           -0.5289     1.8773     0.9072 H       
  29 H29            0.5293    -0.3651     0.8851 H       
  30 H30           -1.0205    -0.3814     0.0098 H       
  31 H31            2.0444    -0.6373    -3.6010 H       
  32 H32            1.2997    -4.4996    -2.1979 H       
  33 H33            3.7864    -5.4646    -6.5983 H       
  34 H34            4.1951    -3.1646    -7.3600 H       
  35 H35            3.2921    -5.9084    -2.3765 H       
  36 H36            2.8893    -8.2092    -1.6129 H       
  37 H37            1.9021    -9.8646    -3.1366 H       
  38 H38            1.7037    -6.9017    -6.2303 H       
@<TRIPOS>BOND
   1    1    2 1
   2    1   26 1
   3    1   27 1
   4    1   28 1
   5    2    3 1
   6    2   29 1
   7    2   30 1
   8    3    4 1
   9    4    5 2
  10    4    6 1
  11    6    7 1
  12    6   10 2
  13    7    8 1
  14    7   31 1
  15    8    9 ar
  16    8   14 ar
  17    9   10 1
  18    9   11 ar
  19   10   32 1
  20   11   12 ar
  21   11   18 1
  22   12   13 ar
  23   12   33 1
  24   13   14 ar
  25   13   34 1
  26   14   15 1
  27   15   16 2
  28   15   17 2
  29   18   19 ar
  30   18   23 ar
  31   19   20 ar
  32   19   35 1
  33   20   21 ar
  34   20   36 1
  35   21   22 ar
  36   21   37 1
  37   22   23 ar
  38   22   24 1
  39   23   38 1
  40   24   25 3

#	End of record

