#	Name: ASD01916282
#	Creating user name:	WinNT
#	Creation time:	15. 06. 2019 20:07

#	Modifying user name:	WinNT
#	Modification time:	15. 06. 2019 20:07

#	Program:	/corina/corina34_cracker 3.40 0067  02.08.2006

@<TRIPOS>MOLECULE
ASD01916282
  36   38    0    0    0
SMALL
NO_CHARGES


@<TRIPOS>ATOM
   1 C1            -0.3057     1.4518    -0.4717 C.ar    
   2 C2            -0.3712     0.0720    -0.5492 C.ar    
   3 C3             0.7489    -0.6923    -0.2862 C.ar    
   4 C4             1.9508    -0.0719     0.0583 C.ar    
   5 C5             2.0149     1.3198     0.1355 C.ar    
   6 C6             0.8861     2.0769    -0.1296 C.ar    
   7 O7             0.9450     3.4326    -0.0559 O.3     
   8 C8             0.4387     4.0338     1.0528 C.ar    
   9 C9             0.4754     5.4158     1.1814 C.ar    
  10 N10           -0.0125     6.0118     2.2521 N.ar    
  11 C11           -0.5533     5.3328     3.2419 C.ar    
  12 C12           -0.1268     3.2737     2.0685 C.ar    
  13 Cl13          -1.8654    -0.7009    -0.9776 Cl      
  14 C14            3.1515    -0.8865     0.3410 C.2     
  15 N15            3.0868    -2.2306     0.2662 N.am    
  16 O16            4.1972    -0.3441     0.6408 O.2     
  17 C17            4.2421    -2.9942     0.4284 C.ar    
  18 C18            4.1904    -4.3698     0.2354 C.ar    
  19 C19            6.5153    -4.4581     0.7528 C.ar    
  20 C20            6.4942    -3.0855     0.9231 C.ar    
  21 N21            5.3782    -2.4014     0.7595 N.ar    
  22 C22            5.3437    -5.1169     0.3994 C.ar    
  23 F23            7.6632    -5.1499     0.9226 F       
  24 C24           -0.6302     3.9394     3.1918 C.ar    
  25 C25           -1.2191     3.2040     4.2702 C.1     
  26 N26           -1.6863     2.6205     5.1257 N.1     
  27 H27           -1.1833     2.0449    -0.6824 H       
  28 H28            0.6947    -1.7693    -0.3468 H       
  29 H29            2.9423     1.8052     0.4016 H       
  30 H30            0.9103     6.0118     0.3927 H       
  31 H31           -0.9412     5.8589     4.1017 H       
  32 H32           -0.1733     2.1972     1.9950 H       
  33 H33            2.2366    -2.6668     0.0995 H       
  34 H34            3.2623    -4.8493    -0.0386 H       
  35 H35            7.4025    -2.5676     1.1936 H       
  36 H36            5.3335    -6.1873     0.2564 H       
@<TRIPOS>BOND
   1    1    2 ar
   2    1    6 ar
   3    1   27 1
   4    2    3 ar
   5    2   13 1
   6    3    4 ar
   7    3   28 1
   8    4    5 ar
   9    4   14 1
  10    5    6 ar
  11    5   29 1
  12    6    7 1
  13    7    8 1
  14    8    9 ar
  15    8   12 ar
  16    9   10 ar
  17    9   30 1
  18   10   11 ar
  19   11   24 ar
  20   11   31 1
  21   12   24 ar
  22   12   32 1
  23   14   15 am
  24   14   16 2
  25   15   17 1
  26   15   33 1
  27   17   18 ar
  28   17   21 ar
  29   18   22 ar
  30   18   34 1
  31   19   20 ar
  32   19   23 1
  33   19   22 ar
  34   20   21 ar
  35   20   35 1
  36   22   36 1
  37   24   25 1
  38   25   26 3

#	End of record

