#	Name: ASD09530021
#	Creating user name:	WinNT
#	Creation time:	15. 06. 2019 21:22

#	Modifying user name:	WinNT
#	Modification time:	15. 06. 2019 21:22

#	Program:	/corina/corina34_cracker 3.40 0067  02.08.2006

@<TRIPOS>MOLECULE
ASD09530021
  52   54    0    0    0
SMALL
NO_CHARGES


@<TRIPOS>ATOM
   1 C1            -0.3172     1.5809     0.5187 C.ar    
   2 C2            -0.1594     0.2065     0.3500 C.ar    
   3 C3             1.1195    -0.3471     0.3429 C.ar    
   4 C4             2.2221     0.4674     0.5027 C.ar    
   5 C5             2.0595     1.8308     0.6702 C.ar    
   6 C6             0.7925     2.3858     0.6776 C.ar    
   7 C7            -1.3483    -0.6639     0.1792 C.ar    
   8 C8             3.2674     2.7150     0.8447 C.3     
   9 C9             3.7406     3.1910    -0.5045 C.2     
  10 N10            4.8149     3.9999    -0.5950 N.am    
  11 O11            3.1548     2.8463    -1.5090 O.2     
  12 N12           -1.4314    -1.8160     0.8370 N.ar    
  13 C13           -2.4916    -2.5876     0.6819 C.ar    
  14 C14           -3.5156    -2.1994    -0.1643 C.ar    
  15 N15           -3.4383    -1.0544    -0.8211 N.ar    
  16 C16           -2.3856    -0.2734    -0.6679 C.ar    
  17 C17            5.2750     4.4626    -1.9067 C.3     
  18 C18            6.0266     5.7590    -1.7467 C.ar    
  19 N19            6.6012     6.0396    -0.5937 N.ar    
  20 C20            7.2694     7.1605    -0.4056 C.ar    
  21 C21            7.3912     8.0918    -1.4262 C.ar    
  22 C22            6.7970     7.8278    -2.6563 C.ar    
  23 C23            6.1091     6.6355    -2.8128 C.ar    
  24 O24            8.0806     9.2461    -1.2274 O.3     
  25 C25            8.6601     9.4414     0.0641 C.3     
  26 C26            6.1986     3.4104    -2.5236 C.3     
  27 C27           -2.2982     1.0314    -1.4169 C.3     
  28 C28            9.3902    10.7856     0.0976 C.3     
  29 F29            8.4819    11.8163    -0.1667 F       
  30 F30            9.9575    10.9768     1.3620 F       
  31 F31           10.3987    10.7928    -0.8719 F       
  32 H32           -1.3058     2.0158     0.5206 H       
  33 H33            1.2476    -1.4116     0.2129 H       
  34 H34            3.2137     0.0395     0.4973 H       
  35 H35            0.6714     3.4510     0.8088 H       
  36 H36            3.0027     3.5743     1.4608 H       
  37 H37            4.0634     2.1509     1.3307 H       
  38 H38            5.2834     4.2756     0.2083 H       
  39 H39           -2.5596    -3.5238     1.2161 H       
  40 H40           -4.3807    -2.8339    -0.2888 H       
  41 H41            4.4156     4.6189    -2.5588 H       
  42 H42            7.7264     7.3556     0.5533 H       
  43 H43            6.8739     8.5330    -3.4706 H       
  44 H44            5.6355     6.3974    -3.7537 H       
  45 H45            7.8744     9.4358     0.8195 H       
  46 H46            9.3678     8.6383     0.2700 H       
  47 H47            7.0579     3.2541    -1.8715 H       
  48 H48            5.6549     2.4727    -2.6393 H       
  49 H49            6.5409     3.7547    -3.4995 H       
  50 H50           -2.6632     1.8394    -0.7829 H       
  51 H51           -1.2609     1.2245    -1.6904 H       
  52 H52           -2.9072     0.9740    -2.3191 H       
@<TRIPOS>BOND
   1    1    2 ar
   2    1    6 ar
   3    1   32 1
   4    2    3 ar
   5    2    7 1
   6    3    4 ar
   7    3   33 1
   8    4    5 ar
   9    4   34 1
  10    5    6 ar
  11    5    8 1
  12    6   35 1
  13    7   12 ar
  14    7   16 ar
  15    8    9 1
  16    8   36 1
  17    8   37 1
  18    9   10 am
  19    9   11 2
  20   10   17 1
  21   10   38 1
  22   12   13 ar
  23   13   14 ar
  24   13   39 1
  25   14   15 ar
  26   14   40 1
  27   15   16 ar
  28   16   27 1
  29   17   18 1
  30   17   26 1
  31   17   41 1
  32   18   19 ar
  33   18   23 ar
  34   19   20 ar
  35   20   21 ar
  36   20   42 1
  37   21   22 ar
  38   21   24 1
  39   22   23 ar
  40   22   43 1
  41   23   44 1
  42   24   25 1
  43   25   28 1
  44   25   45 1
  45   25   46 1
  46   26   47 1
  47   26   48 1
  48   26   49 1
  49   27   50 1
  50   27   51 1
  51   27   52 1
  52   28   29 1
  53   28   30 1
  54   28   31 1

#	End of record

