#	Name: ASD01412030
#	Creating user name:	WinNT
#	Creation time:	15. 06. 2019 19:19

#	Modifying user name:	WinNT
#	Modification time:	15. 06. 2019 19:19

#	Program:	/corina/corina34_cracker 3.40 0067  02.08.2006

@<TRIPOS>MOLECULE
ASD01412030
  81   85    0    0    0
SMALL
NO_CHARGES


@<TRIPOS>ATOM
   1 C1            -1.1721     3.2493    -0.6277 C.ar    
   2 C2            -0.9747     1.9108    -1.0234 C.ar    
   3 C3            -2.0429     1.0032    -0.9798 C.ar    
   4 C4            -3.2691     1.4145    -0.5557 C.ar    
   5 C5            -3.4750     2.7444    -0.1605 C.ar    
   6 C6            -2.4233     3.6579    -0.1929 C.ar    
   7 N7             0.0354     3.9012    -0.7729 N.pl3   
   8 C8             0.9672     3.0072    -1.2445 C.2     
   9 C9             0.3834     1.7927    -1.4058 C.2     
  10 C10            1.0600     0.5415    -1.9032 C.3     
  11 C11            0.9731    -0.5462    -0.8307 C.3     
  12 C12            1.6601    -1.8166    -1.3357 C.3     
  13 C13            0.9649    -2.3001    -2.6100 C.3     
  14 C14            1.0519    -1.2125    -3.6825 C.3     
  15 C15            0.3649     0.0579    -3.1775 C.3     
  16 C16           -4.8097     3.1768     0.2961 C.2     
  17 O17           -4.9911     4.3291     0.6393 O.2     
  18 N18           -5.8279     2.2945     0.3328 N.am    
  19 C19           -7.1532     2.7238     0.7862 C.3     
  20 C20           -8.1049     1.5567     0.7325 C.2     
  21 C21           -7.0583     3.2388     2.2238 C.3     
  22 C22           -7.6658     3.8422    -0.1233 C.3     
  23 C23           -8.8163    -0.4857    -0.2494 C.ar    
  24 O24           -8.9748     1.4445     1.5701 O.2     
  25 C25           -9.1915    -1.0741     0.9547 C.ar    
  26 C26          -10.0114    -2.1793     0.9568 C.ar    
  27 C27          -10.4686    -2.7114    -0.2549 C.ar    
  28 C28          -10.0889    -2.1158    -1.4638 C.ar    
  29 C29           -9.2682    -1.0112    -1.4562 C.ar    
  30 C30          -11.3439    -3.8917    -0.2579 C.2     
  31 C31          -12.3914    -3.9580     0.5929 C.2     
  32 N32           -7.9894     0.6374    -0.2464 N.am    
  33 C33            0.2834     5.3137    -0.4740 C.3     
  34 C34            2.3839     3.3198    -1.5307 C.ar    
  35 C35            3.3992     2.4591    -1.1110 C.ar    
  36 N36            4.6608     2.7371    -1.3662 N.ar    
  37 C37            5.0156     3.8264    -2.0208 C.ar    
  38 C38            4.0693     4.7294    -2.4701 C.ar    
  39 C39            2.7287     4.4807    -2.2320 C.ar    
  40 C40            6.4758     4.0912    -2.2827 C.3     
  41 C41          -12.7895    -2.8067     1.3182 C.2     
  42 O42          -12.2156    -1.7486     1.1427 O.2     
  43 O43          -13.8051    -2.8847     2.2032 O.3     
  44 H44           -1.8926    -0.0224    -1.2831 H       
  45 H45           -4.0890     0.7123    -0.5237 H       
  46 H46           -2.5841     4.6815     0.1119 H       
  47 H47            2.1067     0.7558    -2.1193 H       
  48 H48            1.4683    -0.2017     0.0772 H       
  49 H49           -0.0736    -0.7605    -0.6146 H       
  50 H50            2.7067    -1.6022    -1.5518 H       
  51 H51            1.5981    -2.5914    -0.5716 H       
  52 H52            1.4543    -3.2052    -2.9698 H       
  53 H53           -0.0817    -2.5145    -2.3939 H       
  54 H54            2.0985    -0.9982    -3.8986 H       
  55 H55            0.5566    -1.5570    -4.5904 H       
  56 H56           -0.6818    -0.1565    -2.9614 H       
  57 H57            0.4268     0.8327    -3.9416 H       
  58 H58           -5.6832     1.3753     0.0591 H       
  59 H59           -6.3699     4.0830     2.2627 H       
  60 H60           -8.0444     3.5582     2.5612 H       
  61 H61           -6.6931     2.4420     2.8718 H       
  62 H62           -7.7334     3.4754    -1.1475 H       
  63 H63           -8.6519     4.1616     0.2140 H       
  64 H64           -6.9774     4.6864    -0.0845 H       
  65 H65           -8.8384    -0.6630     1.8889 H       
  66 H66          -10.3015    -2.6357     1.8916 H       
  67 H67          -10.4389    -2.5231    -2.4008 H       
  68 H68           -8.9751    -0.5509    -2.3882 H       
  69 H69          -11.1499    -4.7061    -0.9401 H       
  70 H70          -12.9254    -4.8880     0.7204 H       
  71 H71           -7.3312     0.7570    -0.9488 H       
  72 H72            0.5954     5.4159     0.5654 H       
  73 H73            1.0696     5.6909    -1.1281 H       
  74 H74           -0.6302     5.8855    -0.6371 H       
  75 H75            3.1481     1.5575    -0.5720 H       
  76 H76            4.3729     5.6173    -3.0047 H       
  77 H77            1.9689     5.1689    -2.5717 H       
  78 H78            6.7614     3.6428    -3.2343 H       
  79 H79            6.6488     5.1666    -2.3214 H       
  80 H80            7.0734     3.6556    -1.4819 H       
  81 H81          -14.0037    -2.0496     2.6486 H       
@<TRIPOS>BOND
   1    1    2 ar
   2    1    7 1
   3    1    6 ar
   4    2    3 ar
   5    2    9 1
   6    3    4 ar
   7    3   44 1
   8    4    5 ar
   9    4   45 1
  10    5    6 ar
  11    5   16 1
  12    6   46 1
  13    7    8 1
  14    7   33 1
  15    8    9 2
  16    8   34 1
  17    9   10 1
  18   10   11 1
  19   10   15 1
  20   10   47 1
  21   11   12 1
  22   11   48 1
  23   11   49 1
  24   12   13 1
  25   12   50 1
  26   12   51 1
  27   13   14 1
  28   13   52 1
  29   13   53 1
  30   14   15 1
  31   14   54 1
  32   14   55 1
  33   15   56 1
  34   15   57 1
  35   16   17 2
  36   16   18 am
  37   18   19 1
  38   18   58 1
  39   19   20 1
  40   19   21 1
  41   19   22 1
  42   20   24 2
  43   20   32 am
  44   21   59 1
  45   21   60 1
  46   21   61 1
  47   22   62 1
  48   22   63 1
  49   22   64 1
  50   23   25 ar
  51   23   29 ar
  52   23   32 1
  53   25   26 ar
  54   25   65 1
  55   26   27 ar
  56   26   66 1
  57   27   28 ar
  58   27   30 1
  59   28   29 ar
  60   28   67 1
  61   29   68 1
  62   30   31 2
  63   30   69 1
  64   31   41 1
  65   31   70 1
  66   32   71 1
  67   33   72 1
  68   33   73 1
  69   33   74 1
  70   34   35 ar
  71   34   39 ar
  72   35   36 ar
  73   35   75 1
  74   36   37 ar
  75   37   38 ar
  76   37   40 1
  77   38   39 ar
  78   38   76 1
  79   39   77 1
  80   40   78 1
  81   40   79 1
  82   40   80 1
  83   41   42 2
  84   41   43 1
  85   43   81 1

#	End of record

