#	Name: ASD04660017
#	Creating user name:	WinNT
#	Creation time:	15. 06. 2019 20:52

#	Modifying user name:	WinNT
#	Modification time:	15. 06. 2019 20:52

#	Program:	/corina/corina34_cracker 3.40 0067  02.08.2006

@<TRIPOS>MOLECULE
ASD04660017
  48   52    0    0    0
SMALL
NO_CHARGES


@<TRIPOS>ATOM
   1 C1             5.5206     2.0306     2.7181 C.ar    
   2 C2             5.7960     0.6654     2.7799 C.ar    
   3 C3             5.2225    -0.2529     1.9409 C.ar    
   4 C4             4.3116     0.1912     0.9677 C.ar    
   5 C5             4.0466     1.5602     0.9196 C.ar    
   6 C6             4.6284     2.5084     1.7738 C.ar    
   7 C7             3.6430    -0.6216     0.0368 C.ar    
   8 C8             2.7842    -0.0296    -0.8486 C.ar    
   9 C9             2.5383     1.3431    -0.8743 C.ar    
  10 C10            3.1761     2.1763     0.0256 C.ar    
  11 N11            3.1998     3.5355     0.3113 N.am    
  12 C12            4.0483     3.7860     1.3433 C.2     
  13 O13            4.2854     4.8778     1.8255 O.2     
  14 N14            3.3386    -2.9669     1.4444 N.am    
  15 C15            1.9069    -2.9083     1.7494 C.3     
  16 C16            1.4898    -4.1687     2.5044 C.3     
  17 C17            1.6178    -1.6935     2.6391 C.3     
  18 C18            0.1037    -1.5204     2.7406 C.3     
  19 C19           -0.5519    -2.8171     3.1378 C.ar    
  20 C20            0.0828    -4.0335     3.0249 C.ar    
  21 C21           -1.8479    -2.7609     3.6347 C.ar    
  22 C22           -2.5048    -3.9137     4.0117 C.ar    
  23 C23           -1.8689    -5.1358     3.8942 C.ar    
  24 C24           -0.5813    -5.1935     3.4029 C.ar    
  25 O25            1.5602    -5.2911     1.6227 O.3     
  26 N26           -3.8854    -3.8426     4.5406 N.pl3   
  27 O27           -4.4434    -2.7648     4.6436 O.2     
  28 O28           -4.4635    -4.8619     4.8729 O.2     
  29 S29            3.9049    -2.3638     0.0099 S.o2    
  30 O30            3.0567    -2.8815    -1.0058 O.2     
  31 O31            5.3125    -2.5581     0.0207 O.2     
  32 H32            5.9978     2.7120     3.4069 H       
  33 H33            6.4953     0.3152     3.5247 H       
  34 H34            5.4669    -1.3014     2.0258 H       
  35 H35            2.2715    -0.6562    -1.5634 H       
  36 H36            1.8499     1.7551    -1.5973 H       
  37 H37            2.6849     4.2098    -0.1590 H       
  38 H38            3.9548    -3.3589     2.0828 H       
  39 H39            1.3373    -2.8296     0.8235 H       
  40 H40            2.1688    -4.3269     3.3424 H       
  41 H41            2.0359    -1.8579     3.6322 H       
  42 H42            2.0605    -0.8009     2.1970 H       
  43 H43           -0.1219    -0.7598     3.4880 H       
  44 H44           -0.2872    -1.2012     1.7744 H       
  45 H45           -2.3454    -1.8066     3.7264 H       
  46 H46           -2.3788    -6.0421     4.1857 H       
  47 H47           -0.0855    -6.1486     3.3112 H       
  48 H48            1.3089    -6.1299     2.0330 H       
@<TRIPOS>BOND
   1    1    2 ar
   2    1    6 ar
   3    1   32 1
   4    2    3 ar
   5    2   33 1
   6    3    4 ar
   7    3   34 1
   8    4    5 ar
   9    4    7 ar
  10    5    6 ar
  11    5   10 ar
  12    6   12 1
  13    7    8 ar
  14    7   29 1
  15    8    9 ar
  16    8   35 1
  17    9   10 ar
  18    9   36 1
  19   10   11 1
  20   11   12 am
  21   11   37 1
  22   12   13 2
  23   14   15 1
  24   14   29 am
  25   14   38 1
  26   15   16 1
  27   15   17 1
  28   15   39 1
  29   16   25 1
  30   16   20 1
  31   16   40 1
  32   17   18 1
  33   17   41 1
  34   17   42 1
  35   18   19 1
  36   18   43 1
  37   18   44 1
  38   19   20 ar
  39   19   21 ar
  40   20   24 ar
  41   21   22 ar
  42   21   45 1
  43   22   23 ar
  44   22   26 1
  45   23   24 ar
  46   23   46 1
  47   24   47 1
  48   25   48 1
  49   26   27 2
  50   26   28 2
  51   29   30 2
  52   29   31 2

#	End of record

