#	Name: ASD07300699
#	Creating user name:	WinNT
#	Creation time:	15. 06. 2019 21:10

#	Modifying user name:	WinNT
#	Modification time:	15. 06. 2019 21:10

#	Program:	/corina/corina34_cracker 3.40 0067  02.08.2006

@<TRIPOS>MOLECULE
ASD07300699
  51   55    0    0    0
SMALL
NO_CHARGES


@<TRIPOS>ATOM
   1 C1            -0.0173     1.4131    -0.0101 C.2     
   2 C2             0.0021    -0.0041     0.0020 C.2     
   3 N3             1.1774     2.0867    -0.0173 N.pl3   
   4 N4             1.1570    -0.6391     0.0061 N.2     
   5 C5             2.3155     0.0274    -0.0010 C.2     
   6 C6             2.3478     1.3754    -0.0122 C.2     
   7 N7            -0.9993     2.3006    -0.0113 N.2     
   8 C8            -0.4899     3.5280    -0.0253 C.2     
   9 C9             0.8860     3.4242    -0.0284 C.2     
  10 N10           -1.1861    -0.7177     0.0100 N.pl3   
  11 C11           -1.1896    -2.1845    -0.1073 C.3     
  12 C12           -2.0523    -2.7578     1.0227 C.3     
  13 O13           -3.3301    -2.1170     1.0109 O.3     
  14 C14           -3.2811    -0.7091     1.2547 C.3     
  15 C15           -2.4811    -0.0313     0.1422 C.3     
  16 C16           -1.2789     4.8119    -0.0319 C.3     
  17 C17            2.9635     4.5207     0.8117 C.ar    
  18 C18            1.8548     4.5381    -0.0392 C.ar    
  19 C19            1.6753     5.6273    -0.9032 C.ar    
  20 C20            2.6070     6.6452    -0.8785 C.ar    
  21 C21            3.6896     6.5573    -0.0004 C.ar    
  22 N22            3.8297     5.5096     0.8056 N.ar    
  23 C23            6.9491     8.5132     0.5723 C.3     
  24 C24            5.8501     7.5300     0.9847 C.3     
  25 C25            4.6909     7.6414     0.0328 C.2     
  26 C26            4.5383     8.6731    -0.7731 C.2     
  27 C27            5.5097     9.8187    -0.8149 C.3     
  28 O28            6.3489     9.7936     0.3415 O.3     
  29 H29            3.2438    -0.5244     0.0030 H       
  30 H30            3.2954     1.8935    -0.0179 H       
  31 H31           -1.6073    -2.4747    -1.0714 H       
  32 H32           -0.1710    -2.5622    -0.0194 H       
  33 H33           -2.1813    -3.8299     0.8742 H       
  34 H34           -1.5638    -2.5784     1.9805 H       
  35 H35           -4.2942    -0.3073     1.2730 H       
  36 H36           -2.7971    -0.5223     2.2133 H       
  37 H37           -2.3172     1.0162     0.3953 H       
  38 H38           -3.0310    -0.1010    -0.7963 H       
  39 H39           -1.4626     5.1308     0.9941 H       
  40 H40           -0.7142     5.5827    -0.5564 H       
  41 H41           -2.2306     4.6509    -0.5382 H       
  42 H42            3.1079     3.6881     1.4841 H       
  43 H43            0.8286     5.6687    -1.5723 H       
  44 H44            2.5004     7.4994    -1.5308 H       
  45 H45            7.6876     8.5930     1.3700 H       
  46 H46            7.4291     8.1638    -0.3418 H       
  47 H47            6.2441     6.5140     0.9601 H       
  48 H48            5.5138     7.7643     1.9947 H       
  49 H49            3.6808     8.6962    -1.4292 H       
  50 H50            6.1258     9.7377    -1.7104 H       
  51 H51            4.9589    10.7589    -0.8413 H       
@<TRIPOS>BOND
   1    1    2 1
   2    1    3 1
   3    1    7 2
   4    2    4 2
   5    2   10 1
   6    3    6 1
   7    3    9 1
   8    4    5 1
   9    5    6 2
  10    5   29 1
  11    6   30 1
  12    7    8 1
  13    8    9 2
  14    8   16 1
  15    9   18 1
  16   10   11 1
  17   10   15 1
  18   11   12 1
  19   11   31 1
  20   11   32 1
  21   12   13 1
  22   12   33 1
  23   12   34 1
  24   13   14 1
  25   14   15 1
  26   14   35 1
  27   14   36 1
  28   15   37 1
  29   15   38 1
  30   16   39 1
  31   16   40 1
  32   16   41 1
  33   17   18 ar
  34   17   22 ar
  35   17   42 1
  36   18   19 ar
  37   19   20 ar
  38   19   43 1
  39   20   21 ar
  40   20   44 1
  41   21   22 ar
  42   21   25 1
  43   23   24 1
  44   23   28 1
  45   23   45 1
  46   23   46 1
  47   24   25 1
  48   24   47 1
  49   24   48 1
  50   25   26 2
  51   26   27 1
  52   26   49 1
  53   27   28 1
  54   27   50 1
  55   27   51 1

#	End of record

