#	Name: ASD01028171
#	Creating user name:	WinNT
#	Creation time:	15. 06. 2019 18:56

#	Modifying user name:	WinNT
#	Modification time:	15. 06. 2019 18:56

#	Program:	/corina/corina34_cracker 3.40 0067  02.08.2006

@<TRIPOS>MOLECULE
ASD01028171
  59   63    0    0    0
SMALL
NO_CHARGES


@<TRIPOS>ATOM
   1 C1            -1.8990     1.7505     0.6304 C.2     
   2 C2            -2.4874     0.3991     0.6411 C.ar    
   3 C3            -2.2240    -0.5012    -0.3980 C.ar    
   4 C4            -2.8004    -1.7575    -0.3411 C.ar    
   5 C5            -3.6130    -2.0867     0.7297 C.ar    
   6 N6            -3.8494    -1.2246     1.6987 N.ar    
   7 C7            -3.3185    -0.0112     1.6975 C.ar    
   8 O8            -2.2431     2.5701     1.4604 O.2     
   9 N9            -0.9757     2.0762    -0.2958 N.am    
  10 C10           -0.5554     3.4035    -0.4276 C.ar    
  11 C11            0.7650     3.6856    -0.7501 C.ar    
  12 C12            1.1775     5.0022    -0.8803 C.ar    
  13 C13            0.2704     6.0352    -0.6881 C.ar    
  14 C14           -1.0433     5.7525    -0.3666 C.ar    
  15 C15           -1.4599     4.4411    -0.2416 C.ar    
  16 C16           -2.0251     6.8766    -0.1583 C.3     
  17 F17           -1.3766     8.1024    -0.3428 F       
  18 F18           -3.0711     6.7591    -1.0798 F       
  19 F19           -2.5391     6.8120     1.1413 F       
  20 O20            2.4696     5.2818    -1.1955 O.3     
  21 C21            3.3480     4.1696    -1.3784 C.3     
  22 N22            5.3370     5.4043    -0.5704 N.3     
  23 C23            4.7489     4.6778    -1.7251 C.3     
  24 C24            5.7071     3.4920    -1.9676 C.3     
  25 C25            7.0573     3.9390    -1.3703 C.3     
  26 C26            6.8012     5.3574    -0.8171 C.3     
  27 N27           -3.5886     0.8591     2.7386 N.pl3   
  28 N28           -6.9391     1.9115     6.2083 N.pl3   
  29 N29           -7.7103     1.0170     6.9602 N.2     
  30 C30           -7.4249    -0.2057     6.6186 C.2     
  31 C31           -6.4342    -0.1745     5.6071 C.ar    
  32 C32           -5.7648    -1.1694     4.8817 C.ar    
  33 C33           -4.8366    -0.8213     3.9471 C.ar    
  34 C34           -4.5436     0.5217     3.7016 C.ar    
  35 C35           -5.1917     1.5199     4.4055 C.ar    
  36 C36           -6.1421     1.1813     5.3637 C.ar    
  37 H37           -1.5867    -0.2218    -1.2240 H       
  38 H38           -2.6180    -2.4758    -1.1266 H       
  39 H39           -4.0620    -3.0680     0.7722 H       
  40 H40           -0.6026     1.3900    -0.8709 H       
  41 H41            1.4695     2.8807    -0.8989 H       
  42 H42            0.5920     7.0611    -0.7895 H       
  43 H43           -2.4885     4.2228     0.0050 H       
  44 H44            3.3906     3.5853    -0.4593 H       
  45 H45            2.9774     3.5436    -2.1901 H       
  46 H46            5.0064     6.3570    -0.5362 H       
  47 H47            4.7117     5.3243    -2.6020 H       
  48 H48            5.3434     2.6007    -1.4563 H       
  49 H49            5.8104     3.3010    -3.0358 H       
  50 H50            7.3563     3.2671    -0.5657 H       
  51 H51            7.8232     3.9674    -2.1452 H       
  52 H52            7.0871     6.1095    -1.5524 H       
  53 H53            7.3485     5.5070     0.1136 H       
  54 H54           -3.1152     1.7036     2.8000 H       
  55 H55           -6.9665     2.8791     6.2707 H       
  56 H56           -7.8695    -1.0965     7.0372 H       
  57 H57           -5.9840    -2.2111     5.0638 H       
  58 H58           -4.3232    -1.5912     3.3903 H       
  59 H59           -4.9612     2.5573     4.2127 H       
@<TRIPOS>BOND
   1    1    2 1
   2    1    8 2
   3    1    9 am
   4    2    3 ar
   5    2    7 ar
   6    3    4 ar
   7    3   37 1
   8    4    5 ar
   9    4   38 1
  10    5    6 ar
  11    5   39 1
  12    6    7 ar
  13    7   27 1
  14    9   10 1
  15    9   40 1
  16   10   11 ar
  17   10   15 ar
  18   11   12 ar
  19   11   41 1
  20   12   13 ar
  21   12   20 1
  22   13   14 ar
  23   13   42 1
  24   14   15 ar
  25   14   16 1
  26   15   43 1
  27   16   17 1
  28   16   18 1
  29   16   19 1
  30   20   21 1
  31   21   23 1
  32   21   44 1
  33   21   45 1
  34   22   23 1
  35   22   26 1
  36   22   46 1
  37   23   24 1
  38   23   47 1
  39   24   25 1
  40   24   48 1
  41   24   49 1
  42   25   26 1
  43   25   50 1
  44   25   51 1
  45   26   52 1
  46   26   53 1
  47   27   34 1
  48   27   54 1
  49   28   29 1
  50   28   36 1
  51   28   55 1
  52   29   30 2
  53   30   31 1
  54   30   56 1
  55   31   32 ar
  56   31   36 ar
  57   32   33 ar
  58   32   57 1
  59   33   34 ar
  60   33   58 1
  61   34   35 ar
  62   35   36 ar
  63   35   59 1

#	End of record

