#	Name: ASD01912297
#	Creating user name:	WinNT
#	Creation time:	15. 06. 2019 19:59

#	Modifying user name:	WinNT
#	Modification time:	15. 06. 2019 19:59

#	Program:	/corina/corina34_cracker 3.40 0067  02.08.2006

@<TRIPOS>MOLECULE
ASD01912297
  46   48    0    0    0
SMALL
NO_CHARGES


@<TRIPOS>ATOM
   1 C1             0.0021    -0.0041     0.0020 C.1     
   2 C2            -0.0173     1.4278     0.0099 C.ar    
   3 C3             1.1804     2.1455     0.0023 C.ar    
   4 C4             1.1544     3.5247     0.0100 C.ar    
   5 C5            -0.0549     4.1969     0.0257 C.ar    
   6 C6            -1.2455     3.4920     0.0337 C.ar    
   7 C7            -1.2341     2.1126     0.0194 C.ar    
   8 N8             0.0175    -1.1399    -0.0042 N.1     
   9 S9            -0.0788     5.9587     0.0360 S.o2    
  10 O10           -1.3285     6.3398     0.5949 O.2     
  11 O11            1.1706     6.3738     0.5707 O.2     
  12 N12           -0.1009     6.4579    -1.5428 N.am    
  13 C13           -1.3775     6.6645    -2.2386 C.3     
  14 C14           -1.4347     8.1110    -2.7462 C.3     
  15 C15           -0.1462     8.4115    -3.4801 C.2     
  16 C16            1.1639     8.1463    -2.7714 C.3     
  17 C17            1.1559     6.7048    -2.2613 C.3     
  18 C18           -0.1648     8.8974    -4.7205 C.2     
  19 C19            1.0651     9.1756    -5.3991 C.1     
  20 C20            2.0735     9.4037    -5.9554 C.1     
  21 C21            3.3034     9.6819    -6.6339 C.ar    
  22 C22            3.2783    10.1917    -7.9353 C.ar    
  23 C23            4.4749    10.4548    -8.5763 C.ar    
  24 C24            5.6604    10.2012    -7.8989 C.ar    
  25 C25            5.6136     9.6965    -6.6122 C.ar    
  26 N26            4.4617     9.4586    -6.0195 N.ar    
  27 C27            6.8989     9.4206    -5.8753 C.3     
  28 H28            2.1250     1.6220    -0.0092 H       
  29 H29            2.0800     4.0810     0.0042 H       
  30 H30           -2.1859     4.0230     0.0463 H       
  31 H31           -2.1642     1.5637     0.0208 H       
  32 H32           -1.4491     5.9781    -3.0823 H       
  33 H33           -2.2026     6.4864    -1.5490 H       
  34 H34           -2.2795     8.2286    -3.4248 H       
  35 H35           -1.5437     8.7920    -1.9022 H       
  36 H36            1.9920     8.2867    -3.4662 H       
  37 H37            1.2707     8.8303    -1.9295 H       
  38 H38            1.9984     6.5533    -1.5866 H       
  39 H39            1.2341     6.0208    -3.1064 H       
  40 H40           -1.1076     9.0814    -5.2143 H       
  41 H41            2.3379    10.3769    -8.4331 H       
  42 H42            4.4873    10.8486    -9.5818 H       
  43 H43            6.6109    10.3962    -8.3731 H       
  44 H44            7.1992    10.3109    -5.3228 H       
  45 H45            6.7490     8.5947    -5.1800 H       
  46 H46            7.6782     9.1567    -6.5903 H       
@<TRIPOS>BOND
   1    1    2 1
   2    1    8 3
   3    2    3 ar
   4    2    7 ar
   5    3    4 ar
   6    3   28 1
   7    4    5 ar
   8    4   29 1
   9    5    6 ar
  10    5    9 1
  11    6    7 ar
  12    6   30 1
  13    7   31 1
  14    9   10 2
  15    9   11 2
  16    9   12 am
  17   12   13 1
  18   12   17 1
  19   13   14 1
  20   13   32 1
  21   13   33 1
  22   14   15 1
  23   14   34 1
  24   14   35 1
  25   15   16 1
  26   15   18 2
  27   16   17 1
  28   16   36 1
  29   16   37 1
  30   17   38 1
  31   17   39 1
  32   18   19 1
  33   18   40 1
  34   19   20 3
  35   20   21 1
  36   21   22 ar
  37   21   26 ar
  38   22   23 ar
  39   22   41 1
  40   23   24 ar
  41   23   42 1
  42   24   25 ar
  43   24   43 1
  44   25   26 ar
  45   25   27 1
  46   27   44 1
  47   27   45 1
  48   27   46 1

#	End of record

