#	Name: ASD01918049
#	Creating user name:	WinNT
#	Creation time:	15. 06. 2019 20:10

#	Modifying user name:	WinNT
#	Modification time:	15. 06. 2019 20:10

#	Program:	/corina/corina34_cracker 3.40 0067  02.08.2006

@<TRIPOS>MOLECULE
ASD01918049
  46   50    0    0    0
SMALL
NO_CHARGES


@<TRIPOS>ATOM
   1 C1            -0.0752     1.2905     0.1409 C.ar    
   2 C2            -0.0753    -0.0968     0.1559 C.ar    
   3 C3             1.1217    -0.7864     0.1627 C.ar    
   4 C4             2.3191    -0.0951     0.1546 C.ar    
   5 C5             2.3219     1.2874     0.1401 C.ar    
   6 C6             1.1276     1.9817     0.1328 C.ar    
   7 O7            -1.2515     1.9711     0.1286 O.3     
   8 C8            -1.1752     3.3980     0.1135 C.3     
   9 C9            -2.5672     3.9753     0.1014 C.2     
  10 N10           -3.2731     4.2777     1.1565 N.2     
  11 C11           -4.4552     4.7640     0.7551 C.2     
  12 C12           -4.4613     4.7571    -0.5917 C.2     
  13 O13           -3.2819     4.2682    -0.9966 O.3     
  14 C14           -5.6004     5.2390     1.6129 C.3     
  15 C15           -6.5353     6.1026     0.7569 C.3     
  16 N16           -6.7658     5.4325    -0.5316 N.am    
  17 C17           -5.6153     5.2417    -1.4343 C.3     
  18 C18           -7.9964     5.0060    -0.8785 C.2     
  19 O19           -8.9114     5.0756    -0.0805 O.2     
  20 C20           -8.2331     4.4553    -2.2250 C.2     
  21 N21           -7.3747     4.4111    -3.2209 N.2     
  22 N22           -7.8815     3.8687    -4.2684 N.pl3   
  23 C23           -9.1800     3.4874    -4.0515 C.ar    
  24 C24           -9.4726     3.8408    -2.7194 C.ar    
  25 C25          -10.7301     3.5760    -2.1861 C.ar    
  26 C26          -11.6790     2.9684    -2.9605 C.ar    
  27 C27          -11.3972     2.6142    -4.2734 C.ar    
  28 C28          -10.1616     2.8743    -4.8232 C.ar    
  29 H29           -1.0104    -0.6371     0.1627 H       
  30 H30            1.1221    -1.8663     0.1748 H       
  31 H31            3.2539    -0.6361     0.1599 H       
  32 H32            3.2586     1.8251     0.1341 H       
  33 H33            1.1303     3.0616     0.1207 H       
  34 H34           -0.6465     3.7430     1.0020 H       
  35 H35           -0.6389     3.7238    -0.7778 H       
  36 H36           -6.1486     4.3796     1.9989 H       
  37 H37           -5.2142     5.8310     2.4427 H       
  38 H38           -7.4856     6.2338     1.2744 H       
  39 H39           -6.0760     7.0759     0.5843 H       
  40 H40           -5.3575     6.1899    -1.9063 H       
  41 H41           -5.8553     4.5002    -2.1963 H       
  42 H42           -7.4068     3.7449    -5.1052 H       
  43 H43          -10.9553     3.8487    -1.1657 H       
  44 H44          -12.6554     2.7619    -2.5478 H       
  45 H45          -12.1575     2.1345    -4.8719 H       
  46 H46           -9.9521     2.5934    -5.8447 H       
@<TRIPOS>BOND
   1    1    2 ar
   2    1    6 ar
   3    1    7 1
   4    2    3 ar
   5    2   29 1
   6    3    4 ar
   7    3   30 1
   8    4    5 ar
   9    4   31 1
  10    5    6 ar
  11    5   32 1
  12    6   33 1
  13    7    8 1
  14    8    9 1
  15    8   34 1
  16    8   35 1
  17    9   10 2
  18    9   13 1
  19   10   11 1
  20   11   14 1
  21   11   12 2
  22   12   13 1
  23   12   17 1
  24   14   15 1
  25   14   36 1
  26   14   37 1
  27   15   16 1
  28   15   38 1
  29   15   39 1
  30   16   17 1
  31   16   18 am
  32   17   40 1
  33   17   41 1
  34   18   19 2
  35   18   20 1
  36   20   21 2
  37   20   24 1
  38   21   22 1
  39   22   23 1
  40   22   42 1
  41   23   28 ar
  42   23   24 ar
  43   24   25 ar
  44   25   26 ar
  45   25   43 1
  46   26   27 ar
  47   26   44 1
  48   27   28 ar
  49   27   45 1
  50   28   46 1

#	End of record

