#	Name: ASD08170391
#	Creating user name:	WinNT
#	Creation time:	15. 06. 2019 21:17

#	Modifying user name:	WinNT
#	Modification time:	15. 06. 2019 21:17

#	Program:	/corina/corina34_cracker 3.40 0067  02.08.2006

@<TRIPOS>MOLECULE
ASD08170391
  61   64    0    0    0
SMALL
NO_CHARGES


@<TRIPOS>ATOM
   1 N1            -0.2146     0.3543     0.4291 N.2     
   2 C2            -0.0529    -0.9285     0.5817 C.2     
   3 S3             1.6805    -1.2401     0.6980 S.3     
   4 C4             1.9688     0.4915     0.5158 C.2     
   5 N5             0.8199     1.0746     0.3961 N.2     
   6 C6             7.1859     3.7835     5.2764 C.2     
   7 S7             6.7079     5.2659     6.1063 S.3     
   8 C8             7.4038     4.6169     7.5928 C.2     
   9 N9             7.8861     3.4384     7.3220 N.2     
  10 N10            7.7680     3.0154     6.1399 N.2     
  11 C11            8.0279     5.3101    11.2033 C.ar    
  12 C12           -3.4271    -2.5159     0.6029 C.ar    
  13 C13            8.5763     6.5881    11.3245 C.ar    
  14 C14            8.6009     7.2108    12.5552 C.ar    
  15 C15            8.0837     6.5715    13.6680 C.ar    
  16 C16            7.5391     5.3046    13.5549 C.ar    
  17 C17            7.5025     4.6731    12.3289 C.ar    
  18 C18           -4.3585    -2.6166    -0.4321 C.ar    
  19 C19           -5.3588    -3.5642    -0.3658 C.ar    
  20 C20           -5.4405    -4.4134     0.7235 C.ar    
  21 C21           -4.5209    -4.3186     1.7530 C.ar    
  22 C22           -3.5116    -3.3799     1.6961 C.ar    
  23 N23           -1.0632    -1.8809     0.6422 N.am    
  24 C24           -2.3527    -1.5030     0.5386 C.2     
  25 O25           -2.6321    -0.3290     0.3924 O.2     
  26 N26            7.4317     5.2500     8.8297 N.am    
  27 C27            7.9981     4.6368     9.8879 C.2     
  28 O28            8.4844     3.5301     9.7604 O.2     
  29 C29            3.3141     1.1704     0.5024 C.3     
  30 C30            3.7019     1.5621     1.9296 C.3     
  31 S31            5.3213     2.3794     1.9135 S.3     
  32 C32            5.6029     2.7616     3.6643 C.3     
  33 C33            6.9520     3.4659     3.8220 C.3     
  34 N34            6.9196     3.3178    12.2098 N.pl3   
  35 O35            6.5841     2.7091    13.2100 O.2     
  36 O36            6.7754     2.8113    11.1115 O.2     
  37 N37            8.1136     7.2458    14.9853 N.pl3   
  38 O38            8.5927     8.3609    15.0880 O.2     
  39 O39            7.6590     6.6855    15.9666 O.2     
  40 N40           -4.2732    -1.7083    -1.5977 N.pl3   
  41 O41           -5.1568    -1.7087    -2.4360 O.2     
  42 O42           -3.3194    -0.9605    -1.7186 O.2     
  43 N43           -6.5168    -5.4274     0.7881 N.pl3   
  44 O44           -7.3280    -5.5129    -0.1164 O.2     
  45 O45           -6.5913    -6.1763     1.7458 O.2     
  46 H46            8.9806     7.0881    10.4568 H       
  47 H47            9.0252     8.1994    12.6504 H       
  48 H48            7.1374     4.8110    14.4274 H       
  49 H49           -6.0800    -3.6432    -1.1658 H       
  50 H50           -4.5905    -4.9842     2.6006 H       
  51 H51           -2.7944    -3.3069     2.5002 H       
  52 H52           -0.8402    -2.8177     0.7588 H       
  53 H53            7.0437     6.1331     8.9314 H       
  54 H54            4.0614     0.4882     0.0971 H       
  55 H55            3.2637     2.0646    -0.1188 H       
  56 H56            2.9547     2.2444     2.3349 H       
  57 H57            3.7524     0.6679     2.5508 H       
  58 H58            4.8081     3.4139     4.0262 H       
  59 H59            5.6058     1.8374     4.2421 H       
  60 H60            6.9491     4.3902     3.2442 H       
  61 H61            7.7468     2.8137     3.4601 H       
@<TRIPOS>BOND
   1    1    2 2
   2    1    5 1
   3    2    3 1
   4    2   23 1
   5    3    4 1
   6    4    5 2
   7    4   29 1
   8    6    7 1
   9    6   33 1
  10    6   10 2
  11    7    8 1
  12    8    9 2
  13    8   26 1
  14    9   10 1
  15   11   13 ar
  16   11   27 1
  17   11   17 ar
  18   12   18 ar
  19   12   24 1
  20   12   22 ar
  21   13   14 ar
  22   13   46 1
  23   14   15 ar
  24   14   47 1
  25   15   16 ar
  26   15   37 1
  27   16   17 ar
  28   16   48 1
  29   17   34 1
  30   18   19 ar
  31   18   40 1
  32   19   20 ar
  33   19   49 1
  34   20   21 ar
  35   20   43 1
  36   21   22 ar
  37   21   50 1
  38   22   51 1
  39   23   24 am
  40   23   52 1
  41   24   25 2
  42   26   27 am
  43   26   53 1
  44   27   28 2
  45   29   30 1
  46   29   54 1
  47   29   55 1
  48   30   31 1
  49   30   56 1
  50   30   57 1
  51   31   32 1
  52   32   33 1
  53   32   58 1
  54   32   59 1
  55   33   60 1
  56   33   61 1
  57   34   35 2
  58   34   36 2
  59   37   38 2
  60   37   39 2
  61   40   41 2
  62   40   42 2
  63   43   44 2
  64   43   45 2

#	End of record

