#	Name: ASD08710011
#	Creating user name:	WinNT
#	Creation time:	15. 06. 2019 21:19

#	Modifying user name:	WinNT
#	Modification time:	15. 06. 2019 21:19

#	Program:	/corina/corina34_cracker 3.40 0067  02.08.2006

@<TRIPOS>MOLECULE
ASD08710011
  51   52    0    0    0
SMALL
NO_CHARGES


@<TRIPOS>ATOM
   1 C1             2.4199     1.4315     0.5135 C.ar    
   2 C2             2.3837     0.0645     0.3340 C.ar    
   3 C3             1.4376     2.2353    -0.0690 C.ar    
   4 C4             0.4249     1.6480    -0.8298 C.ar    
   5 C5             0.4008     0.2793    -1.0012 C.ar    
   6 C6             1.3771    -0.5110    -0.4213 C.ar    
   7 S7             1.3389    -2.2582    -0.6459 S.o2    
   8 O8             2.4931    -2.7717     0.0048 O.2     
   9 O9             0.0179    -2.6747    -0.3287 O.2     
  10 N10            1.5454    -2.5491    -2.2630 N.am    
  11 C11            2.8912    -2.5730    -2.8528 C.3     
  12 C12            0.3864    -2.7942    -3.1328 C.3     
  13 C13            0.5877    -4.1339    -3.8517 C.3     
  14 N14            1.9332    -4.1522    -4.4426 N.am    
  15 C15            3.0873    -3.9132    -3.5723 C.3     
  16 C16            2.1013    -4.3900    -5.7585 C.2     
  17 C17            0.4520    -5.2807    -2.8480 C.3     
  18 O18            1.1355    -4.5916    -6.4677 O.2     
  19 O19            3.3394    -4.4040    -6.2873 O.3     
  20 C20            3.4451    -4.6666    -7.7115 C.3     
  21 C21            2.6793    -3.5923    -8.4863 C.3     
  22 C22            4.9175    -4.6428    -8.1266 C.3     
  23 C23            2.8498    -6.0413    -8.0221 C.3     
  24 C24           -0.6918    -0.3565    -1.8216 C.3     
  25 C25            1.4687     3.6552     0.1136 C.1     
  26 N26            1.4933     4.7817     0.2584 N.1     
  27 H27            3.2036     1.8789     1.1069 H       
  28 H28            3.1430    -0.5582     0.7837 H       
  29 H29           -0.3380     2.2638    -1.2827 H       
  30 H30            2.9921    -1.7561    -3.5673 H       
  31 H31            3.6376    -2.4679    -2.0654 H       
  32 H32           -0.5210    -2.8350    -2.5304 H       
  33 H33            0.3048    -1.9933    -3.8678 H       
  34 H34           -0.1588    -4.2428    -4.6384 H       
  35 H35            3.9959    -3.8712    -4.1729 H       
  36 H36            3.1664    -4.7172    -2.8406 H       
  37 H37           -0.5414    -5.2558    -2.4001 H       
  38 H38            0.5955    -6.2316    -3.3612 H       
  39 H39            1.2053    -5.1717    -2.0678 H       
  40 H40            3.1034    -2.6129    -8.2650 H       
  41 H41            2.7586    -3.7894    -9.5554 H       
  42 H42            1.6303    -3.6092    -8.1905 H       
  43 H43            5.4630    -5.4081    -7.5746 H       
  44 H44            4.9968    -4.8399    -9.1957 H       
  45 H45            5.3416    -3.6633    -7.9053 H       
  46 H46            1.8008    -6.0583    -7.7264 H       
  47 H47            2.9291    -6.2384    -9.0912 H       
  48 H48            3.3953    -6.8067    -7.4701 H       
  49 H49           -0.3363    -0.5148    -2.8398 H       
  50 H50           -0.9673    -1.3142    -1.3799 H       
  51 H51           -1.5620     0.2996    -1.8385 H       
@<TRIPOS>BOND
   1    1    2 ar
   2    1    3 ar
   3    1   27 1
   4    2    6 ar
   5    2   28 1
   6    3    4 ar
   7    3   25 1
   8    4    5 ar
   9    4   29 1
  10    5    6 ar
  11    5   24 1
  12    6    7 1
  13    7    8 2
  14    7    9 2
  15    7   10 am
  16   10   11 1
  17   10   12 1
  18   11   15 1
  19   11   30 1
  20   11   31 1
  21   12   13 1
  22   12   32 1
  23   12   33 1
  24   13   14 1
  25   13   17 1
  26   13   34 1
  27   14   15 1
  28   14   16 am
  29   15   35 1
  30   15   36 1
  31   16   18 2
  32   16   19 1
  33   17   37 1
  34   17   38 1
  35   17   39 1
  36   19   20 1
  37   20   21 1
  38   20   22 1
  39   20   23 1
  40   21   40 1
  41   21   41 1
  42   21   42 1
  43   22   43 1
  44   22   44 1
  45   22   45 1
  46   23   46 1
  47   23   47 1
  48   23   48 1
  49   24   49 1
  50   24   50 1
  51   24   51 1
  52   25   26 3

#	End of record

