#	Name: ASD04882174
#	Creating user name:	WinNT
#	Creation time:	15. 06. 2019 20:54

#	Modifying user name:	WinNT
#	Modification time:	15. 06. 2019 20:54

#	Program:	/corina/corina34_cracker 3.40 0067  02.08.2006

@<TRIPOS>MOLECULE
ASD04882174
  77   81    0    0    0
SMALL
NO_CHARGES


@<TRIPOS>ATOM
   1 C1            -0.0793     1.2005    -0.0195 C.2     
   2 C2             0.0566    -0.2594    -0.0042 C.2     
   3 N3             1.2812    -0.8222     0.0013 N.am    
   4 C4             2.4243    -0.0124    -0.0076 C.ar    
   5 C5             3.0175     0.3469    -1.2211 C.ar    
   6 C6             4.1516     1.1509    -1.2313 C.ar    
   7 C7             4.6946     1.5962    -0.0466 C.ar    
   8 C8             4.1064     1.2406     1.1704 C.ar    
   9 C9             2.9631     0.4367     1.1834 C.ar    
  10 N10            2.4721    -0.1014    -2.4213 N.3     
  11 C11            3.4043    -0.9957    -3.1219 C.3     
  12 C12            2.0857     1.0280    -3.2785 C.3     
  13 C13            1.4198     0.4957    -4.5496 C.3     
  14 N14            2.3520    -0.3987    -5.2502 N.3     
  15 C15            2.7384    -1.5280    -4.3929 C.3     
  16 C16            1.8049    -0.8483    -6.4541 C.ar    
  17 C17            2.4448    -0.5721    -7.6555 C.ar    
  18 C18            0.6225    -1.5778    -6.4521 C.ar    
  19 C19            0.0844    -2.0208    -7.6441 C.ar    
  20 C20            0.7213    -1.7395    -8.8391 C.ar    
  21 C21            1.9010    -1.0183    -8.8443 C.ar    
  22 C22            4.6883     1.7177     2.4394 C.2     
  23 N23            5.7878     2.4970     2.4256 N.am    
  24 O24            4.1759     1.4079     3.4977 O.2     
  25 O25           -0.9366    -0.9630     0.0035 O.2     
  26 C26            6.3656     2.9709     3.6857 C.3     
  27 C27            7.5972     3.8296     3.3910 C.3     
  28 C28           -1.2538     1.8971    -0.0209 C.2     
  29 O29            0.9342     2.0910    -0.0287 O.3     
  30 C30            0.4341     3.3335    -0.0409 C.2     
  31 C31           -0.9151     3.2592    -0.0368 C.2     
  32 C32            3.7305     0.2139    -7.6621 C.3     
  33 N33            9.3798     5.1466     4.4249 N.am    
  34 C34            8.2006     4.3244     4.7070 C.3     
  35 C35            9.3488     6.4768     4.2334 C.2     
  36 C36           10.7476     4.6248     4.3212 C.3     
  37 C37           11.5559     5.7273     3.6016 C.3     
  38 C38           10.7427     6.9952     3.9563 C.3     
  39 O39            8.3487     7.1616     4.2759 O.2     
  40 C40            1.4170    -2.2808     0.0165 C.3     
  41 H41            4.6081     1.4266    -2.1705 H       
  42 H42            5.5760     2.2203    -0.0579 H       
  43 H43            2.5062     0.1606     2.1222 H       
  44 H44            4.3066    -0.4448    -3.3874 H       
  45 H45            3.6657    -1.8304    -2.4714 H       
  46 H46            1.3857     1.6687    -2.7423 H       
  47 H47            2.9730     1.6019    -3.5458 H       
  48 H48            0.5175    -0.0552    -4.2841 H       
  49 H49            1.1585     1.3303    -5.2001 H       
  50 H50            3.4384    -2.1688    -4.9292 H       
  51 H51            1.8511    -2.1019    -4.1256 H       
  52 H52            0.1250    -1.7984    -5.5192 H       
  53 H53           -0.8347    -2.5879    -7.6432 H       
  54 H54            0.2987    -2.0878    -9.7699 H       
  55 H55            2.3958    -0.8003    -9.7792 H       
  56 H56            6.1966     2.7442     1.5814 H       
  57 H57            5.6274     3.5665     4.2227 H       
  58 H58            6.6564     2.1160     4.2962 H       
  59 H59            8.3354     3.2339     2.8541 H       
  60 H60            7.3064     4.6844     2.7805 H       
  61 H61           -2.2503     1.4807    -0.0117 H       
  62 H62            1.0138     4.2447    -0.0503 H       
  63 H63           -1.6035     4.0914    -0.0446 H       
  64 H64            4.5750    -0.4703    -7.5799 H       
  65 H65            3.8078     0.7763    -8.5926 H       
  66 H66            3.7387     0.9042    -6.8186 H       
  67 H67            7.4624     4.9200     5.2440 H       
  68 H68            8.4914     3.4695     5.3176 H       
  69 H69           11.1584     4.4434     5.3143 H       
  70 H70           10.7574     3.7062     3.7345 H       
  71 H71           12.5686     5.7913     3.9997 H       
  72 H72           11.5715     5.5596     2.5247 H       
  73 H73           10.7318     7.6889     3.1156 H       
  74 H74           11.1540     7.4762     4.8437 H       
  75 H75            0.4317    -2.7364     0.1152 H       
  76 H76            1.8791    -2.6125    -0.9133 H       
  77 H77            2.0411    -2.5788     0.8590 H       
@<TRIPOS>BOND
   1    1    2 1
   2    1   29 1
   3    1   28 2
   4    2    3 am
   5    2   25 2
   6    3    4 1
   7    3   40 1
   8    4    5 ar
   9    4    9 ar
  10    5    6 ar
  11    5   10 1
  12    6    7 ar
  13    6   41 1
  14    7    8 ar
  15    7   42 1
  16    8    9 ar
  17    8   22 1
  18    9   43 1
  19   10   11 1
  20   10   12 1
  21   11   15 1
  22   11   44 1
  23   11   45 1
  24   12   13 1
  25   12   46 1
  26   12   47 1
  27   13   14 1
  28   13   48 1
  29   13   49 1
  30   14   15 1
  31   14   16 1
  32   15   50 1
  33   15   51 1
  34   16   17 ar
  35   16   18 ar
  36   17   32 1
  37   17   21 ar
  38   18   19 ar
  39   18   52 1
  40   19   20 ar
  41   19   53 1
  42   20   21 ar
  43   20   54 1
  44   21   55 1
  45   22   23 am
  46   22   24 2
  47   23   26 1
  48   23   56 1
  49   26   27 1
  50   26   57 1
  51   26   58 1
  52   27   34 1
  53   27   59 1
  54   27   60 1
  55   28   31 1
  56   28   61 1
  57   29   30 1
  58   30   31 2
  59   30   62 1
  60   31   63 1
  61   32   64 1
  62   32   65 1
  63   32   66 1
  64   33   34 1
  65   33   35 am
  66   33   36 1
  67   34   67 1
  68   34   68 1
  69   35   39 2
  70   35   38 1
  71   36   37 1
  72   36   69 1
  73   36   70 1
  74   37   38 1
  75   37   71 1
  76   37   72 1
  77   38   73 1
  78   38   74 1
  79   40   75 1
  80   40   76 1
  81   40   77 1

#	End of record

