#	Name: ASD01917042
#	Creating user name:	WinNT
#	Creation time:	15. 06. 2019 20:08

#	Modifying user name:	WinNT
#	Modification time:	15. 06. 2019 20:08

#	Program:	/corina/corina34_cracker 3.40 0067  02.08.2006

@<TRIPOS>MOLECULE
ASD01917042
  41   43    0    0    0
SMALL
NO_CHARGES


@<TRIPOS>ATOM
   1 C1            -0.0119     1.4244    -0.4278 C.ar    
   2 C2            -0.0207     0.0462    -0.2814 C.ar    
   3 C3             1.1644    -0.6404    -0.0699 C.ar    
   4 C4             2.3591     0.0454    -0.0035 C.ar    
   5 C5             2.3733     1.4329    -0.1503 C.ar    
   6 C6             1.1776     2.1194    -0.3636 C.ar    
   7 C7             3.6521     2.1737    -0.0795 C.2     
   8 N8             4.8527     1.6631    -0.2548 N.2     
   9 C9             5.7749     2.6226    -0.1190 C.2     
  10 N10            5.1711     3.7612     0.1456 N.2     
  11 N11            3.7923     3.4962     0.1710 N.pl3   
  12 C12            2.7185     4.4593     0.4270 C.3     
  13 C13            2.3011     5.1029    -0.8701 C.2     
  14 O14            1.3252     6.0245    -0.8786 O.3     
  15 O15            2.8448     4.7892    -1.9026 O.2     
  16 C16            0.9753     6.6022    -2.1639 C.3     
  17 C17            7.2412     2.4332    -0.2454 C.ar    
  18 C18            7.7603     1.1713    -0.5292 C.ar    
  19 C19            8.1015     3.5180    -0.0863 C.ar    
  20 C20            9.4638     3.3391    -0.2048 C.ar    
  21 C21            9.9784     2.0800    -0.4828 C.ar    
  22 C22            9.1235     0.9985    -0.6466 C.ar    
  23 O23           11.3209     1.9068    -0.5995 O.3     
  24 F24           -1.1885    -0.6301    -0.3447 F       
  25 C25           11.7820     0.5850    -0.8864 C.3     
  26 H26           -0.9376     1.9544    -0.5970 H       
  27 H27            1.1523    -1.7144     0.0436 H       
  28 H28            3.2820    -0.4905     0.1621 H       
  29 H29            1.1834     3.1933    -0.4778 H       
  30 H30            1.8653     3.9436     0.8678 H       
  31 H31            3.0745     5.2261     1.1150 H       
  32 H32            0.1754     7.3304    -2.0293 H       
  33 H33            1.8484     7.0962    -2.5901 H       
  34 H34            0.6392     5.8137    -2.8373 H       
  35 H35            7.0957     0.3296    -0.6567 H       
  36 H36            7.7018     4.4979     0.1293 H       
  37 H37           10.1310     4.1794    -0.0816 H       
  38 H38            9.5266     0.0200    -0.8624 H       
  39 H39           12.8700     0.5863    -0.9533 H       
  40 H40           11.4677    -0.0902    -0.0906 H       
  41 H41           11.3602     0.2508    -1.8343 H       
@<TRIPOS>BOND
   1    1    2 ar
   2    1    6 ar
   3    1   26 1
   4    2    3 ar
   5    2   24 1
   6    3    4 ar
   7    3   27 1
   8    4    5 ar
   9    4   28 1
  10    5    6 ar
  11    5    7 1
  12    6   29 1
  13    7    8 2
  14    7   11 1
  15    8    9 1
  16    9   10 2
  17    9   17 1
  18   10   11 1
  19   11   12 1
  20   12   13 1
  21   12   30 1
  22   12   31 1
  23   13   14 1
  24   13   15 2
  25   14   16 1
  26   16   32 1
  27   16   33 1
  28   16   34 1
  29   17   18 ar
  30   17   19 ar
  31   18   22 ar
  32   18   35 1
  33   19   20 ar
  34   19   36 1
  35   20   21 ar
  36   20   37 1
  37   21   22 ar
  38   21   23 1
  39   22   38 1
  40   23   25 1
  41   25   39 1
  42   25   40 1
  43   25   41 1

#	End of record

