#	Name: ASD01917245
#	Creating user name:	WinNT
#	Creation time:	15. 06. 2019 20:08

#	Modifying user name:	WinNT
#	Modification time:	15. 06. 2019 20:08

#	Program:	/corina/corina34_cracker 3.40 0067  02.08.2006

@<TRIPOS>MOLECULE
ASD01917245
  44   47    0    0    0
SMALL
NO_CHARGES


@<TRIPOS>ATOM
   1 C1             0.0650     2.5138     1.2561 C.ar    
   2 C2            -0.2642     1.2130     0.9237 C.ar    
   3 C3             0.7087     0.3538     0.4483 C.ar    
   4 C4             2.0107     0.7954     0.3049 C.ar    
   5 C5             2.3398     2.0964     0.6364 C.ar    
   6 C6             1.3672     2.9553     1.1131 C.ar    
   7 C7             3.7593     2.5777     0.4805 C.3     
   8 O8             3.9374     3.1196    -0.8297 O.3     
   9 C9             5.1716     3.6018    -1.1360 C.2     
  10 N10            6.2133     3.6111    -0.3300 N.2     
  11 N11            7.2858     4.1880    -0.9978 N.pl3   
  12 C12            6.8593     4.5221    -2.2637 C.2     
  13 C13            5.5466     4.1653    -2.3635 C.2     
  14 C14            8.6523     4.4576    -0.5471 C.3     
  15 C15            9.5973     4.4113    -1.7476 C.3     
  16 N16            9.0889     5.1611    -2.8908 N.am    
  17 C17            7.7796     5.1330    -3.2371 C.2     
  18 O18            7.3858     5.5874    -4.2946 O.2     
  19 C19            9.9776     5.9305    -3.6501 C.ar    
  20 C20           10.2271     7.2513    -3.3012 C.ar    
  21 C21           11.1045     8.0089    -4.0519 C.ar    
  22 C22           11.7353     7.4523    -5.1519 C.ar    
  23 C23           11.4876     6.1356    -5.5018 C.ar    
  24 C24           10.6156     5.3726    -4.7502 C.ar    
  25 F25           12.5932     8.1951    -5.8850 F       
  26 C26            9.7982     2.9525    -2.1628 C.3     
  27 H27           -0.6960     3.1865     1.6232 H       
  28 H28           -1.2814     0.8680     1.0357 H       
  29 H29            0.4516    -0.6627     0.1893 H       
  30 H30            2.7710     0.1238    -0.0659 H       
  31 H31            1.6242     3.9719     1.3718 H       
  32 H32            3.9654     3.3482     1.2234 H       
  33 H33            4.4442     1.7420     0.6242 H       
  34 H34            4.9115     4.2980    -3.2270 H       
  35 H35            8.6958     5.4449    -0.0874 H       
  36 H36            8.9510     3.7030     0.1806 H       
  37 H37           10.5608     4.8277    -1.4536 H       
  38 H38            9.7351     7.6859    -2.4436 H       
  39 H39           11.2986     9.0362    -3.7812 H       
  40 H40           11.9803     5.7035    -6.3603 H       
  41 H41           10.4227     4.3457    -5.0235 H       
  42 H42            8.8368     2.5160    -2.4332 H       
  43 H43           10.4713     2.9079    -3.0190 H       
  44 H44           10.2298     2.3944    -1.3319 H       
@<TRIPOS>BOND
   1    1    2 ar
   2    1    6 ar
   3    1   27 1
   4    2    3 ar
   5    2   28 1
   6    3    4 ar
   7    3   29 1
   8    4    5 ar
   9    4   30 1
  10    5    6 ar
  11    5    7 1
  12    6   31 1
  13    7    8 1
  14    7   32 1
  15    7   33 1
  16    8    9 1
  17    9   10 2
  18    9   13 1
  19   10   11 1
  20   11   12 1
  21   11   14 1
  22   12   13 2
  23   12   17 1
  24   13   34 1
  25   14   15 1
  26   14   35 1
  27   14   36 1
  28   15   16 1
  29   15   26 1
  30   15   37 1
  31   16   17 am
  32   16   19 1
  33   17   18 2
  34   19   20 ar
  35   19   24 ar
  36   20   21 ar
  37   20   38 1
  38   21   22 ar
  39   21   39 1
  40   22   23 ar
  41   22   25 1
  42   23   24 ar
  43   23   40 1
  44   24   41 1
  45   26   42 1
  46   26   43 1
  47   26   44 1

#	End of record

