#	Name: ASD02038690
#	Creating user name:	WinNT
#	Creation time:	15. 06. 2019 20:17

#	Modifying user name:	WinNT
#	Modification time:	15. 06. 2019 20:17

#	Program:	/corina/corina34_cracker 3.40 0067  02.08.2006

@<TRIPOS>MOLECULE
ASD02038690
  40   43    0    0    0
SMALL
NO_CHARGES


@<TRIPOS>ATOM
   1 C1            -0.0167     1.3818     0.0096 C.ar    
   2 C2             0.0021    -0.0041     0.0020 C.ar    
   3 C3             1.2126    -0.6778    -0.0132 C.ar    
   4 O4             1.2316    -2.0373    -0.0211 O.3     
   5 C5             2.5138    -2.6681    -0.0367 C.3     
   6 C6             2.3346    -4.1876    -0.0437 C.3     
   7 C7             3.7007    -4.8616    -0.1861 C.3     
   8 S8             3.4773    -6.6509    -0.3425 S.3     
   9 C9             7.3358    -7.0742    -0.6037 C.ar    
  10 C10            1.1842     2.0907     0.0020 C.ar    
  11 C11            2.3926     1.4121    -0.0136 C.ar    
  12 C12            2.4065     0.0313    -0.0208 C.ar    
  13 O13            1.7248    -4.6009     1.1808 O.3     
  14 C14            6.9631    -8.4240    -0.7103 C.ar    
  15 C15            7.9352    -9.4017    -0.8590 C.ar    
  16 C16            9.2681    -9.0449    -0.9017 C.ar    
  17 C17            9.6424    -7.7114    -0.7963 C.ar    
  18 C18            8.6885    -6.7276    -0.6529 C.ar    
  19 Cl19          11.3232    -7.2809    -0.8515 Cl      
  20 Cl20          10.4838   -10.2701    -1.0878 Cl      
  21 N21            6.1921    -6.3523    -0.4700 N.2     
  22 C22            5.1586    -7.1577    -0.4872 C.2     
  23 N23            5.5797    -8.4494    -0.6337 N.pl3   
  24 O24           -1.0215     2.2915     0.0296 O.3     
  25 C25           -0.4984     3.5277     0.0282 C.2     
  26 N26            0.8468     3.4460     0.0125 N.am    
  27 O27           -1.1390     4.5612     0.0433 O.2     
  28 H28           -0.9252    -0.5577     0.0083 H       
  29 H29            3.0583    -2.3624    -0.9301 H       
  30 H30            3.0749    -2.3725     0.8498 H       
  31 H31            1.6988    -4.4746    -0.8812 H       
  32 H32            4.2037    -4.4792    -1.0742 H       
  33 H33            4.3055    -4.6466     0.6949 H       
  34 H34            3.3219     1.9624    -0.0194 H       
  35 H35            3.3477    -0.4982    -0.0329 H       
  36 H36            2.2368    -4.3776     1.9701 H       
  37 H37            7.6501   -10.4402    -0.9407 H       
  38 H38            8.9858    -5.6925    -0.5718 H       
  39 H39            5.0154    -9.2372    -0.6761 H       
  40 H40            1.4670     4.1918     0.0082 H       
@<TRIPOS>BOND
   1    1    2 ar
   2    1   10 ar
   3    1   24 1
   4    2    3 ar
   5    2   28 1
   6    3    4 1
   7    3   12 ar
   8    4    5 1
   9    5    6 1
  10    5   29 1
  11    5   30 1
  12    6    7 1
  13    6   13 1
  14    6   31 1
  15    7    8 1
  16    7   32 1
  17    7   33 1
  18    8   22 1
  19    9   14 ar
  20    9   21 1
  21    9   18 ar
  22   10   11 ar
  23   10   26 1
  24   11   12 ar
  25   11   34 1
  26   12   35 1
  27   13   36 1
  28   14   15 ar
  29   14   23 1
  30   15   16 ar
  31   15   37 1
  32   16   17 ar
  33   16   20 1
  34   17   18 ar
  35   17   19 1
  36   18   38 1
  37   21   22 2
  38   22   23 1
  39   23   39 1
  40   24   25 1
  41   25   26 am
  42   25   27 2
  43   26   40 1

#	End of record

