#	Name: ASD02198545
#	Creating user name:	WinNT
#	Creation time:	15. 06. 2019 20:19

#	Modifying user name:	WinNT
#	Modification time:	15. 06. 2019 20:19

#	Program:	/corina/corina34_cracker 3.40 0067  02.08.2006

@<TRIPOS>MOLECULE
ASD02198545
  45   48    0    0    0
SMALL
NO_CHARGES


@<TRIPOS>ATOM
   1 C1            -0.1906     1.1851     0.0099 C.2     
   2 C2            -0.2733    -0.1570    -0.1888 C.2     
   3 N3            -1.4840    -0.7526    -0.3242 N.pl3   
   4 N4            -2.6641    -0.0048    -0.2633 N.2     
   5 C5            -2.6278     1.2916    -0.0732 C.2     
   6 C6            -1.3790     1.9468     0.0789 C.2     
   7 C7            -1.5533    -2.1347    -0.5281 C.ar    
   8 C8            -0.4613    -4.2348    -0.9129 C.ar    
   9 C9            -1.6906    -4.8686    -0.9326 C.ar    
  10 C10           -2.8514    -4.1383    -0.7558 C.ar    
  11 C11           -2.7865    -2.7735    -0.5537 C.ar    
  12 N12           -3.8171     2.0259    -0.0152 N.pl3   
  13 C13           -4.3117     2.6891     1.0729 C.2     
  14 N14           -5.4471     3.2560     0.7296 N.2     
  15 C15           -5.7085     2.9815    -0.5536 C.2     
  16 C16           -4.7058     2.2224    -1.0405 C.2     
  17 C17           -3.6785     2.7569     2.4074 C.ar    
  18 C18           -2.6983     1.8304     2.7658 C.ar    
  19 O19           -1.3309     3.1560     0.2569 O.2     
  20 C20           -4.0543     3.7512     3.3117 C.ar    
  21 C21           -3.4593     3.8091     4.5551 C.ar    
  22 C22           -2.4916     2.8847     4.9060 C.ar    
  23 C23           -2.1111     1.8994     4.0123 C.ar    
  24 C24           -0.3892    -2.8708    -0.7113 C.ar    
  25 F25            0.4756    -6.3835    -1.2857 F       
  26 F26            1.4821    -4.5655    -2.2348 F       
  27 C27            0.8011    -5.0348    -1.1065 C.3     
  28 F28            1.6174    -4.8980     0.0214 F       
  29 O29            1.0214     1.7872     0.1463 O.3     
  30 C30            2.1751     0.9474     0.0704 C.3     
  31 H31            0.6276    -0.7505    -0.2392 H       
  32 H32           -1.7440    -5.9362    -1.0867 H       
  33 H33           -3.8096    -4.6361    -0.7724 H       
  34 H34           -3.6934    -2.2037    -0.4154 H       
  35 H35           -6.5738     3.3153    -1.1071 H       
  36 H36           -4.6224     1.8361    -2.0456 H       
  37 H37           -2.4004     1.0608     2.0691 H       
  38 H38           -4.8090     4.4738     3.0387 H       
  39 H39           -3.7492     4.5781     5.2559 H       
  40 H40           -2.0286     2.9346     5.8805 H       
  41 H41           -1.3551     1.1807     4.2924 H       
  42 H42            0.5709    -2.3765    -0.6965 H       
  43 H43            2.2013     0.4528    -0.9005 H       
  44 H44            3.0734     1.5521     0.1946 H       
  45 H45            2.1305     0.1967     0.8595 H       
@<TRIPOS>BOND
   1    1    2 2
   2    1   29 1
   3    1    6 1
   4    2    3 1
   5    2   31 1
   6    3    4 1
   7    3    7 1
   8    4    5 2
   9    5    6 1
  10    5   12 1
  11    6   19 2
  12    7   24 ar
  13    7   11 ar
  14    8    9 ar
  15    8   27 1
  16    8   24 ar
  17    9   10 ar
  18    9   32 1
  19   10   11 ar
  20   10   33 1
  21   11   34 1
  22   12   13 1
  23   12   16 1
  24   13   14 2
  25   13   17 1
  26   14   15 1
  27   15   16 2
  28   15   35 1
  29   16   36 1
  30   17   20 ar
  31   17   18 ar
  32   18   23 ar
  33   18   37 1
  34   20   21 ar
  35   20   38 1
  36   21   22 ar
  37   21   39 1
  38   22   23 ar
  39   22   40 1
  40   23   41 1
  41   24   42 1
  42   25   27 1
  43   26   27 1
  44   27   28 1
  45   29   30 1
  46   30   43 1
  47   30   44 1
  48   30   45 1

#	End of record

