#	Name: ASD03091215
#	Creating user name:	WinNT
#	Creation time:	15. 06. 2019 20:30

#	Modifying user name:	WinNT
#	Modification time:	15. 06. 2019 20:30

#	Program:	/corina/corina34_cracker 3.40 0067  02.08.2006

@<TRIPOS>MOLECULE
ASD03091215
  60   64    0    0    0
SMALL
NO_CHARGES


@<TRIPOS>ATOM
   1 N1             0.2661     1.3285     0.1405 N.2     
   2 C2             0.2408     0.0221     0.1882 C.2     
   3 N3             1.3429    -0.7555    -0.0451 N.am    
   4 C4             2.5333    -0.1843    -0.3425 C.2     
   5 C5             2.5852     1.2841    -0.4021 C.ar    
   6 C6             3.7630     1.9653    -0.7006 C.ar    
   7 C7             3.7545     3.3493    -0.7438 C.ar    
   8 C8             2.5790     4.0565    -0.4906 C.ar    
   9 C9             1.4172     3.4028    -0.1967 C.ar    
  10 C10            1.3966     2.0054    -0.1463 C.ar    
  11 O11            3.5235    -0.8605    -0.5524 O.2     
  12 C12            1.2334    -2.2146     0.0282 C.3     
  13 C13            1.0375    -2.7826    -1.3789 C.3     
  14 C14            1.0149    -4.3110    -1.3133 C.3     
  15 C15           -0.2876    -2.2771    -1.9530 C.3     
  16 C16           -1.0378    -0.6465     0.5095 C.ar    
  17 C17           -1.1061    -1.5587     1.5638 C.ar    
  18 C18           -2.3035    -2.1796     1.8584 C.ar    
  19 C19           -3.4346    -1.8986     1.1103 C.ar    
  20 C20           -3.3724    -0.9958     0.0642 C.ar    
  21 C21           -2.1831    -0.3639    -0.2365 C.ar    
  22 Cl22          -2.3914    -3.3150     3.1687 Cl      
  23 N23            7.4196     4.6706    -2.5195 N.3     
  24 C24            7.3938     3.8505    -1.2988 C.3     
  25 C25            6.0661     3.1202    -1.1701 C.3     
  26 N26            4.9310     4.0420    -1.0424 N.3     
  27 C27            4.7746     4.8435    -2.2642 C.3     
  28 C28            5.5005     6.1730    -2.1235 C.3     
  29 C29            7.0082     6.0472    -2.2088 C.3     
  30 C30            6.7357     4.1249    -3.6722 C.3     
  31 C31            5.2343     4.0264    -3.4578 C.3     
  32 H32            4.6740     1.4192    -0.8962 H       
  33 H33            2.5883     5.1359    -0.5272 H       
  34 H34            0.5151     3.9641    -0.0030 H       
  35 H35            2.1446    -2.6260     0.4625 H       
  36 H36            0.3803    -2.4841     0.6509 H       
  37 H37            1.8580    -2.4585    -2.0190 H       
  38 H38            0.1943    -4.6351    -0.6731 H       
  39 H39            0.8753    -4.7157    -2.3157 H       
  40 H40            1.9589    -4.6711    -0.9043 H       
  41 H41           -0.2448    -1.1939    -2.0664 H       
  42 H42           -0.4614    -2.7377    -2.9255 H       
  43 H43           -1.1006    -2.5397    -1.2761 H       
  44 H44           -0.2244    -1.7786     2.1474 H       
  45 H45           -4.3691    -2.3867     1.3444 H       
  46 H46           -4.2579    -0.7816    -0.5159 H       
  47 H47           -2.1376     0.3446    -1.0503 H       
  48 H48            8.2025     3.1208    -1.3393 H       
  49 H49            7.5351     4.4942    -0.4306 H       
  50 H50            5.9182     2.4983    -2.0530 H       
  51 H51            6.1002     2.4781    -0.2900 H       
  52 H52            3.7127     5.0501    -2.3982 H       
  53 H53            5.1604     6.8423    -2.9137 H       
  54 H54            5.2405     6.6130    -1.1607 H       
  55 H55            7.4445     6.3422    -1.2545 H       
  56 H56            7.3774     6.7135    -2.9885 H       
  57 H57            6.9286     4.7647    -4.5334 H       
  58 H58            7.1294     3.1295    -3.8783 H       
  59 H59            4.9672     2.9820    -3.2962 H       
  60 H60            4.7244     4.3866    -4.3513 H       
@<TRIPOS>BOND
   1    1    2 2
   2    1   10 1
   3    2    3 1
   4    2   16 1
   5    3    4 am
   6    3   12 1
   7    4    5 1
   8    4   11 2
   9    5    6 ar
  10    5   10 ar
  11    6    7 ar
  12    6   32 1
  13    7    8 ar
  14    7   26 1
  15    8    9 ar
  16    8   33 1
  17    9   10 ar
  18    9   34 1
  19   12   13 1
  20   12   35 1
  21   12   36 1
  22   13   14 1
  23   13   15 1
  24   13   37 1
  25   14   38 1
  26   14   39 1
  27   14   40 1
  28   15   41 1
  29   15   42 1
  30   15   43 1
  31   16   17 ar
  32   16   21 ar
  33   17   18 ar
  34   17   44 1
  35   18   19 ar
  36   18   22 1
  37   19   20 ar
  38   19   45 1
  39   20   21 ar
  40   20   46 1
  41   21   47 1
  42   23   24 1
  43   23   29 1
  44   23   30 1
  45   24   25 1
  46   24   48 1
  47   24   49 1
  48   25   26 1
  49   25   50 1
  50   25   51 1
  51   26   27 1
  52   27   28 1
  53   27   31 1
  54   27   52 1
  55   28   29 1
  56   28   53 1
  57   28   54 1
  58   29   55 1
  59   29   56 1
  60   30   31 1
  61   30   57 1
  62   30   58 1
  63   31   59 1
  64   31   60 1

#	End of record

