#	Name: ASD09116397
#	Creating user name:	WinNT
#	Creation time:	15. 06. 2019 21:21

#	Modifying user name:	WinNT
#	Modification time:	15. 06. 2019 21:21

#	Program:	/corina/corina34_cracker 3.40 0067  02.08.2006

@<TRIPOS>MOLECULE
ASD09116397
  61   67    0    0    0
SMALL
NO_CHARGES


@<TRIPOS>ATOM
   1 N1            -0.0296     1.4182     0.1445 N.2     
   2 N2            -0.0208     0.0192     0.2650 N.pl3   
   3 C3             1.2224     1.8078     0.1153 C.2     
   4 N4             2.0155     0.7341     0.2104 N.2     
   5 C5             1.2801    -0.3532     0.3015 C.2     
   6 N6             1.7524    -1.6470     0.4154 N.pl3   
   7 C7            -1.1338    -0.8214     0.3336 C.ar    
   8 N8             1.6573     3.1283     0.0023 N.pl3   
   9 C9             3.0222     3.4264     0.0967 C.ar    
  10 C10            3.5421     4.5220    -0.5810 C.ar    
  11 C11            3.8545     2.6305     0.8720 C.ar    
  12 C12            5.2014     2.9239     0.9657 C.ar    
  13 C13            5.7232     4.0147     0.2853 C.ar    
  14 C14            4.8893     4.8159    -0.4876 C.ar    
  15 N15           -1.0325    -2.0870    -0.0430 N.ar    
  16 N16           -2.0310    -2.8948    -0.0181 N.ar    
  17 C17           -3.2331    -2.5051     0.3881 C.ar    
  18 C18           -3.4232    -1.2030     0.8431 C.ar    
  19 C19           -2.3531    -0.3296     0.8047 C.ar    
  20 C20           -4.3906    -3.4242     0.3059 C.ar    
  21 C21           -5.5564    -3.0057    -0.3440 C.ar    
  22 S22           -5.5965    -1.4115    -1.0948 S.3     
  23 C23           -5.6985    -0.2860     0.3309 C.3     
  24 C24           -4.7411    -0.7830     1.4183 C.3     
  25 C25           -4.3326    -4.6951     0.8698 C.ar    
  26 C26           -5.4338    -5.5260     0.7967 C.ar    
  27 C27           -6.5922    -5.1017     0.1688 C.ar    
  28 C28           -6.6587    -3.8438    -0.4014 C.ar    
  29 F29            5.3968     5.8781    -1.1504 F       
  30 N30            7.0893     4.3122     0.3809 N.3     
  31 C31            7.4774     4.5785     1.7847 C.3     
  32 C32            8.8965     4.0748     1.9187 C.ar    
  33 C33            9.1562     3.2229     0.8587 C.ar    
  34 C34            7.9148     3.1438    -0.0004 C.3     
  35 C35            9.8762     4.3226     2.8611 C.ar    
  36 C36           11.1149     3.7203     2.7460 C.ar    
  37 C37           11.3741     2.8692     1.6877 C.ar    
  38 C38           10.3949     2.6212     0.7443 C.ar    
  39 H39            2.7076    -1.8148     0.4335 H       
  40 H40            1.1287    -2.3873     0.4773 H       
  41 H41            1.0142     3.8400    -0.1416 H       
  42 H42            2.8939     5.1435    -1.1809 H       
  43 H43            3.4488     1.7817     1.4025 H       
  44 H44            5.8482     2.3042     1.5690 H       
  45 H45           -2.4579     0.6981     1.1197 H       
  46 H46           -5.4124     0.7199     0.0238 H       
  47 H47           -6.7176    -0.2769     0.7173 H       
  48 H48           -5.1934    -1.6330     1.9292 H       
  49 H49           -4.5756     0.0173     2.1396 H       
  50 H50           -3.4314    -5.0302     1.3616 H       
  51 H51           -5.3906    -6.5134     1.2321 H       
  52 H52           -7.4494    -5.7571     0.1244 H       
  53 H53           -7.5649    -3.5161    -0.8891 H       
  54 H54            7.4365     5.6481     1.9902 H       
  55 H55            6.8202     4.0381     2.4659 H       
  56 H56            7.3748     2.2190     0.2026 H       
  57 H57            8.1828     3.2004    -1.0554 H       
  58 H58            9.6740     4.9874     3.6879 H       
  59 H59           11.8803     3.9143     3.4829 H       
  60 H60           12.3421     2.3986     1.5978 H       
  61 H61           10.5977     1.9563    -0.0822 H       
@<TRIPOS>BOND
   1    1    2 1
   2    1    3 2
   3    2    7 1
   4    2    5 1
   5    3    4 1
   6    3    8 1
   7    4    5 2
   8    5    6 1
   9    6   39 1
  10    6   40 1
  11    7   15 ar
  12    7   19 ar
  13    8    9 1
  14    8   41 1
  15    9   10 ar
  16    9   11 ar
  17   10   14 ar
  18   10   42 1
  19   11   12 ar
  20   11   43 1
  21   12   13 ar
  22   12   44 1
  23   13   14 ar
  24   13   30 1
  25   14   29 1
  26   15   16 ar
  27   16   17 ar
  28   17   18 ar
  29   17   20 1
  30   18   19 ar
  31   18   24 1
  32   19   45 1
  33   20   21 ar
  34   20   25 ar
  35   21   22 1
  36   21   28 ar
  37   22   23 1
  38   23   24 1
  39   23   46 1
  40   23   47 1
  41   24   48 1
  42   24   49 1
  43   25   26 ar
  44   25   50 1
  45   26   27 ar
  46   26   51 1
  47   27   28 ar
  48   27   52 1
  49   28   53 1
  50   30   31 1
  51   30   34 1
  52   31   32 1
  53   31   54 1
  54   31   55 1
  55   32   33 ar
  56   32   35 ar
  57   33   34 1
  58   33   38 ar
  59   34   56 1
  60   34   57 1
  61   35   36 ar
  62   35   58 1
  63   36   37 ar
  64   36   59 1
  65   37   38 ar
  66   37   60 1
  67   38   61 1

#	End of record

