#	Name: ASD01028531
#	Creating user name:	WinNT
#	Creation time:	15. 06. 2019 18:57

#	Modifying user name:	WinNT
#	Modification time:	15. 06. 2019 18:57

#	Program:	/corina/corina34_cracker 3.40 0067  02.08.2006

@<TRIPOS>MOLECULE
ASD01028531
  41   45    0    0    0
SMALL
NO_CHARGES


@<TRIPOS>ATOM
   1 N1            -0.0169     1.3922     0.0097 N.2     
   2 N2             0.0021    -0.0041     0.0020 N.pl3   
   3 C3             1.1095     2.0749     0.0026 C.2     
   4 C4             2.3566     1.4101    -0.0129 C.2     
   5 C5             2.4043     0.0528    -0.0211 C.2     
   6 C6             1.1999    -0.6773    -0.0130 C.2     
   7 N7             0.9131    -1.9690    -0.0179 N.2     
   8 N8            -0.3652    -2.1205    -0.0060 N.2     
   9 C9            -0.9592    -0.9530     0.0057 C.2     
  10 C10           -2.4467    -0.7120     0.0218 C.3     
  11 C11            1.0688     3.5513     0.0104 C.2     
  12 C12           -2.9284    -0.6392     1.4479 C.ar    
  13 C13           -2.9537     0.5624     2.0881 C.ar    
  14 C14           -3.3473    -1.8013     2.0921 C.ar    
  15 C15           -3.7880    -1.7708     3.3795 C.ar    
  16 C16           -3.8235    -0.5504     4.0758 C.ar    
  17 C17           -3.4022     0.6313     3.4166 C.ar    
  18 N18           -4.2510    -0.4898     5.3410 N.ar    
  19 C19           -4.2856     0.6458     5.9949 C.ar    
  20 C20           -3.8811     1.8428     5.4076 C.ar    
  21 C21           -3.4385     1.8527     4.1156 C.ar    
  22 C22           -0.0534     4.2995     0.0247 C.2     
  23 C23            0.1618     5.6611     0.0295 C.2     
  24 C24            1.4464     6.0317     0.0194 C.2     
  25 S25            2.4762     4.6062     0.0102 S.3     
  26 C26           -0.9677     6.6585     0.0446 C.3     
  27 H27            3.2727     1.9821    -0.0185 H       
  28 H28            3.3545    -0.4605    -0.0329 H       
  29 H29           -2.6681     0.2274    -0.4849 H       
  30 H30           -2.9528    -1.5296    -0.4914 H       
  31 H31           -2.6303     1.4571     1.5769 H       
  32 H32           -3.3222    -2.7415     1.5612 H       
  33 H33           -4.1095    -2.6809     3.8640 H       
  34 H34           -4.6374     0.6539     7.0160 H       
  35 H35           -3.9216     2.7627     5.9721 H       
  36 H36           -3.1208     2.7713     3.6447 H       
  37 H37           -1.0425     3.8660     0.0314 H       
  38 H38            1.7986     7.0527     0.0212 H       
  39 H39           -1.2308     6.8939     1.0759 H       
  40 H40           -0.6556     7.5687    -0.4675 H       
  41 H41           -1.8338     6.2344    -0.4635 H       
@<TRIPOS>BOND
   1    1    2 1
   2    1    3 2
   3    2    6 1
   4    2    9 1
   5    3    4 1
   6    3   11 1
   7    4    5 2
   8    4   27 1
   9    5    6 1
  10    5   28 1
  11    6    7 2
  12    7    8 1
  13    8    9 2
  14    9   10 1
  15   10   12 1
  16   10   29 1
  17   10   30 1
  18   11   22 2
  19   11   25 1
  20   12   13 ar
  21   12   14 ar
  22   13   17 ar
  23   13   31 1
  24   14   15 ar
  25   14   32 1
  26   15   16 ar
  27   15   33 1
  28   16   17 ar
  29   16   18 ar
  30   17   21 ar
  31   18   19 ar
  32   19   20 ar
  33   19   34 1
  34   20   21 ar
  35   20   35 1
  36   21   36 1
  37   22   23 1
  38   22   37 1
  39   23   24 2
  40   23   26 1
  41   24   25 1
  42   24   38 1
  43   26   39 1
  44   26   40 1
  45   26   41 1

#	End of record

