#	Name: ASD02198536
#	Creating user name:	WinNT
#	Creation time:	15. 06. 2019 20:19

#	Modifying user name:	WinNT
#	Modification time:	15. 06. 2019 20:19

#	Program:	/corina/corina34_cracker 3.40 0067  02.08.2006

@<TRIPOS>MOLECULE
ASD02198536
  74   80    0    0    0
SMALL
NO_CHARGES


@<TRIPOS>ATOM
   1 C1             0.8967    -0.0632     0.4982 C.2     
   2 C2             0.2674     0.4298     1.5948 C.2     
   3 N3             0.8235     1.4225     2.3245 N.pl3   
   4 N4             1.9542     1.9557     2.0412 N.2     
   5 C5             2.6677     1.5724     1.0067 C.2     
   6 C6             2.1488     0.4961     0.1483 C.2     
   7 C7             0.1300     1.8917     3.4450 C.ar    
   8 C8            -1.8398     1.9067     4.8128 C.ar    
   9 C9            -1.2423     2.8208     5.6609 C.ar    
  10 C10            0.0378     3.2758     5.4012 C.ar    
  11 C11            0.7254     2.8143     4.2963 C.ar    
  12 C12            3.9705     2.2124     0.7099 C.2     
  13 C13            5.2422     1.5858     0.7518 C.2     
  14 N14            6.1444     2.4846     0.4246 N.2     
  15 N15            5.4906     3.6953     0.1670 N.pl3   
  16 C16            4.1662     3.5106     0.3405 C.2     
  17 C17            5.5072     0.1693     1.1021 C.ar    
  18 C18            4.7733    -0.4505     2.1120 C.ar    
  19 O19            2.7724     0.1020    -0.8261 O.2     
  20 C20            6.4869    -0.5488     0.4188 C.ar    
  21 C21            6.7289    -1.8668     0.7488 C.ar    
  22 C22            6.0008    -2.4754     1.7552 C.ar    
  23 C23            5.0239    -1.7690     2.4335 C.ar    
  24 C24           -1.1576     1.4409     3.7058 C.ar    
  25 F25           -3.6686     1.9295     6.3256 F       
  26 F26           -4.0975     1.8394     4.0835 F       
  27 C27           -3.2349     1.4141     5.0994 C.3     
  28 F28           -3.2336     0.0162     5.1553 F       
  29 C29            6.1356     4.9495    -0.2293 C.3     
  30 C30            7.6098     4.8739     0.0741 C.ar    
  31 C31            5.9376     5.1712    -1.7067 C.ar    
  32 C32            5.5230     6.0935     0.5368 C.ar    
  33 C33            8.3619     3.8196    -0.4094 C.ar    
  34 C34            8.2112     5.8619     0.8312 C.ar    
  35 C35            9.5634     5.7926     1.1095 C.ar    
  36 C36           10.3143     4.7351     0.6312 C.ar    
  37 C37            9.7141     3.7503    -0.1310 C.ar    
  38 C38            5.5864     6.1132     1.9176 C.ar    
  39 C39            4.9027     7.1260    -0.1413 C.ar    
  40 C40            4.3408     8.1754     0.5615 C.ar    
  41 C41            4.3988     8.1920     1.9425 C.ar    
  42 C42            5.0245     7.1625     2.6204 C.ar    
  43 C43            6.5761     6.2212    -2.3398 C.ar    
  44 C44            5.1219     4.3213    -2.4300 C.ar    
  45 C45            4.9402     4.5246    -3.7851 C.ar    
  46 C46            5.5739     5.5782    -4.4170 C.ar    
  47 C47            6.3945     6.4246    -3.6950 C.ar    
  48 H48            0.4587    -0.8592    -0.0856 H       
  49 H49           -0.6897     0.0243     1.8879 H       
  50 H50           -1.7765     3.1806     6.5278 H       
  51 H51            0.5014     3.9904     6.0653 H       
  52 H52            1.7251     3.1697     4.0944 H       
  53 H53            3.3978     4.2592     0.2155 H       
  54 H54            4.0104     0.1001     2.6422 H       
  55 H55            7.0555    -0.0748    -0.3676 H       
  56 H56            7.4878    -2.4243     0.2200 H       
  57 H57            6.1932    -3.5072     2.0099 H       
  58 H58            4.4585    -2.2492     3.2185 H       
  59 H59           -1.6250     0.7272     3.0435 H       
  60 H60            7.8929     3.0499    -1.0043 H       
  61 H61            7.6246     6.6881     1.2049 H       
  62 H62           10.0334     6.5649     1.7004 H       
  63 H63           11.3708     4.6811     0.8484 H       
  64 H64           10.3007     2.9241    -0.5047 H       
  65 H65            6.0747     5.3085     2.4473 H       
  66 H66            4.8573     7.1130    -1.2203 H       
  67 H67            3.8567     8.9824     0.0316 H       
  68 H68            3.9601     9.0121     2.4916 H       
  69 H69            5.0699     7.1755     3.6994 H       
  70 H70            7.2167     6.8828    -1.7755 H       
  71 H71            4.6268     3.4981    -1.9363 H       
  72 H72            4.3034     3.8602    -4.3503 H       
  73 H73            5.4323     5.7369    -5.4759 H       
  74 H74            6.8896     7.2477    -4.1886 H       
@<TRIPOS>BOND
   1    1    2 2
   2    1    6 1
   3    1   48 1
   4    2    3 1
   5    2   49 1
   6    3    4 1
   7    3    7 1
   8    4    5 2
   9    5    6 1
  10    5   12 1
  11    6   19 2
  12    7   24 ar
  13    7   11 ar
  14    8    9 ar
  15    8   27 1
  16    8   24 ar
  17    9   10 ar
  18    9   50 1
  19   10   11 ar
  20   10   51 1
  21   11   52 1
  22   12   13 1
  23   12   16 2
  24   13   14 2
  25   13   17 1
  26   14   15 1
  27   15   16 1
  28   15   29 1
  29   16   53 1
  30   17   20 ar
  31   17   18 ar
  32   18   23 ar
  33   18   54 1
  34   20   21 ar
  35   20   55 1
  36   21   22 ar
  37   21   56 1
  38   22   23 ar
  39   22   57 1
  40   23   58 1
  41   24   59 1
  42   25   27 1
  43   26   27 1
  44   27   28 1
  45   29   30 1
  46   29   31 1
  47   29   32 1
  48   30   33 ar
  49   30   34 ar
  50   31   43 ar
  51   31   44 ar
  52   32   38 ar
  53   32   39 ar
  54   33   37 ar
  55   33   60 1
  56   34   35 ar
  57   34   61 1
  58   35   36 ar
  59   35   62 1
  60   36   37 ar
  61   36   63 1
  62   37   64 1
  63   38   42 ar
  64   38   65 1
  65   39   40 ar
  66   39   66 1
  67   40   41 ar
  68   40   67 1
  69   41   42 ar
  70   41   68 1
  71   42   69 1
  72   43   47 ar
  73   43   70 1
  74   44   45 ar
  75   44   71 1
  76   45   46 ar
  77   45   72 1
  78   46   47 ar
  79   46   73 1
  80   47   74 1

#	End of record

