#	Name: ASD01881857
#	Creating user name:	WinNT
#	Creation time:	15. 06. 2019 19:43

#	Modifying user name:	WinNT
#	Modification time:	15. 06. 2019 19:43

#	Program:	/corina/corina34_cracker 3.40 0067  02.08.2006

@<TRIPOS>MOLECULE
ASD01881857
  33   36    0    0    0
SMALL
NO_CHARGES


@<TRIPOS>ATOM
   1 N1             0.1045     1.1472    -1.0669 N.pl3   
   2 N2             0.1365    -0.1370    -0.9712 N.2     
   3 N3             1.3184    -0.5659    -0.6982 N.2     
   4 C4             2.1596     0.4831    -0.5979 C.ar    
   5 C5             1.3725     1.6251    -0.8391 C.ar    
   6 C6             3.5226     0.6299    -0.3271 C.ar    
   7 C7             4.0776     1.8941    -0.3002 C.ar    
   8 C8             3.2882     3.0162    -0.5405 C.ar    
   9 C9             1.9539     2.8860    -0.8073 C.ar    
  10 O10            5.4033     2.0444    -0.0370 O.3     
  11 O11            7.9636     3.1009    -0.4998 O.3     
  12 C12            7.2402     3.5896     0.6372 C.3     
  13 C13            5.9405     3.3642    -0.1452 C.3     
  14 C14            6.8929     3.5698    -1.3296 C.3     
  15 C15           -1.0774     1.9573    -1.3719 C.3     
  16 C16           -1.7851     2.3373    -0.0698 C.3     
  17 C17           -2.9822     3.2852    -0.1670 C.3     
  18 C18           -3.2028     1.8038     0.1455 C.3     
  19 Br19           4.5984    -0.8904     0.0004 Br      
  20 H20            3.7350     3.9992    -0.5161 H       
  21 H21            1.3518     3.7633    -0.9923 H       
  22 H22            7.3326     2.9513     1.5159 H       
  23 H23            7.4367     4.6390     0.8568 H       
  24 H24            5.1948     4.1493    -0.0208 H       
  25 H25            6.9986     4.6140    -1.6236 H       
  26 H26            6.6809     2.9141    -2.1742 H       
  27 H27           -0.7720     2.8623    -1.8970 H       
  28 H28           -1.7581     1.3841    -2.0015 H       
  29 H29           -1.1423     2.4266     0.8060 H       
  30 H30           -3.1271     3.9978     0.6450 H       
  31 H31           -3.2656     3.6380    -1.1586 H       
  32 H32           -3.6314     1.1820    -0.6406 H       
  33 H33           -3.4929     1.5418     1.1630 H       
@<TRIPOS>BOND
   1    1    2 1
   2    1    5 1
   3    1   15 1
   4    2    3 2
   5    3    4 1
   6    4    5 ar
   7    4    6 ar
   8    5    9 ar
   9    6    7 ar
  10    6   19 1
  11    7    8 ar
  12    7   10 1
  13    8    9 ar
  14    8   20 1
  15    9   21 1
  16   10   13 1
  17   11   12 1
  18   11   14 1
  19   12   13 1
  20   12   22 1
  21   12   23 1
  22   13   14 1
  23   13   24 1
  24   14   25 1
  25   14   26 1
  26   15   16 1
  27   15   27 1
  28   15   28 1
  29   16   17 1
  30   16   18 1
  31   16   29 1
  32   17   18 1
  33   17   30 1
  34   17   31 1
  35   18   32 1
  36   18   33 1

#	End of record

