#	Name: ASD03330281
#	Creating user name:	WinNT
#	Creation time:	15. 06. 2019 20:36

#	Modifying user name:	WinNT
#	Modification time:	15. 06. 2019 20:36

#	Program:	/corina/corina34_cracker 3.40 0067  02.08.2006

@<TRIPOS>MOLECULE
ASD03330281
  48   51    0    0    0
SMALL
NO_CHARGES


@<TRIPOS>ATOM
   1 C1            -0.0092     1.4932    -0.0054 C.3     
   2 N2            -0.0307     0.0239    -0.0328 N.3     
   3 C3             0.4280    -0.4909    -1.3356 C.3     
   4 C4             1.7292     0.1900    -1.6736 C.2     
   5 N5             2.1774     1.3114    -1.0506 N.pl3   
   6 C6             1.4416     1.9911     0.0195 C.3     
   7 C7             2.6560    -0.1514    -2.6033 C.2     
   8 N8             3.6564     0.7568    -2.5382 N.2     
   9 C9             3.3740     1.6384    -1.6053 C.2     
  10 C10            4.2171     2.7927    -1.2233 C.ar    
  11 C11            5.2566     3.2070    -2.0564 C.ar    
  12 C12            2.5858    -1.3038    -3.5191 C.2     
  13 O13            1.6884    -2.1168    -3.4057 O.2     
  14 N14            3.5159    -1.4568    -4.4824 N.am    
  15 C15            6.0389     4.2844    -1.6947 C.ar    
  16 C16            5.7943     4.9535    -0.5088 C.ar    
  17 C17            4.7650     4.5476     0.3217 C.ar    
  18 C18            3.9722     3.4749    -0.0312 C.ar    
  19 C19           -1.3675    -0.4893     0.2950 C.3     
  20 C20            4.5260    -0.4165    -4.7196 C.3     
  21 C21            5.9164    -1.0571    -4.6621 C.3     
  22 C22            5.9757    -2.2270    -5.6470 C.3     
  23 C23            4.9409    -3.2826    -5.2508 C.3     
  24 C24            3.5429    -2.6697    -5.3111 C.3     
  25 H25           -0.5097     1.8795    -0.8933 H       
  26 H26           -0.5289     1.8466     0.8851 H       
  27 H27            0.5814    -1.5682    -1.2728 H       
  28 H28           -0.3144    -0.2679    -2.1019 H       
  29 H29            1.4636     3.0682    -0.1459 H       
  30 H30            1.8943     1.7571     0.9830 H       
  31 H31            5.4488     2.6852    -2.9823 H       
  32 H32            6.8442     4.6059    -2.3386 H       
  33 H33            6.4097     5.7961    -0.2300 H       
  34 H34            4.5790     5.0740     1.2462 H       
  35 H35            3.1689     3.1589     0.6179 H       
  36 H36           -2.0993    -0.0601    -0.3894 H       
  37 H37           -1.3735    -1.5750     0.1991 H       
  38 H38           -1.6218    -0.2135     1.3184 H       
  39 H39            4.3689     0.0281    -5.7023 H       
  40 H40            4.4460     0.3525    -3.9512 H       
  41 H41            6.6696    -0.3165    -4.9312 H       
  42 H42            6.1078    -1.4212    -3.6527 H       
  43 H43            5.7598    -1.8664    -6.6527 H       
  44 H44            6.9718    -2.6692    -5.6260 H       
  45 H45            4.9997    -4.1259    -5.9387 H       
  46 H46            5.1415    -3.6257    -4.2358 H       
  47 H47            2.8130    -3.3868    -4.9353 H       
  48 H48            3.3032    -2.4071    -6.3415 H       
@<TRIPOS>BOND
   1    1    2 1
   2    1    6 1
   3    1   25 1
   4    1   26 1
   5    2    3 1
   6    2   19 1
   7    3    4 1
   8    3   27 1
   9    3   28 1
  10    4    5 1
  11    4    7 2
  12    5    6 1
  13    5    9 1
  14    6   29 1
  15    6   30 1
  16    7    8 1
  17    7   12 1
  18    8    9 2
  19    9   10 1
  20   10   11 ar
  21   10   18 ar
  22   11   15 ar
  23   11   31 1
  24   12   13 2
  25   12   14 am
  26   14   20 1
  27   14   24 1
  28   15   16 ar
  29   15   32 1
  30   16   17 ar
  31   16   33 1
  32   17   18 ar
  33   17   34 1
  34   18   35 1
  35   19   36 1
  36   19   37 1
  37   19   38 1
  38   20   21 1
  39   20   39 1
  40   20   40 1
  41   21   22 1
  42   21   41 1
  43   21   42 1
  44   22   23 1
  45   22   43 1
  46   22   44 1
  47   23   24 1
  48   23   45 1
  49   23   46 1
  50   24   47 1
  51   24   48 1

#	End of record

