#	Name: ASD01440007
#	Creating user name:	WinNT
#	Creation time:	15. 06. 2019 19:20

#	Modifying user name:	WinNT
#	Modification time:	15. 06. 2019 19:20

#	Program:	/corina/corina34_cracker 3.40 0067  02.08.2006

@<TRIPOS>MOLECULE
ASD01440007
  46   47    0    0    0
SMALL
NO_CHARGES


@<TRIPOS>ATOM
   1 O1             0.0021    -0.0041     0.0020 O.2     
   2 N2            -0.0144     1.2138     0.0087 N.pl3   
   3 O3             1.0320     1.8371     0.0021 O.2     
   4 C4            -1.3062     1.9364     0.0188 C.ar    
   5 C5            -2.4939     1.2290     0.0206 C.ar    
   6 C6            -3.7003     1.9039     0.0299 C.ar    
   7 C7            -3.7190     3.2861     0.0379 C.ar    
   8 C8            -2.5314     3.9934     0.0370 C.ar    
   9 C9            -1.3250     3.3186     0.0321 C.ar    
  10 C10           -5.0342     4.0217     0.0471 C.3     
  11 C11           -5.4739     4.2624     1.4927 C.3     
  12 N12           -6.7524     4.9776     1.5016 N.am    
  13 C13           -7.9104     4.2879     1.5020 C.2     
  14 O14           -8.9688     4.8800     1.5094 O.2     
  15 C15           -7.8899     2.7811     1.4933 C.3     
  16 F16           -9.2024     2.2969     1.4954 F       
  17 F17           -7.2285     2.3303     0.3459 F       
  18 F18           -7.2199     2.3172     2.6304 F       
  19 C19           -6.7723     6.4424     1.5101 C.3     
  20 C20           -6.7846     6.9607     0.0706 C.3     
  21 O21           -8.0028     6.5698    -0.5660 O.3     
  22 C22           -8.1742     6.9531    -1.8585 C.ar    
  23 C23           -9.3336     6.6079    -2.5377 C.ar    
  24 C24           -9.5056     6.9992    -3.8514 C.ar    
  25 C25           -8.5235     7.7343    -4.4892 C.ar    
  26 C26           -7.3672     8.0797    -3.8144 C.ar    
  27 C27           -7.1926     7.6953    -2.4991 C.ar    
  28 N28           -8.7101     8.1518    -5.8968 N.pl3   
  29 O29           -9.7282     7.8478    -6.4924 O.2     
  30 O30           -7.8457     8.7994    -6.4597 O.2     
  31 H31           -2.4792     0.1491     0.0143 H       
  32 H32           -4.6282     1.3512     0.0306 H       
  33 H33           -2.5460     5.0733     0.0429 H       
  34 H34           -0.3971     3.8712     0.0314 H       
  35 H35           -4.9188     4.9788    -0.4617 H       
  36 H36           -5.7877     3.4254    -0.4673 H       
  37 H37           -5.5893     3.3054     2.0015 H       
  38 H38           -4.7204     4.8588     2.0071 H       
  39 H39           -7.6652     6.7907     2.0293 H       
  40 H40           -5.8854     6.8149     2.0227 H       
  41 H41           -6.7098     8.0481     0.0753 H       
  42 H42           -5.9390     6.5406    -0.4741 H       
  43 H43          -10.1008     6.0334    -2.0401 H       
  44 H44          -10.4078     6.7303    -4.3807 H       
  45 H45           -6.6014     8.6536    -4.3150 H       
  46 H46           -6.2893     7.9653    -1.9724 H       
@<TRIPOS>BOND
   1    1    2 2
   2    2    3 2
   3    2    4 1
   4    4    5 ar
   5    4    9 ar
   6    5    6 ar
   7    5   31 1
   8    6    7 ar
   9    6   32 1
  10    7    8 ar
  11    7   10 1
  12    8    9 ar
  13    8   33 1
  14    9   34 1
  15   10   11 1
  16   10   35 1
  17   10   36 1
  18   11   12 1
  19   11   37 1
  20   11   38 1
  21   12   13 am
  22   12   19 1
  23   13   14 2
  24   13   15 1
  25   15   16 1
  26   15   17 1
  27   15   18 1
  28   19   20 1
  29   19   39 1
  30   19   40 1
  31   20   21 1
  32   20   41 1
  33   20   42 1
  34   21   22 1
  35   22   23 ar
  36   22   27 ar
  37   23   24 ar
  38   23   43 1
  39   24   25 ar
  40   24   44 1
  41   25   26 ar
  42   25   28 1
  43   26   27 ar
  44   26   45 1
  45   27   46 1
  46   28   29 2
  47   28   30 2

#	End of record

