#	Name: ASD02560361
#	Creating user name:	WinNT
#	Creation time:	15. 06. 2019 20:25

#	Modifying user name:	WinNT
#	Modification time:	15. 06. 2019 20:25

#	Program:	/corina/corina34_cracker 3.40 0067  02.08.2006

@<TRIPOS>MOLECULE
ASD02560361
  36   38    0    0    0
SMALL
NO_CHARGES


@<TRIPOS>ATOM
   1 C1            -0.0170     1.4022     0.0098 C.2     
   2 C2             0.0021    -0.0041     0.0020 C.2     
   3 C3             1.1743    -0.6696    -0.0123 C.2     
   4 N4             2.3612     0.0114    -0.0195 N.pl3   
   5 C5             2.3736     1.3873    -0.0127 C.2     
   6 C6             1.1535     2.0938     0.0023 C.2     
   7 C7             3.6659    -0.4006    -0.0340 C.2     
   8 C8             4.4368     0.7161    -0.0358 C.2     
   9 N9             3.6353     1.7872    -0.0227 N.2     
  10 C10            5.9435     0.7449    -0.0496 C.3     
  11 N11            4.1201    -1.7252    -0.0446 N.3     
  12 C12            2.9936    -2.6680    -0.0388 C.3     
  13 C13            3.5283    -4.1015    -0.0506 C.3     
  14 C14            2.3550    -5.0835    -0.0445 C.3     
  15 C15            2.8897    -6.5170    -0.0564 C.3     
  16 C16            6.6260     1.4425    -1.2279 C.3     
  17 C17            6.6261     2.0989     0.1541 C.3     
  18 H18           -0.9586     1.9311     0.0171 H       
  19 H19           -0.9275    -0.5538     0.0079 H       
  20 H20            1.1768    -1.7496    -0.0178 H       
  21 H21            1.1487     3.1738     0.0074 H       
  22 H22            6.4344    -0.1344     0.3677 H       
  23 H23            4.7278    -1.8928    -0.8325 H       
  24 H24            2.3935    -2.5115     0.8576 H       
  25 H25            2.3770    -2.5029    -0.9223 H       
  26 H26            4.1284    -4.2581    -0.9470 H       
  27 H27            4.1449    -4.2667     0.8329 H       
  28 H28            1.7549    -4.9270     0.8518 H       
  29 H29            1.7384    -4.9184    -0.9281 H       
  30 H30            3.5063    -6.6821     0.8271 H       
  31 H31            2.0538    -7.2166    -0.0520 H       
  32 H32            3.4898    -6.6735    -0.9527 H       
  33 H33            7.5660     1.0224    -1.5856 H       
  34 H34            5.9852     1.8806    -1.9931 H       
  35 H35            5.9854     2.9689     0.2981 H       
  36 H36            7.5662     2.1107     0.7056 H       
@<TRIPOS>BOND
   1    1    2 1
   2    1    6 2
   3    1   18 1
   4    2    3 2
   5    2   19 1
   6    3    4 1
   7    3   20 1
   8    4    5 1
   9    4    7 1
  10    5    6 1
  11    5    9 2
  12    6   21 1
  13    7    8 2
  14    7   11 1
  15    8    9 1
  16    8   10 1
  17   10   16 1
  18   10   17 1
  19   10   22 1
  20   11   12 1
  21   11   23 1
  22   12   13 1
  23   12   24 1
  24   12   25 1
  25   13   14 1
  26   13   26 1
  27   13   27 1
  28   14   15 1
  29   14   28 1
  30   14   29 1
  31   15   30 1
  32   15   31 1
  33   15   32 1
  34   16   17 1
  35   16   33 1
  36   16   34 1
  37   17   35 1
  38   17   36 1

#	End of record

