#	Name: ASD03091672
#	Creating user name:	WinNT
#	Creation time:	15. 06. 2019 20:31

#	Modifying user name:	WinNT
#	Modification time:	15. 06. 2019 20:31

#	Program:	/corina/corina34_cracker 3.40 0067  02.08.2006

@<TRIPOS>MOLECULE
ASD03091672
  40   42    0    0    0
SMALL
NO_CHARGES


@<TRIPOS>ATOM
   1 Cl1            0.0000     0.0000     0.0000 Cl      
   2 H2             0.0000     1.3700     0.0000 H       
   3 C3            14.5223    10.3471     6.5680 C.ar    
   4 C4            14.5413     8.9470     6.5603 C.ar    
   5 C5            15.7626     8.2651     6.5450 C.ar    
   6 C6            16.9471     8.9611     6.5374 C.ar    
   7 C7            16.9421    10.3503     6.5453 C.ar    
   8 C8            15.7579    11.0425     6.5599 C.ar    
   9 S9            12.8907     8.3359     6.5734 S.3     
  10 C10           12.2353     9.9637     6.5886 C.2     
  11 C11           13.2194    10.8687     6.5890 C.2     
  12 C12           10.8021    10.2874     6.6046 C.2     
  13 O13           10.4410    11.4491     6.6140 O.2     
  14 N14            9.8876     9.2974     6.6089 N.am    
  15 N15            6.9517     8.8770     8.4059 N.3     
  16 C16            8.0003     9.8488     8.0680 C.3     
  17 C17            8.4587     9.6202     6.6248 C.3     
  18 C18            7.6612     8.4521     6.0314 C.3     
  19 C19            6.1684     8.8004     6.0874 C.3     
  20 C20            5.7734     9.0511     7.5454 C.3     
  21 C21            7.4617     7.5012     8.3272 C.3     
  22 C22            7.9054     7.2059     6.8917 C.3     
  23 F23           15.7690    12.3934     6.5671 F       
  24 H24           15.7744     7.1852     6.5394 H       
  25 H25           17.8854     8.4265     6.5255 H       
  26 H26           17.8778    10.8895     6.5396 H       
  27 H27           13.0246    11.9310     6.5977 H       
  28 H28           10.1755     8.3712     6.6014 H       
  29 H29            7.6051    10.8597     8.1682 H       
  30 H30            8.8464     9.7202     8.7430 H       
  31 H31            8.2791    10.5207     6.0376 H       
  32 H32            7.9664     8.2755     5.0000 H       
  33 H33            5.9805     9.6982     5.4985 H       
  34 H34            5.5846     7.9709     5.6883 H       
  35 H35            5.0000     8.3416     7.8398 H       
  36 H36            5.3938    10.0675     7.6497 H       
  37 H37            8.3113     7.3892     9.0008 H       
  38 H38            6.6745     6.8045     8.6152 H       
  39 H39            7.3286     6.3700     6.4958 H       
  40 H40            8.9666     6.9571     6.8813 H       
@<TRIPOS>BOND
   1    1    2 1
   2    3    4 ar
   3    3    8 ar
   4    3   11 1
   5    4    5 ar
   6    4    9 1
   7    5    6 ar
   8    5   24 1
   9    6    7 ar
  10    6   25 1
  11    7    8 ar
  12    7   26 1
  13    8   23 1
  14    9   10 1
  15   10   11 2
  16   10   12 1
  17   11   27 1
  18   12   13 2
  19   12   14 am
  20   14   17 1
  21   14   28 1
  22   15   16 1
  23   15   20 1
  24   15   21 1
  25   16   17 1
  26   16   29 1
  27   16   30 1
  28   17   18 1
  29   17   31 1
  30   18   19 1
  31   18   22 1
  32   18   32 1
  33   19   20 1
  34   19   33 1
  35   19   34 1
  36   20   35 1
  37   20   36 1
  38   21   22 1
  39   21   37 1
  40   21   38 1
  41   22   39 1
  42   22   40 1

#	End of record

