#	Name: ASD08178200
#	Creating user name:	WinNT
#	Creation time:	15. 06. 2019 21:18

#	Modifying user name:	WinNT
#	Modification time:	15. 06. 2019 21:18

#	Program:	/corina/corina34_cracker 3.40 0067  02.08.2006

@<TRIPOS>MOLECULE
ASD08178200
  78   81    0    0    0
SMALL
NO_CHARGES


@<TRIPOS>ATOM
   1 C1             0.3716     2.0403    -3.6168 C.ar    
   2 C2             0.3967     0.5655    -3.3079 C.3     
   3 C3            -0.4625     0.2884    -2.0726 C.3     
   4 C4            -0.4369    -1.2089    -1.7590 C.3     
   5 C5            -1.2961    -1.4859    -0.5237 C.3     
   6 C6            -1.2710    -2.9607    -0.2148 C.2     
   7 N7            -0.4231    -3.5656     0.5551 N.2     
   8 N8            -0.5699    -4.8126     0.6872 N.2     
   9 C9            -1.5489    -5.3758     0.0459 C.2     
  10 S10           -2.3956    -4.1720    -0.8309 S.3     
  11 N11           -1.8615    -6.7308     0.0713 N.am    
  12 C12           -1.1188    -7.5800     0.8086 C.2     
  13 C13           -1.4575    -9.0482     0.8362 C.3     
  14 O14           -0.1777    -7.1626     1.4499 O.2     
  15 C15           -0.4819    -9.7722     1.7278 C.ar    
  16 C16            1.5605     2.7472    -3.7224 C.ar    
  17 C17            1.4899     4.1023    -4.0078 C.ar    
  18 C18            0.2277     4.6697    -4.1709 C.ar    
  19 N19           -0.8527     3.9127    -4.0511 N.ar    
  20 N20           -0.7803     2.6577    -3.7921 N.ar    
  21 N21            0.1024     6.0284    -4.4586 N.am    
  22 C22           -1.1103     6.5513    -4.7275 C.2     
  23 C23           -1.2627     8.0372    -4.9272 C.3     
  24 O24           -2.0789     5.8260    -4.8087 O.2     
  25 C25           -2.7068     8.3602    -5.2124 C.ar    
  26 C26           -3.5700     8.6453    -4.1710 C.ar    
  27 C27           -4.8947     8.9415    -4.4326 C.ar    
  28 C28           -5.3560     8.9531    -5.7356 C.ar    
  29 C29           -4.4926     8.6689    -6.7771 C.ar    
  30 C30           -3.1670     8.3769    -6.5158 C.ar    
  31 C31           -0.7560    -9.9199     3.0749 C.ar    
  32 C32            0.1369   -10.5837     3.8965 C.ar    
  33 C33            1.3054   -11.1011     3.3733 C.ar    
  34 C34            1.5837   -10.9543     2.0206 C.ar    
  35 C35            0.6826   -10.2924     1.1973 C.ar    
  36 N36            2.7671   -11.4776     1.4873 N.am    
  37 C37            3.2921   -12.6102     1.9952 C.2     
  38 O38            4.4833   -13.0569     1.5541 O.3     
  39 O39            2.6905   -13.2283     2.8510 O.2     
  40 C40            4.9877   -14.2832     2.1458 C.3     
  41 C41            3.9989   -15.4207     1.8825 C.3     
  42 C42            6.3418   -14.6303     1.5238 C.3     
  43 C43            5.1537   -14.0908     3.6545 C.3     
  44 H44            0.0010     0.0095    -4.1579 H       
  45 H45            1.4227     0.2522    -3.1147 H       
  46 H46           -0.0667     0.8445    -1.2227 H       
  47 H47           -1.4884     0.6018    -2.2659 H       
  48 H48           -0.8326    -1.7649    -2.6090 H       
  49 H49            0.5890    -1.5222    -1.5658 H       
  50 H50           -0.9004    -0.9299     0.3262 H       
  51 H51           -2.3220    -1.1726    -0.7170 H       
  52 H52           -2.6141    -7.0646    -0.4416 H       
  53 H53           -2.4687    -9.1806     1.2210 H       
  54 H54           -1.3970    -9.4540    -0.1737 H       
  55 H55            2.5130     2.2567    -3.5860 H       
  56 H56            2.3851     4.6993    -4.1005 H       
  57 H57            0.8881     6.5972    -4.4652 H       
  58 H58           -0.9450     8.5596    -4.0248 H       
  59 H59           -0.6463     8.3560    -5.7677 H       
  60 H60           -3.2096     8.6362    -3.1529 H       
  61 H61           -5.5692     9.1635    -3.6189 H       
  62 H62           -6.3911     9.1838    -5.9399 H       
  63 H63           -4.8532     8.6777    -7.7951 H       
  64 H64           -2.4924     8.1549    -7.3295 H       
  65 H65           -1.6690    -9.5158     3.4865 H       
  66 H66           -0.0799   -10.6971     4.9484 H       
  67 H67            2.0024   -11.6190     4.0155 H       
  68 H68            0.8960   -10.1769     0.1449 H       
  69 H69            3.2095   -11.0250     0.7521 H       
  70 H70            3.8806   -15.5578     0.8076 H       
  71 H71            4.3775   -16.3413     2.3266 H       
  72 H72            3.0342   -15.1735     2.3256 H       
  73 H73            7.0462   -13.8199     1.7114 H       
  74 H74            6.7204   -15.5509     1.9680 H       
  75 H75            6.2235   -14.7673     0.4490 H       
  76 H76            4.1890   -13.8436     4.0976 H       
  77 H77            5.5323   -15.0114     4.0987 H       
  78 H78            5.8581   -13.2805     3.8421 H       
@<TRIPOS>BOND
   1    1    2 1
   2    1   16 ar
   3    1   20 ar
   4    2    3 1
   5    2   44 1
   6    2   45 1
   7    3    4 1
   8    3   46 1
   9    3   47 1
  10    4    5 1
  11    4   48 1
  12    4   49 1
  13    5    6 1
  14    5   50 1
  15    5   51 1
  16    6    7 2
  17    6   10 1
  18    7    8 1
  19    8    9 2
  20    9   10 1
  21    9   11 1
  22   11   12 am
  23   11   52 1
  24   12   13 1
  25   12   14 2
  26   13   15 1
  27   13   53 1
  28   13   54 1
  29   15   31 ar
  30   15   35 ar
  31   16   17 ar
  32   16   55 1
  33   17   18 ar
  34   17   56 1
  35   18   19 ar
  36   18   21 1
  37   19   20 ar
  38   21   22 am
  39   21   57 1
  40   22   23 1
  41   22   24 2
  42   23   25 1
  43   23   58 1
  44   23   59 1
  45   25   26 ar
  46   25   30 ar
  47   26   27 ar
  48   26   60 1
  49   27   28 ar
  50   27   61 1
  51   28   29 ar
  52   28   62 1
  53   29   30 ar
  54   29   63 1
  55   30   64 1
  56   31   32 ar
  57   31   65 1
  58   32   33 ar
  59   32   66 1
  60   33   34 ar
  61   33   67 1
  62   34   35 ar
  63   34   36 1
  64   35   68 1
  65   36   37 am
  66   36   69 1
  67   37   38 1
  68   37   39 2
  69   38   40 1
  70   40   41 1
  71   40   42 1
  72   40   43 1
  73   41   70 1
  74   41   71 1
  75   41   72 1
  76   42   73 1
  77   42   74 1
  78   42   75 1
  79   43   76 1
  80   43   77 1
  81   43   78 1

#	End of record

