#	Name: ASD01912394
#	Creating user name:	WinNT
#	Creation time:	15. 06. 2019 19:59

#	Modifying user name:	WinNT
#	Modification time:	15. 06. 2019 19:59

#	Program:	/corina/corina34_cracker 3.40 0067  02.08.2006

@<TRIPOS>MOLECULE
ASD01912394
  47   50    0    0    0
SMALL
NO_CHARGES


@<TRIPOS>ATOM
   1 C1             0.1053     1.4951     0.0101 C.ar    
   2 N2             1.3091     2.0164     0.0391 N.ar    
   3 C3             2.4117     1.2815     0.0258 C.ar    
   4 C4             2.3610    -0.0963    -0.0205 C.ar    
   5 C5             1.0948    -0.7221    -0.0535 C.ar    
   6 C6             0.9515    -2.1146    -0.1012 C.ar    
   7 C7            -0.2969    -2.6601    -0.1314 C.ar    
   8 C8            -1.4329    -1.8532    -0.1155 C.ar    
   9 C9            -1.3304    -0.4961    -0.0694 C.ar    
  10 C10           -0.0602     0.1012    -0.0373 C.ar    
  11 N11            3.5314    -0.8532    -0.0348 N.3     
  12 C12            3.6698    -1.6316     1.2025 C.3     
  13 C13            4.8265    -2.6263     1.0516 C.3     
  14 C14            6.0619    -1.8568     0.6334 C.2     
  15 C15            5.9318    -0.8873    -0.5226 C.3     
  16 C16            4.7049    -0.0031    -0.2717 C.3     
  17 C17            7.2243    -2.0268     1.2618 C.2     
  18 C18            8.3777    -1.2867     0.8465 C.1     
  19 C19            9.3233    -0.6799     0.5060 C.1     
  20 C20           10.4767     0.0603     0.0907 C.ar    
  21 C21           11.6940    -0.1219     0.7535 C.ar    
  22 C22           12.7980     0.6006     0.3399 C.ar    
  23 C23           12.6537     1.4831    -0.7227 C.ar    
  24 C24           11.4203     1.6150    -1.3341 C.ar    
  25 N25           10.3837     0.9121    -0.9264 N.ar    
  26 C26           11.2615     2.5721    -2.4873 C.3     
  27 H27           -0.7610     2.1397     0.0273 H       
  28 H28            3.3730     1.7730     0.0515 H       
  29 H29            1.8239    -2.7511    -0.1143 H       
  30 H30           -0.4075    -3.7337    -0.1685 H       
  31 H31           -2.4105    -2.3116    -0.1405 H       
  32 H32           -2.2199     0.1164    -0.0580 H       
  33 H33            3.8756    -0.9582     2.0345 H       
  34 H34            2.7452    -2.1757     1.3950 H       
  35 H35            5.0088    -3.1252     2.0034 H       
  36 H36            4.5785    -3.3656     0.2900 H       
  37 H37            6.8258    -0.2666    -0.5842 H       
  38 H38            5.8025    -1.4400    -1.4532 H       
  39 H39            4.5270     0.6276    -1.1427 H       
  40 H40            4.8815     0.6244     0.6019 H       
  41 H41            7.2968    -2.7228     2.0844 H       
  42 H42           11.7709    -0.8166     1.5768 H       
  43 H43           13.7517     0.4816     0.8326 H       
  44 H44           13.4975     2.0617    -1.0685 H       
  45 H45           11.4686     2.0517    -3.4225 H       
  46 H46           10.2414     2.9558    -2.5033 H       
  47 H47           11.9597     3.4009    -2.3704 H       
@<TRIPOS>BOND
   1    1    2 ar
   2    1   10 ar
   3    1   27 1
   4    2    3 ar
   5    3    4 ar
   6    3   28 1
   7    4    5 ar
   8    4   11 1
   9    5    6 ar
  10    5   10 ar
  11    6    7 ar
  12    6   29 1
  13    7    8 ar
  14    7   30 1
  15    8    9 ar
  16    8   31 1
  17    9   10 ar
  18    9   32 1
  19   11   12 1
  20   11   16 1
  21   12   13 1
  22   12   33 1
  23   12   34 1
  24   13   14 1
  25   13   35 1
  26   13   36 1
  27   14   15 1
  28   14   17 2
  29   15   16 1
  30   15   37 1
  31   15   38 1
  32   16   39 1
  33   16   40 1
  34   17   18 1
  35   17   41 1
  36   18   19 3
  37   19   20 1
  38   20   21 ar
  39   20   25 ar
  40   21   22 ar
  41   21   42 1
  42   22   23 ar
  43   22   43 1
  44   23   24 ar
  45   23   44 1
  46   24   25 ar
  47   24   26 1
  48   26   45 1
  49   26   46 1
  50   26   47 1

#	End of record

