#	Name: ASD05720194
#	Creating user name:	WinNT
#	Creation time:	15. 06. 2019 21:02

#	Modifying user name:	WinNT
#	Modification time:	15. 06. 2019 21:02

#	Program:	/corina/corina34_cracker 3.40 0067  02.08.2006

@<TRIPOS>MOLECULE
ASD05720194
  50   55    0    0    0
SMALL
NO_CHARGES


@<TRIPOS>ATOM
   1 O1            -0.0161     1.3334     0.0094 O.3     
   2 C2             0.0021    -0.0041     0.0020 C.2     
   3 N3             1.2348    -0.5293    -0.0126 N.am    
   4 C4             2.2183     0.5645    -0.0161 C.3     
   5 C5             1.3508     1.8379    -0.0010 C.3     
   6 O6            -1.0069    -0.6808     0.0084 O.2     
   7 C7             3.0621     0.5136    -1.2636 C.ar    
   8 C8             4.4174     0.7765    -1.1919 C.ar    
   9 C9             5.1924     0.7297    -2.3352 C.ar    
  10 C10            4.6109     0.4193    -3.5528 C.ar    
  11 C11            3.2534     0.1562    -3.6234 C.ar    
  12 C12            2.4814     0.1984    -2.4779 C.ar    
  13 F13            5.3674     0.3737    -4.6712 F       
  14 C14            3.0997    -3.5831    -0.0458 C.2     
  15 N15            2.7933    -2.2820    -0.0364 N.2     
  16 C16            1.5348    -1.8852    -0.0227 C.2     
  17 C17            0.4948    -2.8369    -0.0180 C.2     
  18 C18            0.8011    -4.1542    -0.0275 C.2     
  19 N19            2.1143    -4.5346    -0.0416 N.pl3   
  20 N20            2.7294    -5.7915    -0.0541 N.2     
  21 C21            4.0306    -5.6363    -0.0657 C.2     
  22 C22            4.3225    -4.2670    -0.0664 C.2     
  23 C23            5.6707    -3.6560    -0.0836 C.ar    
  24 C24            6.6408    -4.0792     0.8267 C.ar    
  25 C25            7.8948    -3.5103     0.8101 C.ar    
  26 C26            8.1957    -2.5117    -0.1158 C.ar    
  27 C27            7.2270    -2.0885    -1.0255 C.ar    
  28 C28            5.9744    -2.6605    -1.0139 C.ar    
  29 N29           11.6408    -1.4019     0.3238 N.pl3   
  30 N30           10.5464    -2.2059     0.6671 N.2     
  31 C31            9.5466    -1.8991    -0.1327 C.2     
  32 C32            9.9867    -0.8865    -1.0078 C.2     
  33 C33           11.2720    -0.6051    -0.7022 C.2     
  34 H34            2.8457     0.5180     0.8740 H       
  35 H35            1.5314     2.4339    -0.8956 H       
  36 H36            1.5485     2.4243     0.8964 H       
  37 H37            4.8707     1.0190    -0.2421 H       
  38 H38            6.2511     0.9355    -2.2790 H       
  39 H39            2.7987    -0.0861    -4.5726 H       
  40 H40            1.4232    -0.0109    -2.5321 H       
  41 H41           -0.5367    -2.5172    -0.0064 H       
  42 H42            0.0173    -4.8972    -0.0237 H       
  43 H43            4.7585    -6.4340    -0.0769 H       
  44 H44            6.4078    -4.8522     1.5440 H       
  45 H45            8.6453    -3.8373     1.5145 H       
  46 H46            7.4606    -1.3149    -1.7420 H       
  47 H47            5.2258    -2.3360    -1.7215 H       
  48 H48           12.5113    -1.4126     0.7517 H       
  49 H49            9.4006    -0.4185    -1.7849 H       
  50 H50           11.8950     0.1286    -1.1920 H       
@<TRIPOS>BOND
   1    1    2 1
   2    1    5 1
   3    2    3 am
   4    2    6 2
   5    3    4 1
   6    3   16 1
   7    4    5 1
   8    4    7 1
   9    4   34 1
  10    5   35 1
  11    5   36 1
  12    7    8 ar
  13    7   12 ar
  14    8    9 ar
  15    8   37 1
  16    9   10 ar
  17    9   38 1
  18   10   11 ar
  19   10   13 1
  20   11   12 ar
  21   11   39 1
  22   12   40 1
  23   14   15 1
  24   14   19 1
  25   14   22 2
  26   15   16 2
  27   16   17 1
  28   17   18 2
  29   17   41 1
  30   18   19 1
  31   18   42 1
  32   19   20 1
  33   20   21 2
  34   21   22 1
  35   21   43 1
  36   22   23 1
  37   23   24 ar
  38   23   28 ar
  39   24   25 ar
  40   24   44 1
  41   25   26 ar
  42   25   45 1
  43   26   27 ar
  44   26   31 1
  45   27   28 ar
  46   27   46 1
  47   28   47 1
  48   29   30 1
  49   29   33 1
  50   29   48 1
  51   30   31 2
  52   31   32 1
  53   32   33 2
  54   32   49 1
  55   33   50 1

#	End of record

