#	Name: ASD01901513
#	Creating user name:	WinNT
#	Creation time:	15. 06. 2019 19:53

#	Modifying user name:	WinNT
#	Modification time:	15. 06. 2019 19:53

#	Program:	/corina/corina34_cracker 3.40 0067  02.08.2006

@<TRIPOS>MOLECULE
ASD01901513
  42   45    0    0    0
SMALL
NO_CHARGES


@<TRIPOS>ATOM
   1 C1            -0.0312     1.4113     0.0055 C.3     
   2 O2            -0.0124    -0.0175    -0.0073 O.3     
   3 C3             0.5943    -0.6167    -1.0642 C.ar    
   4 C4             1.1641     0.1519    -2.0641 C.ar    
   5 C5             1.7845    -0.4630    -3.1439 C.ar    
   6 N6             2.3593     0.3139    -4.1518 N.am    
   7 C7             3.4819    -0.1055    -4.7684 C.2     
   8 O8             4.0488    -1.1110    -4.3826 O.2     
   9 C9             4.0200     0.6492    -5.9034 C.2     
  10 C10            5.1429     0.3235    -6.6113 C.2     
  11 C11            5.4196     1.2063    -7.6281 C.2     
  12 C12            4.5551     2.2204    -7.7505 C.2     
  13 S13            3.3204     2.1146    -6.5777 S.3     
  14 C14            1.8350    -1.8507    -3.2236 C.ar    
  15 C15            1.2694    -2.6225    -2.2318 C.ar    
  16 C16            0.6500    -2.0129    -1.1421 C.ar    
  17 C17            0.0469    -2.8414    -0.0711 C.2     
  18 N18           -0.5708    -2.4003     0.9959 N.2     
  19 O19           -0.9493    -3.3291     1.6776 O.3     
  20 C20           -0.6032    -4.4907     1.1011 C.2     
  21 N21            0.0279    -4.1902    -0.0184 N.2     
  22 C22           -0.8808    -5.8470     1.6182 C.ar    
  23 C23           -0.4516    -6.9693     0.9083 C.ar    
  24 C24           -0.7136    -8.2327     1.3967 C.ar    
  25 C25           -1.4006    -8.3895     2.5874 C.ar    
  26 C26           -1.8294    -7.2822     3.2970 C.ar    
  27 C27           -1.5691    -6.0116     2.8228 C.ar    
  28 Cl28          -2.1020    -4.6226     3.7175 Cl      
  29 H29            0.9915     1.7882     0.0026 H       
  30 H30           -0.5552     1.7756    -0.8781 H       
  31 H31           -0.5444     1.7599     0.9017 H       
  32 H32            1.1260     1.2296    -2.0050 H       
  33 H33            1.9506     1.1555    -4.4081 H       
  34 H34            5.7523    -0.5411    -6.3934 H       
  35 H35            6.2727     1.0902    -8.2801 H       
  36 H36            4.6268     2.9993    -8.4952 H       
  37 H37            2.3184    -2.3246    -4.0651 H       
  38 H38            1.3099    -3.6998    -2.2968 H       
  39 H39            0.0842    -6.8491    -0.0217 H       
  40 H40           -0.3817    -9.1017     0.8480 H       
  41 H41           -1.6034    -9.3810     2.9644 H       
  42 H42           -2.3655    -7.4116     4.2256 H       
@<TRIPOS>BOND
   1    1    2 1
   2    1   29 1
   3    1   30 1
   4    1   31 1
   5    2    3 1
   6    3   16 ar
   7    3    4 ar
   8    4    5 ar
   9    4   32 1
  10    5    6 1
  11    5   14 ar
  12    6    7 am
  13    6   33 1
  14    7    8 2
  15    7    9 1
  16    9   13 1
  17    9   10 2
  18   10   11 1
  19   10   34 1
  20   11   12 2
  21   11   35 1
  22   12   13 1
  23   12   36 1
  24   14   15 ar
  25   14   37 1
  26   15   16 ar
  27   15   38 1
  28   16   17 1
  29   17   21 1
  30   17   18 2
  31   18   19 1
  32   19   20 1
  33   20   21 2
  34   20   22 1
  35   22   27 ar
  36   22   23 ar
  37   23   24 ar
  38   23   39 1
  39   24   25 ar
  40   24   40 1
  41   25   26 ar
  42   25   41 1
  43   26   27 ar
  44   26   42 1
  45   27   28 1

#	End of record

