#	Name: ASD01811201
#	Creating user name:	WinNT
#	Creation time:	15. 06. 2019 19:26

#	Modifying user name:	WinNT
#	Modification time:	15. 06. 2019 19:26

#	Program:	/corina/corina34_cracker 3.40 0067  02.08.2006

@<TRIPOS>MOLECULE
ASD01811201
  59   62    0    0    0
SMALL
NO_CHARGES


@<TRIPOS>ATOM
   1 C1             0.0357     1.3683    -0.1940 C.2     
   2 C2             0.0679    -0.0973    -0.0011 C.ar    
   3 C3             1.2910    -0.7595     0.1295 C.ar    
   4 C4             1.3227    -2.1280     0.3092 C.ar    
   5 C5             0.1474    -2.8513     0.3614 C.ar    
   6 C6            -1.0822    -2.2017     0.2322 C.ar    
   7 C7            -1.1215    -0.8200     0.0564 C.ar    
   8 O8             1.0646     2.0124    -0.1304 O.2     
   9 N9            -1.1336     1.9894    -0.4459 N.am    
  10 N10           -1.1633     3.3434    -0.6240 N.3     
  11 C11            0.1918    -4.3447     0.5578 C.3     
  12 C12            0.0405    -5.0418    -0.7957 C.3     
  13 C13            2.5786     0.0215     0.0738 C.3     
  14 C14            3.4086     0.1079     1.3562 C.3     
  15 C15            3.8866    -0.7633     0.1928 C.3     
  16 C16           -2.3396    -2.9776     0.2878 C.2     
  17 O17           -2.5339    -3.7553     1.2016 O.2     
  18 N18           -3.2702    -2.8226    -0.6746 N.am    
  19 C19           -4.5726    -3.4950    -0.5718 C.3     
  20 C20           -4.8163    -4.2964    -1.8544 C.3     
  21 C21           -4.6816    -3.3687    -3.0642 C.3     
  22 C22           -3.2633    -2.7961    -3.1146 C.3     
  23 C23           -3.0041    -1.9732    -1.8435 C.3     
  24 C24           -4.9543    -4.1463    -4.3259 C.ar    
  25 C25           -5.9935    -3.7676    -5.1572 C.ar    
  26 C26           -6.2486    -4.4749    -6.3138 C.ar    
  27 C27           -5.4550    -5.5750    -6.6450 C.ar    
  28 C28           -4.4076    -5.9513    -5.8017 C.ar    
  29 C29           -4.1606    -5.2322    -4.6507 C.ar    
  30 C30           -5.7144    -6.3141    -7.8437 C.1     
  31 N31           -5.9201    -6.9005    -8.7947 N.1     
  32 H32            2.2710    -2.6352     0.4089 H       
  33 H33           -2.0699    -0.3122    -0.0396 H       
  34 H34           -1.9541     1.4749    -0.5006 H       
  35 H35           -0.5378     3.6245    -1.3642 H       
  36 H36           -2.1030     3.6640    -0.8035 H       
  37 H37            1.1454    -4.6241     1.0058 H       
  38 H38           -0.6219    -4.6489     1.2162 H       
  39 H39            0.8542    -4.7376    -1.4540 H       
  40 H40            0.0725    -6.1221    -0.6536 H       
  41 H41           -0.9131    -4.7625    -1.2437 H       
  42 H42            2.5719     0.8929    -0.5811 H       
  43 H43            3.9482     1.0359     1.5449 H       
  44 H44            3.0233    -0.4002     2.2402 H       
  45 H45            3.8158    -1.8445     0.3114 H       
  46 H46            4.7407    -0.4083    -0.3839 H       
  47 H47           -4.5693    -4.1688     0.2850 H       
  48 H48           -5.3596    -2.7507    -0.4509 H       
  49 H49           -4.0818    -5.0984    -1.9274 H       
  50 H50           -5.8195    -4.7221    -1.8323 H       
  51 H51           -5.3997    -2.5532    -2.9781 H       
  52 H52           -2.5434    -3.6122    -3.1757 H       
  53 H53           -3.1611    -2.1539    -3.9894 H       
  54 H54           -3.6658    -1.1073    -1.8242 H       
  55 H55           -1.9656    -1.6425    -1.8260 H       
  56 H56           -6.6065    -2.9165    -4.8998 H       
  57 H57           -7.0606    -4.1787    -6.9614 H       
  58 H58           -3.7899    -6.8012    -6.0520 H       
  59 H59           -3.3483    -5.5196    -3.9997 H       
@<TRIPOS>BOND
   1    1    2 1
   2    1    8 2
   3    1    9 am
   4    2    3 ar
   5    2    7 ar
   6    3    4 ar
   7    3   13 1
   8    4    5 ar
   9    4   32 1
  10    5    6 ar
  11    5   11 1
  12    6    7 ar
  13    6   16 1
  14    7   33 1
  15    9   10 1
  16    9   34 1
  17   10   35 1
  18   10   36 1
  19   11   12 1
  20   11   37 1
  21   11   38 1
  22   12   39 1
  23   12   40 1
  24   12   41 1
  25   13   14 1
  26   13   15 1
  27   13   42 1
  28   14   15 1
  29   14   43 1
  30   14   44 1
  31   15   45 1
  32   15   46 1
  33   16   17 2
  34   16   18 am
  35   18   19 1
  36   18   23 1
  37   19   20 1
  38   19   47 1
  39   19   48 1
  40   20   21 1
  41   20   49 1
  42   20   50 1
  43   21   22 1
  44   21   24 1
  45   21   51 1
  46   22   23 1
  47   22   52 1
  48   22   53 1
  49   23   54 1
  50   23   55 1
  51   24   25 ar
  52   24   29 ar
  53   25   26 ar
  54   25   56 1
  55   26   27 ar
  56   26   57 1
  57   27   28 ar
  58   27   30 1
  59   28   29 ar
  60   28   58 1
  61   29   59 1
  62   30   31 3

#	End of record

