#	Name: ASD02038840
#	Creating user name:	WinNT
#	Creation time:	15. 06. 2019 20:17

#	Modifying user name:	WinNT
#	Modification time:	15. 06. 2019 20:17

#	Program:	/corina/corina34_cracker 3.40 0067  02.08.2006

@<TRIPOS>MOLECULE
ASD02038840
  57   60    0    0    0
SMALL
NO_CHARGES


@<TRIPOS>ATOM
   1 C1            -1.2781    -0.8505     0.4670 C.2     
   2 C2            -0.0619    -0.0355     0.3023 C.2     
   3 N3             1.1360    -0.6349     0.1535 N.am    
   4 C4             1.2426    -2.0928     0.2504 C.3     
   5 C5             1.2147    -2.6915    -1.1323 C.ar    
   6 C6             2.3315     0.1714    -0.1050 C.3     
   7 O7            -0.1389     1.1783     0.3006 O.2     
   8 N8            -1.3370    -2.2064     0.5001 N.2     
   9 C9            -2.5767    -2.5701     0.6590 C.2     
  10 N10           -3.3571    -1.4606     0.7336 N.pl3   
  11 C11           -2.5495    -0.3801     0.6200 C.2     
  12 C12            2.3976    -3.0119    -1.7677 C.ar    
  13 C13            2.1176     1.0154    -1.3653 C.3     
  14 C14            3.3393     1.9119    -1.5831 C.3     
  15 O15            3.5393     2.7308    -0.4292 O.3     
  16 C16            3.7912     1.9967     0.7707 C.3     
  17 C17            2.5876     1.1036     1.0831 C.3     
  18 C18            0.0038    -2.9238    -1.7590 C.ar    
  19 C19           -0.0305    -3.4734    -3.0277 C.ar    
  20 C20            1.1474    -3.7941    -3.6763 C.ar    
  21 C21            2.3715    -3.5658    -3.0456 C.ar    
  22 C22            3.6397    -3.9069    -3.7355 C.ar    
  23 C23            3.8055    -5.1660    -4.3098 C.ar    
  24 C24           -4.8111    -1.4375     0.9115 C.3     
  25 F25            1.1136    -4.3317    -4.9152 F       
  26 C26            4.9854    -5.4801    -4.9509 C.ar    
  27 C27            6.0077    -4.5437    -5.0242 C.ar    
  28 C28            5.8457    -3.2889    -4.4528 C.ar    
  29 C29            4.6657    -2.9669    -3.8158 C.ar    
  30 O30            7.1694    -4.8561    -5.6562 O.3     
  31 C31            8.1791    -3.8457    -5.6945 C.3     
  32 F32            8.5428    -3.5000    -4.3886 F       
  33 F33            9.2993    -4.3315    -6.3775 F       
  34 F34            7.6838    -2.7163    -6.3551 F       
  35 H35            2.1791    -2.3568     0.7418 H       
  36 H36            0.4057    -2.4805     0.8312 H       
  37 H37            3.1902    -0.4848    -0.2471 H       
  38 H38           -2.9282    -3.5894     0.7213 H       
  39 H39           -2.8542     0.6558     0.6392 H       
  40 H40            3.3419    -2.8332    -1.2750 H       
  41 H41            1.9895     0.3589    -2.2259 H       
  42 H42            1.2288     1.6344    -1.2426 H       
  43 H43            4.2208     1.2918    -1.7459 H       
  44 H44            3.1744     2.5457    -2.4544 H       
  45 H45            4.6786     1.3777     0.6387 H       
  46 H46            3.9519     2.6916     1.5950 H       
  47 H47            1.7084     1.7244     1.2552 H       
  48 H48            2.7957     0.5102     1.9734 H       
  49 H49           -0.9187    -2.6754    -1.2554 H       
  50 H50           -0.9789    -3.6526    -3.5123 H       
  51 H51            3.0108    -5.8951    -4.2525 H       
  52 H52           -5.0466    -1.4119     1.9754 H       
  53 H53           -5.2224    -0.5520     0.4269 H       
  54 H54           -5.2461    -2.3314     0.4645 H       
  55 H55            5.1145    -6.4556    -5.3961 H       
  56 H56            6.6431    -2.5627    -4.5108 H       
  57 H57            4.5401    -1.9904    -3.3717 H       
@<TRIPOS>BOND
   1    1    2 1
   2    1    8 1
   3    1   11 2
   4    2    3 am
   5    2    7 2
   6    3    4 1
   7    3    6 1
   8    4    5 1
   9    4   35 1
  10    4   36 1
  11    5   12 ar
  12    5   18 ar
  13    6   13 1
  14    6   17 1
  15    6   37 1
  16    8    9 2
  17    9   10 1
  18    9   38 1
  19   10   11 1
  20   10   24 1
  21   11   39 1
  22   12   21 ar
  23   12   40 1
  24   13   14 1
  25   13   41 1
  26   13   42 1
  27   14   15 1
  28   14   43 1
  29   14   44 1
  30   15   16 1
  31   16   17 1
  32   16   45 1
  33   16   46 1
  34   17   47 1
  35   17   48 1
  36   18   19 ar
  37   18   49 1
  38   19   20 ar
  39   19   50 1
  40   20   21 ar
  41   20   25 1
  42   21   22 1
  43   22   23 ar
  44   22   29 ar
  45   23   26 ar
  46   23   51 1
  47   24   52 1
  48   24   53 1
  49   24   54 1
  50   26   27 ar
  51   26   55 1
  52   27   28 ar
  53   27   30 1
  54   28   29 ar
  55   28   56 1
  56   29   57 1
  57   30   31 1
  58   31   32 1
  59   31   33 1
  60   31   34 1

#	End of record

