#	Name: ASD02670013
#	Creating user name:	WinNT
#	Creation time:	15. 06. 2019 20:26

#	Modifying user name:	WinNT
#	Modification time:	15. 06. 2019 20:26

#	Program:	/corina/corina34_cracker 3.40 0067  02.08.2006

@<TRIPOS>MOLECULE
ASD02670013
  33   33    0    0    0
SMALL
NO_CHARGES


@<TRIPOS>ATOM
   1 O1            -0.0160     1.3320     0.0094 O.3     
   2 C2             2.1083     0.8136    -0.0137 C.2     
   3 O3             2.0111    -2.3824     1.0216 O.2     
   4 C4             1.3031    -0.4169    -0.0126 C.2     
   5 O5             2.0110    -2.4320    -1.1985 O.3     
   6 C6             0.0021    -0.0041     0.0020 C.2     
   7 O7            -3.3087    -2.4666     0.4178 O.2     
   8 C8            -1.2079    -0.9023     0.0092 C.3     
   9 O9            -3.3412    -2.5177     2.6268 O.3     
  10 C10            3.6119     0.9141    -0.0271 C.3     
  11 C11            2.0584     5.2815    -1.4329 C.3     
  12 C12           -1.6035    -1.2135     1.4540 C.3     
  13 C13            1.5885     3.2924     0.0041 C.3     
  14 C14            1.6954     3.7952    -1.4369 C.3     
  15 C15            1.7968    -1.8039    -0.0255 C.2     
  16 C16            1.2310     1.8284     0.0001 C.2     
  17 C17           -2.8135    -2.1118     1.4612 C.2     
  18 H18            2.3353    -3.3420    -1.1563 H       
  19 H19           -2.0351    -0.4017    -0.4942 H       
  20 H20           -0.9742    -1.8309    -0.5116 H       
  21 H21           -4.1171    -3.0930     2.5808 H       
  22 H22            3.9650     0.9432    -1.0579 H       
  23 H23            3.9199     1.8239     0.4883 H       
  24 H24            4.0385     0.0479     0.4787 H       
  25 H25            1.2851     5.8430    -0.9085 H       
  26 H26            3.0142     5.4207    -0.9277 H       
  27 H27            2.1345     5.6397    -2.4595 H       
  28 H28           -0.7764    -1.7141     1.9574 H       
  29 H29           -1.8372    -0.2850     1.9748 H       
  30 H30            2.5443     3.4316     0.5093 H       
  31 H31            0.8153     3.8538     0.5285 H       
  32 H32            0.7396     3.6560    -1.9421 H       
  33 H33            2.4686     3.2338    -1.9613 H       
@<TRIPOS>BOND
   1    1    6 1
   2    1   16 1
   3    2    4 1
   4    2   10 1
   5    2   16 2
   6    3   15 2
   7    4    6 2
   8    4   15 1
   9    5   15 1
  10    5   18 1
  11    6    8 1
  12    7   17 2
  13    8   12 1
  14    8   19 1
  15    8   20 1
  16    9   17 1
  17    9   21 1
  18   10   22 1
  19   10   23 1
  20   10   24 1
  21   11   14 1
  22   11   25 1
  23   11   26 1
  24   11   27 1
  25   12   17 1
  26   12   28 1
  27   12   29 1
  28   13   14 1
  29   13   16 1
  30   13   30 1
  31   13   31 1
  32   14   32 1
  33   14   33 1

#	End of record

