#	Name: ASD08151090
#	Creating user name:	WinNT
#	Creation time:	15. 06. 2019 21:17

#	Modifying user name:	WinNT
#	Modification time:	15. 06. 2019 21:17

#	Program:	/corina/corina34_cracker 3.40 0067  02.08.2006

@<TRIPOS>MOLECULE
ASD08151090
  45   46    0    0    0
SMALL
NO_CHARGES


@<TRIPOS>ATOM
   1 C1            -0.0184     1.5028     0.0103 C.2     
   2 C2             0.0021    -0.0041     0.0020 C.3     
   3 C3             1.2234     3.6623     0.0100 C.ar    
   4 C4             1.2421     2.2536     0.0023 C.ar    
   5 C5             2.4638     1.5707    -0.0126 C.ar    
   6 C6             3.6522     2.2683    -0.0197 C.ar    
   7 C7             3.6521     3.6670    -0.0117 C.ar    
   8 C8             2.4332     4.3711     0.0032 C.ar    
   9 C9            -0.0650     4.3894     0.0197 C.ar    
  10 C10           -0.4195     5.1719     1.1194 C.ar    
  11 C11           -1.6240     5.8487     1.1216 C.ar    
  12 C12           -2.4782     5.7507     0.0344 C.ar    
  13 C13           -2.1306     4.9763    -1.0574 C.ar    
  14 C14           -0.9279     4.3000    -1.0733 C.ar    
  15 F15            4.8246     1.5971    -0.0341 F       
  16 F16           -1.9700     6.6067     2.1851 F       
  17 C17            4.8922     4.3829    -0.0183 C.1     
  18 C18            5.9090     4.9699    -0.0237 C.1     
  19 N19            2.4290     5.7381     0.0102 N.2     
  20 N20            3.5442     6.3865     0.0039 N.2     
  21 N21            3.5399     7.7875     0.0110 N.pl3   
  22 C22            2.2690     8.5161     0.0256 C.3     
  23 C23            1.9015     8.8715     1.4676 C.3     
  24 C24            4.8064     8.5239     0.0038 C.3     
  25 C25            5.1717     8.8962    -1.4345 C.3     
  26 O26           -1.0771     2.0950     0.0185 O.2     
  27 H27            0.0168    -0.3729     1.0276 H       
  28 H28           -0.8878    -0.3767    -0.5053 H       
  29 H29            0.8920    -0.3525    -0.5222 H       
  30 H30            2.4752     0.4907    -0.0181 H       
  31 H31            0.2459     5.2481     1.9667 H       
  32 H32           -3.4190     6.2810     0.0401 H       
  33 H33           -2.8004     4.9039    -1.9015 H       
  34 H34           -0.6565     3.6994    -1.9289 H       
  35 H35            6.8183     5.4949    -0.0285 H       
  36 H36            2.3674     9.4300    -0.5601 H       
  37 H37            1.4869     7.8909    -0.4052 H       
  38 H38            0.9559     9.4136     1.4785 H       
  39 H39            1.8030     7.9575     2.0533 H       
  40 H40            2.6836     9.4966     1.8984 H       
  41 H41            4.7024     9.4312     0.5988 H       
  42 H42            5.5923     7.8992     0.4282 H       
  43 H43            5.2757     7.9888    -2.0295 H       
  44 H44            4.3858     9.5209    -1.8589 H       
  45 H45            6.1140     9.4441    -1.4398 H       
@<TRIPOS>BOND
   1    1    2 1
   2    1    4 1
   3    1   26 2
   4    2   27 1
   5    2   28 1
   6    2   29 1
   7    3    4 ar
   8    3    8 ar
   9    3    9 1
  10    4    5 ar
  11    5    6 ar
  12    5   30 1
  13    6    7 ar
  14    6   15 1
  15    7    8 ar
  16    7   17 1
  17    8   19 1
  18    9   10 ar
  19    9   14 ar
  20   10   11 ar
  21   10   31 1
  22   11   12 ar
  23   11   16 1
  24   12   13 ar
  25   12   32 1
  26   13   14 ar
  27   13   33 1
  28   14   34 1
  29   17   18 3
  30   18   35 1
  31   19   20 2
  32   20   21 1
  33   21   22 1
  34   21   24 1
  35   22   23 1
  36   22   36 1
  37   22   37 1
  38   23   38 1
  39   23   39 1
  40   23   40 1
  41   24   25 1
  42   24   41 1
  43   24   42 1
  44   25   43 1
  45   25   44 1
  46   25   45 1

#	End of record

