#	Name: ASD03331412
#	Creating user name:	WinNT
#	Creation time:	15. 06. 2019 20:39

#	Modifying user name:	WinNT
#	Modification time:	15. 06. 2019 20:39

#	Program:	/corina/corina34_cracker 3.40 0067  02.08.2006

@<TRIPOS>MOLECULE
ASD03331412
  70   74    0    0    0
SMALL
NO_CHARGES


@<TRIPOS>ATOM
   1 N1             0.1184     1.8311     2.3395 N.3     
   2 C2             0.3446     0.3884     2.4939 C.3     
   3 C3             1.5491    -0.0337     1.6495 C.3     
   4 C4             2.7847     0.7472     2.1054 C.3     
   5 C5             2.5055     2.2475     1.9802 C.3     
   6 C6             1.2733     2.6035     2.8150 C.3     
   7 N7            -3.6855     3.4160     3.1349 N.am    
   8 C8            -2.5477     4.1977     3.6379 C.3     
   9 C9            -1.2823     3.7625     2.8922 C.3     
  10 C10           -1.1120     2.2475     3.0255 C.3     
  11 C11           -2.3127     1.5399     2.3933 C.3     
  12 C12           -3.5898     1.9498     3.1334 C.3     
  13 C13           -1.0230     1.8787     4.4840 C.2     
  14 O14           -1.6393     0.9235     4.9066 O.2     
  15 N15           -0.2586     2.6104     5.3187 N.am    
  16 C16           -4.7981     4.0319     2.6885 C.2     
  17 O17           -4.9011     5.2406     2.7769 O.2     
  18 N18           -7.4544     2.5245     0.7011 N.pl3   
  19 C19           -6.5038     3.4740     0.8820 C.2     
  20 C20           -5.8893     3.2413     2.0938 C.2     
  21 C21           -6.5070     2.0958     2.6599 C.2     
  22 C22           -7.4593     1.6799     1.7864 C.2     
  23 C23           -6.1757     4.5904    -0.0757 C.3     
  24 O24           -6.9769     5.7329     0.2321 O.3     
  25 C25           -8.3511     0.5148     1.9705 C.ar    
  26 C26           -7.8125    -0.7433     2.2498 C.ar    
  27 C27           -8.6507    -1.8268     2.4210 C.ar    
  28 C28          -10.0222    -1.6676     2.3165 C.ar    
  29 C29          -10.5612    -0.4227     2.0394 C.ar    
  30 C30           -9.7342     0.6689     1.8718 C.ar    
  31 Cl31         -11.0701    -3.0345     2.5331 Cl      
  32 Cl32          -6.0932    -0.9442     2.3805 Cl      
  33 C33           -8.3009     2.4234    -0.4112 C.ar    
  34 C34           -8.1997     1.3333    -1.2652 C.ar    
  35 C35           -9.0354     1.2357    -2.3605 C.ar    
  36 C36           -9.9729     2.2233    -2.6071 C.ar    
  37 C37          -10.0754     3.3110    -1.7577 C.ar    
  38 C38           -9.2459     3.4103    -0.6579 C.ar    
  39 Cl39         -11.0219     2.0977    -3.9847 Cl      
  40 H40            0.5385     0.1613     3.5422 H       
  41 H41           -0.5399    -0.1554     2.1622 H       
  42 H42            1.7262    -1.1017     1.7765 H       
  43 H43            1.3503     0.1804     0.5994 H       
  44 H44            3.0068     0.5035     3.1444 H       
  45 H45            3.6356     0.4814     1.4781 H       
  46 H46            3.3660     2.8094     2.3436 H       
  47 H47            2.3218     2.4975     0.9353 H       
  48 H48            1.0633     3.6685     2.7166 H       
  49 H49            1.4628     2.3661     3.8618 H       
  50 H50           -2.7278     5.2585     3.4640 H       
  51 H51           -2.4233     4.0163     4.7055 H       
  52 H52           -1.3718     4.0273     1.8386 H       
  53 H53           -0.4158     4.2653     3.3218 H       
  54 H54           -2.3924     1.8255     1.3444 H       
  55 H55           -2.1795     0.4606     2.4678 H       
  56 H56           -3.5503     1.5852     4.1598 H       
  57 H57           -4.4574     1.5275     2.6265 H       
  58 H58            0.1754     3.4164     4.9978 H       
  59 H59           -0.1423     2.3310     6.2402 H       
  60 H60           -6.2649     1.6403     3.6087 H       
  61 H61           -5.1213     4.8504     0.0169 H       
  62 H62           -6.3818     4.2663    -1.0958 H       
  63 H63           -6.8184     6.4918    -0.3460 H       
  64 H64           -8.2359    -2.8004     2.6366 H       
  65 H65          -11.6317    -0.3051     1.9587 H       
  66 H66          -10.1566     1.6402     1.6605 H       
  67 H67           -7.4680     0.5626    -1.0733 H       
  68 H68           -8.9568     0.3882    -3.0252 H       
  69 H69          -10.8076     4.0806    -1.9525 H       
  70 H70           -9.3295     4.2569     0.0074 H       
@<TRIPOS>BOND
   1    1    2 1
   2    1    6 1
   3    1   10 1
   4    2    3 1
   5    2   40 1
   6    2   41 1
   7    3    4 1
   8    3   42 1
   9    3   43 1
  10    4    5 1
  11    4   44 1
  12    4   45 1
  13    5    6 1
  14    5   46 1
  15    5   47 1
  16    6   48 1
  17    6   49 1
  18    7    8 1
  19    7   12 1
  20    7   16 am
  21    8    9 1
  22    8   50 1
  23    8   51 1
  24    9   10 1
  25    9   52 1
  26    9   53 1
  27   10   11 1
  28   10   13 1
  29   11   12 1
  30   11   54 1
  31   11   55 1
  32   12   56 1
  33   12   57 1
  34   13   14 2
  35   13   15 am
  36   15   58 1
  37   15   59 1
  38   16   17 2
  39   16   20 1
  40   18   19 1
  41   18   22 1
  42   18   33 1
  43   19   20 2
  44   19   23 1
  45   20   21 1
  46   21   22 2
  47   21   60 1
  48   22   25 1
  49   23   24 1
  50   23   61 1
  51   23   62 1
  52   24   63 1
  53   25   26 ar
  54   25   30 ar
  55   26   27 ar
  56   26   32 1
  57   27   28 ar
  58   27   64 1
  59   28   29 ar
  60   28   31 1
  61   29   30 ar
  62   29   65 1
  63   30   66 1
  64   33   34 ar
  65   33   38 ar
  66   34   35 ar
  67   34   67 1
  68   35   36 ar
  69   35   68 1
  70   36   37 ar
  71   36   39 1
  72   37   38 ar
  73   37   69 1
  74   38   70 1

#	End of record

