#	Name: ASD03430404
#	Creating user name:	WinNT
#	Creation time:	15. 06. 2019 20:41

#	Modifying user name:	WinNT
#	Modification time:	15. 06. 2019 20:41

#	Program:	/corina/corina34_cracker 3.40 0067  02.08.2006

@<TRIPOS>MOLECULE
ASD03430404
  52   56    0    0    0
SMALL
NO_CHARGES


@<TRIPOS>ATOM
   1 N1             0.1561     1.8627     0.3528 N.am    
   2 C2             0.5567     0.8157     1.0938 C.2     
   3 C3             2.0653     0.8924     1.1944 C.3     
   4 C4             2.4239     2.1291     0.4030 C.ar    
   5 C5             3.6231     2.7406     0.1138 C.ar    
   6 C6             3.6433     3.8912    -0.6550 C.ar    
   7 C7             2.4578     4.4222    -1.1298 C.ar    
   8 C8             1.2551     3.8115    -0.8414 C.ar    
   9 C9             1.2266     2.6525    -0.0679 C.ar    
  10 O10           -0.1563    -0.0312     1.5891 O.2     
  11 O11            2.4696     1.0357     2.5576 O.3     
  12 C12            2.6983    -0.3295     0.5802 C.ar    
  13 C13            2.4578    -0.6413    -0.7500 C.ar    
  14 C14            3.0415    -1.7660    -1.3138 C.ar    
  15 C15            3.8616    -2.5743    -0.5501 C.ar    
  16 C16            4.1004    -2.2622     0.7772 C.ar    
  17 C17            3.5228    -1.1364     1.3399 C.ar    
  18 O18            1.6503     0.1546    -1.5001 O.3     
  19 F19            4.9018    -3.0539     1.5230 F       
  20 C20           -1.2434     2.1395     0.0197 C.3     
  21 C21           -1.7642     1.0623    -0.8965 C.ar    
  22 C22           -2.8760     1.3013    -1.6824 C.ar    
  23 C23           -3.3538     0.3132    -2.5228 C.ar    
  24 C24           -2.7195    -0.9138    -2.5776 C.ar    
  25 C25           -1.6071    -1.1525    -1.7924 C.ar    
  26 C26           -1.1268    -0.1629    -0.9552 C.ar    
  27 C27           -2.0649     2.1650     1.2829 C.ar    
  28 C28           -2.3259     3.3672     1.9134 C.ar    
  29 C29           -3.0793     3.3906     3.0721 C.ar    
  30 C30           -3.5722     2.2119     3.6001 C.ar    
  31 C31           -3.3119     1.0098     2.9690 C.ar    
  32 C32           -2.5621     0.9869     1.8079 C.ar    
  33 H33            4.5467     2.3231     0.4867 H       
  34 H34            4.5823     4.3734    -0.8832 H       
  35 H35            2.4738     5.3203    -1.7294 H       
  36 H36            0.3336     4.2322    -1.2159 H       
  37 H37            2.2108     0.2961     3.1243 H       
  38 H38            2.8548    -2.0101    -2.3491 H       
  39 H39            4.3163    -3.4501    -0.9889 H       
  40 H40            3.7135    -0.8916     2.3743 H       
  41 H41            2.1160     0.8684    -1.9569 H       
  42 H42           -1.3138     3.1061    -0.4791 H       
  43 H43           -3.3716     2.2599    -1.6395 H       
  44 H44           -4.2229     0.4997    -3.1362 H       
  45 H45           -3.0932    -1.6860    -3.2337 H       
  46 H46           -1.1117    -2.1113    -1.8350 H       
  47 H47           -0.2555    -0.3482    -0.3445 H       
  48 H48           -1.9408     4.2880     1.5010 H       
  49 H49           -3.2827     4.3297     3.5652 H       
  50 H50           -4.1602     2.2301     4.5057 H       
  51 H51           -3.6967     0.0889     3.3817 H       
  52 H52           -2.3618     0.0481     1.3129 H       
@<TRIPOS>BOND
   1    1    2 am
   2    1    9 1
   3    1   20 1
   4    2    3 1
   5    2   10 2
   6    3    4 1
   7    3   11 1
   8    3   12 1
   9    4    5 ar
  10    4    9 ar
  11    5    6 ar
  12    5   33 1
  13    6    7 ar
  14    6   34 1
  15    7    8 ar
  16    7   35 1
  17    8    9 ar
  18    8   36 1
  19   11   37 1
  20   12   13 ar
  21   12   17 ar
  22   13   14 ar
  23   13   18 1
  24   14   15 ar
  25   14   38 1
  26   15   16 ar
  27   15   39 1
  28   16   17 ar
  29   16   19 1
  30   17   40 1
  31   18   41 1
  32   20   21 1
  33   20   27 1
  34   20   42 1
  35   21   22 ar
  36   21   26 ar
  37   22   23 ar
  38   22   43 1
  39   23   24 ar
  40   23   44 1
  41   24   25 ar
  42   24   45 1
  43   25   26 ar
  44   25   46 1
  45   26   47 1
  46   27   28 ar
  47   27   32 ar
  48   28   29 ar
  49   28   48 1
  50   29   30 ar
  51   29   49 1
  52   30   31 ar
  53   30   50 1
  54   31   32 ar
  55   31   51 1
  56   32   52 1

#	End of record

