#	Name: ASD03430342
#	Creating user name:	WinNT
#	Creation time:	15. 06. 2019 20:40

#	Modifying user name:	WinNT
#	Modification time:	15. 06. 2019 20:40

#	Program:	/corina/corina34_cracker 3.40 0067  02.08.2006

@<TRIPOS>MOLECULE
ASD03430342
  57   60    0    0    0
SMALL
NO_CHARGES


@<TRIPOS>ATOM
   1 C1            -0.0167     1.3830     0.0096 C.ar    
   2 C2             0.0021    -0.0041     0.0020 C.ar    
   3 C3             1.2035    -0.6786    -0.0136 C.ar    
   4 C4             2.4078     0.0189    -0.0127 C.ar    
   5 C5             2.3813     1.4106    -0.0092 C.ar    
   6 C6             1.1792     2.0860     0.0020 C.ar    
   7 O7             3.4724    -0.8334    -0.0036 O.3     
   8 C8             1.5555    -2.1417    -0.0461 C.3     
   9 C9             3.0402    -2.1382    -0.4350 C.3     
  10 C10            0.4349    -3.8532     1.0199 C.ar    
  11 C11            1.3250    -2.8129     1.2754 C.ar    
  12 C12            0.7201    -2.9062    -1.0322 C.2     
  13 N13            0.1008    -3.8805    -0.3362 N.am    
  14 O14            0.6220    -2.6898    -2.2216 O.2     
  15 C15            1.7972    -2.5924     2.5496 C.ar    
  16 C16            1.3880    -3.4066     3.5911 C.ar    
  17 C17            0.5038    -4.4414     3.3489 C.ar    
  18 C18            0.0277    -4.6671     2.0738 C.ar    
  19 C19           -0.8162    -4.8549    -0.9327 C.3     
  20 O20           -1.2016     2.0502     0.0189 O.3     
  21 C21           -1.1420     3.4780     0.0264 C.3     
  22 C22           -2.5620     4.0476     0.0362 C.3     
  23 O23           -3.2103     3.6898     1.2584 O.3     
  24 C24           -4.5497     4.1754     1.3696 C.3     
  25 C25           -2.2440    -4.3072    -0.8851 C.3     
  26 O26           -2.3363    -3.1455    -1.7122 O.3     
  27 C27           -3.6362    -2.5525    -1.7384 C.3     
  28 O28           -3.3617    -1.7323    -3.9950 O.3     
  29 C29           -3.6180    -1.3238    -2.6499 C.3     
  30 C30           -3.3237    -0.6546    -4.9326 C.3     
  31 H31           -0.9262    -0.5560     0.0087 H       
  32 H32            3.3082     1.9649    -0.0153 H       
  33 H33            1.1686     3.1659     0.0048 H       
  34 H34            3.1583    -2.2484    -1.5130 H       
  35 H35            3.5815    -2.9207     0.0968 H       
  36 H36            2.4879    -1.7835     2.7365 H       
  37 H37            1.7588    -3.2342     4.5907 H       
  38 H38            0.1845    -5.0766     4.1619 H       
  39 H39           -0.6629    -5.4774     1.8926 H       
  40 H40           -0.5306    -5.0354    -1.9690 H       
  41 H41           -0.7668    -5.7896    -0.3742 H       
  42 H42           -0.6093     3.8147     0.9157 H       
  43 H43           -0.6177     3.8244    -0.8642 H       
  44 H44           -2.5184     5.1335    -0.0477 H       
  45 H45           -3.1226     3.6404    -0.8052 H       
  46 H46           -4.5473     5.2639     1.3134 H       
  47 H47           -5.1515     3.7708     0.5559 H       
  48 H48           -4.9717     3.8618     2.3244 H       
  49 H49           -2.9368    -5.0669    -1.2470 H       
  50 H50           -2.4979    -4.0434     0.1416 H       
  51 H51           -4.3579    -3.2758    -2.1179 H       
  52 H52           -3.9190    -2.2523    -0.7294 H       
  53 H53           -4.5836    -0.8206    -2.6007 H       
  54 H54           -2.8349    -0.6400    -2.3223 H       
  55 H55           -4.2832    -0.1375    -4.9308 H       
  56 H56           -2.5345     0.0431    -4.6524 H       
  57 H57           -3.1244    -1.0472    -5.9297 H       
@<TRIPOS>BOND
   1    1    2 ar
   2    1    6 ar
   3    1   20 1
   4    2    3 ar
   5    2   31 1
   6    3    4 ar
   7    3    8 1
   8    4    5 ar
   9    4    7 1
  10    5    6 ar
  11    5   32 1
  12    6   33 1
  13    7    9 1
  14    8    9 1
  15    8   11 1
  16    8   12 1
  17    9   34 1
  18    9   35 1
  19   10   11 ar
  20   10   13 1
  21   10   18 ar
  22   11   15 ar
  23   12   13 am
  24   12   14 2
  25   13   19 1
  26   15   16 ar
  27   15   36 1
  28   16   17 ar
  29   16   37 1
  30   17   18 ar
  31   17   38 1
  32   18   39 1
  33   19   25 1
  34   19   40 1
  35   19   41 1
  36   20   21 1
  37   21   22 1
  38   21   42 1
  39   21   43 1
  40   22   23 1
  41   22   44 1
  42   22   45 1
  43   23   24 1
  44   24   46 1
  45   24   47 1
  46   24   48 1
  47   25   26 1
  48   25   49 1
  49   25   50 1
  50   26   27 1
  51   27   29 1
  52   27   51 1
  53   27   52 1
  54   28   29 1
  55   28   30 1
  56   29   53 1
  57   29   54 1
  58   30   55 1
  59   30   56 1
  60   30   57 1

#	End of record

