#	Name: ASD01815997
#	Creating user name:	WinNT
#	Creation time:	15. 06. 2019 19:34

#	Modifying user name:	WinNT
#	Modification time:	15. 06. 2019 19:34

#	Program:	/corina/corina34_cracker 3.40 0067  02.08.2006

@<TRIPOS>MOLECULE
ASD01815997
  56   61    0    0    0
SMALL
NO_CHARGES


@<TRIPOS>ATOM
   1 C1            -0.0169     1.3814    -0.0230 C.ar    
   2 C2             0.0019    -0.0039    -0.0303 C.ar    
   3 C3             1.1983    -0.6908    -0.0346 C.ar    
   4 C4             2.4014     0.0060    -0.0318 C.ar    
   5 C5             2.3790     1.4107    -0.0245 C.ar    
   6 C6             1.1662     2.0917    -0.0201 C.ar    
   7 N7             3.6053    -0.6772    -0.0356 N.pl3   
   8 C8             4.7971    -0.0586    -0.0327 C.2     
   9 C9             4.9000     1.3102    -0.0261 C.2     
  10 C10            3.6670     2.1301    -0.0216 C.2     
  11 C11            5.9972     2.2728    -0.0223 C.2     
  12 N12            5.4246     3.4960    -0.0168 N.am    
  13 N13            4.0323     3.3799    -0.0164 N.2     
  14 C14            6.1266     4.7081    -0.0117 C.ar    
  15 O15            7.1916     2.0227    -0.0233 O.2     
  16 C16            3.5779    -2.1419    -0.0427 C.3     
  17 C17            6.5654     5.2631    -1.2064 C.ar    
  18 C18            7.2574     6.4584    -1.1983 C.ar    
  19 C19            7.5144     7.1034    -0.0023 C.ar    
  20 C20            7.0795     6.5550     1.1902 C.ar    
  21 C21            6.3806     5.3615     1.1894 C.ar    
  22 F22            5.9553     4.8256     2.3543 F       
  23 C23            4.1658    -2.6584    -1.3588 C.3     
  24 C24            4.4135    -2.6750     1.1244 C.3     
  25 C25            4.4312    -4.2045     1.0761 C.3     
  26 N26            5.0028    -4.6485    -0.2016 N.3     
  27 C27            4.1907    -4.1883    -1.3352 C.3     
  28 C28            5.1556    -6.0367    -0.2261 C.ar    
  29 C29            5.6826    -6.6592    -1.3506 C.ar    
  30 C30            5.8327    -8.0319    -1.3713 C.ar    
  31 C31            5.4591    -8.7866    -0.2744 C.ar    
  32 C32            4.9342    -8.1700     0.8466 C.ar    
  33 C33            4.7863    -6.7972     0.8760 C.ar    
  34 H34           -0.9604     1.9070    -0.0242 H       
  35 H35           -0.9291    -0.5514    -0.0321 H       
  36 H36            1.2003    -1.7708    -0.0399 H       
  37 H37            1.1505     3.1716    -0.0148 H       
  38 H38            5.6984    -0.6537    -0.0353 H       
  39 H39            2.5489    -2.4875     0.0570 H       
  40 H40            6.3662     4.7603    -2.1412 H       
  41 H41            7.5988     6.8900    -2.1277 H       
  42 H42            8.0564     8.0376     0.0004 H       
  43 H43            7.2821     7.0611     2.1225 H       
  44 H44            3.5502    -2.3172    -2.1911 H       
  45 H45            5.1811    -2.2797    -1.4773 H       
  46 H46            5.4326    -2.2966     1.0451 H       
  47 H47            3.9747    -2.3457     2.0663 H       
  48 H48            5.0371    -4.5869     1.8975 H       
  49 H49            3.4131    -4.5826     1.1694 H       
  50 H50            3.1738    -4.5665    -1.2306 H       
  51 H51            4.6220    -4.5590    -2.2651 H       
  52 H52            5.9742    -6.0705    -2.2077 H       
  53 H53            6.2420    -8.5166    -2.2454 H       
  54 H54            5.5772    -9.8599    -0.2934 H       
  55 H55            4.6434    -8.7623     1.7016 H       
  56 H56            4.3766    -6.3163     1.7520 H       
@<TRIPOS>BOND
   1    1    2 ar
   2    1    6 ar
   3    1   34 1
   4    2    3 ar
   5    2   35 1
   6    3    4 ar
   7    3   36 1
   8    4    5 ar
   9    4    7 1
  10    5    6 ar
  11    5   10 1
  12    6   37 1
  13    7    8 1
  14    7   16 1
  15    8    9 2
  16    8   38 1
  17    9   10 1
  18    9   11 1
  19   10   13 2
  20   11   12 am
  21   11   15 2
  22   12   13 1
  23   12   14 1
  24   14   17 ar
  25   14   21 ar
  26   16   23 1
  27   16   24 1
  28   16   39 1
  29   17   18 ar
  30   17   40 1
  31   18   19 ar
  32   18   41 1
  33   19   20 ar
  34   19   42 1
  35   20   21 ar
  36   20   43 1
  37   21   22 1
  38   23   27 1
  39   23   44 1
  40   23   45 1
  41   24   25 1
  42   24   46 1
  43   24   47 1
  44   25   26 1
  45   25   48 1
  46   25   49 1
  47   26   27 1
  48   26   28 1
  49   27   50 1
  50   27   51 1
  51   28   29 ar
  52   28   33 ar
  53   29   30 ar
  54   29   52 1
  55   30   31 ar
  56   30   53 1
  57   31   32 ar
  58   31   54 1
  59   32   33 ar
  60   32   55 1
  61   33   56 1

#	End of record

