#	Name: ASD01200307
#	Creating user name:	WinNT
#	Creation time:	15. 06. 2019 19:08

#	Modifying user name:	WinNT
#	Modification time:	15. 06. 2019 19:08

#	Program:	/corina/corina34_cracker 3.40 0067  02.08.2006

@<TRIPOS>MOLECULE
ASD01200307
  27   27    0    0    0
SMALL
NO_CHARGES


@<TRIPOS>ATOM
   1 C1            -0.0170     1.4001     0.0097 C.2     
   2 C2             0.0021    -0.0041     0.0020 C.2     
   3 C3            -1.2794    -0.4364     0.0119 C.2     
   4 N4            -2.0822     0.6484     0.0254 N.pl3   
   5 N5            -1.2699     1.7896     0.0295 N.2     
   6 N6             1.1046     2.2378     0.0035 N.pl3   
   7 C7            -3.5471     0.6348     0.0393 C.3     
   8 P8            -4.1383     0.6199     1.7637 P.3     
   9 O9            -3.5307    -0.5215     2.4837 O.2     
  10 O10           -3.7183     1.9956     2.4869 O.3     
  11 C11           -3.9461     2.2462     3.8752 C.3     
  12 C12           -3.4293     3.6410     4.2333 C.3     
  13 C13           -5.9535     0.4532     1.7823 C.3     
  14 H14            0.8835    -0.6280    -0.0103 H       
  15 H15           -1.6029    -1.4668     0.0092 H       
  16 H16            1.9958     1.8550    -0.0070 H       
  17 H17            0.9906     3.2010     0.0098 H       
  18 H18           -3.9235     1.5241    -0.4662 H       
  19 H19           -3.9070    -0.2558    -0.4759 H       
  20 H20           -5.0144     2.1898     4.0841 H       
  21 H21           -3.4197     1.4999     4.4703 H       
  22 H22           -3.6031     3.8321     5.2922 H       
  23 H23           -2.3610     3.6974     4.0244 H       
  24 H24           -3.9557     4.3873     3.6382 H       
  25 H25           -6.2379    -0.4782     1.2927 H       
  26 H26           -6.3071     0.4443     2.8133 H       
  27 H27           -6.4011     1.2938     1.2520 H       
@<TRIPOS>BOND
   1    1    2 1
   2    1    6 1
   3    1    5 2
   4    2    3 2
   5    2   14 1
   6    3    4 1
   7    3   15 1
   8    4    5 1
   9    4    7 1
  10    6   16 1
  11    6   17 1
  12    7    8 1
  13    7   18 1
  14    7   19 1
  15    8    9 2
  16    8   10 1
  17    8   13 1
  18   10   11 1
  19   11   12 1
  20   11   20 1
  21   11   21 1
  22   12   22 1
  23   12   23 1
  24   12   24 1
  25   13   25 1
  26   13   26 1
  27   13   27 1

#	End of record

