#	Name: ASD03240671
#	Creating user name:	WinNT
#	Creation time:	15. 06. 2019 20:35

#	Modifying user name:	WinNT
#	Modification time:	15. 06. 2019 20:35

#	Program:	/corina/corina34_cracker 3.40 0067  02.08.2006

@<TRIPOS>MOLECULE
ASD03240671
  56   62    0    0    0
SMALL
NO_CHARGES


@<TRIPOS>ATOM
   1 C1            -0.0166     1.3755     0.0096 C.ar    
   2 C2             0.0021    -0.0041     0.0020 C.ar    
   3 N3             1.1422    -0.6683    -0.0054 N.ar    
   4 C4             2.3145    -0.0481    -0.0053 C.ar    
   5 C5             2.3702     1.3442    -0.0124 C.ar    
   6 C6             1.1860     2.0698     0.0019 C.ar    
   7 N7             3.4819    -0.8059     0.0229 N.pl3   
   8 C8             4.3589    -0.7191     1.1005 C.ar    
   9 C9             4.9947     0.4893     1.4043 C.ar    
  10 C10            4.7633     1.6838     0.5623 C.2     
  11 N11            3.5938     2.0277    -0.0512 N.pl3   
  12 C12            4.6048    -1.8387     1.8842 C.ar    
  13 C13            5.4644    -1.7530     2.9627 C.ar    
  14 C14            6.0855    -0.5549     3.2709 C.ar    
  15 C15            5.8553     0.5660     2.4990 C.ar    
  16 N16            5.6750     2.5933     0.2863 N.2     
  17 C17            5.1445     3.5405    -0.5063 C.2     
  18 C18            3.8205     3.2021    -0.7369 C.2     
  19 C19            2.8464     3.9499    -1.5544 C.ar    
  20 C20            2.7455     5.3381    -1.4311 C.ar    
  21 C21            2.0244     3.2741    -2.4600 C.ar    
  22 C22            1.1165     3.9799    -3.2213 C.ar    
  23 C23            1.0184     5.3540    -3.0900 C.ar    
  24 C24            1.8329     6.0306    -2.1990 C.ar    
  25 C25            5.8445     4.7254    -1.0343 C.2     
  26 O26            7.1306     5.0456    -0.8047 O.3     
  27 C27            0.0241     6.1180    -3.9259 C.3     
  28 N28           -1.0537     5.2681    -4.4492 N.3     
  29 C29           -0.4785     7.4091    -3.2585 C.3     
  30 C30           -0.3927     8.0665    -4.6461 C.3     
  31 C31            0.6755     7.0135    -4.9929 C.3     
  32 C32            7.3899     6.1954    -1.4602 C.2     
  33 C33            6.2570     6.5649    -2.0837 C.2     
  34 N34            5.3188     5.6441    -1.8133 N.2     
  35 H35           -0.9556     1.9091     0.0170 H       
  36 H36           -0.9306    -0.5486     0.0025 H       
  37 H37            1.2002     3.1497     0.0068 H       
  38 H38            3.6865    -1.4001    -0.7160 H       
  39 H39            4.1237    -2.7770     1.6508 H       
  40 H40            5.6531    -2.6266     3.5689 H       
  41 H41            6.7519    -0.4968     4.1188 H       
  42 H42            6.3412     1.4995     2.7414 H       
  43 H43            3.3803     5.8674    -0.7359 H       
  44 H44            2.1001     2.2018    -2.5637 H       
  45 H45            0.4807     3.4589    -3.9219 H       
  46 H46            1.7509     7.1031    -2.1018 H       
  47 H47           -0.6798     4.4461    -4.8994 H       
  48 H48           -1.7028     5.0165    -3.7188 H       
  49 H49           -1.4953     7.3341    -2.8730 H       
  50 H50            0.2204     7.8266    -2.5337 H       
  51 H51           -1.3064     7.9692    -5.2326 H       
  52 H52           -0.0101     9.0868    -4.6230 H       
  53 H53            1.6904     7.3223    -4.7425 H       
  54 H54            0.5893     6.6213    -6.0062 H       
  55 H55            8.3325     6.7221    -1.4803 H       
  56 H56            6.1264     7.4447    -2.6963 H       
@<TRIPOS>BOND
   1    1    2 ar
   2    1    6 ar
   3    1   35 1
   4    2    3 ar
   5    2   36 1
   6    3    4 ar
   7    4    5 ar
   8    4    7 1
   9    5    6 ar
  10    5   11 1
  11    6   37 1
  12    7    8 1
  13    7   38 1
  14    8    9 ar
  15    8   12 ar
  16    9   10 1
  17    9   15 ar
  18   10   11 1
  19   10   16 2
  20   11   18 1
  21   12   13 ar
  22   12   39 1
  23   13   14 ar
  24   13   40 1
  25   14   15 ar
  26   14   41 1
  27   15   42 1
  28   16   17 1
  29   17   18 2
  30   17   25 1
  31   18   19 1
  32   19   20 ar
  33   19   21 ar
  34   20   24 ar
  35   20   43 1
  36   21   22 ar
  37   21   44 1
  38   22   23 ar
  39   22   45 1
  40   23   24 ar
  41   23   27 1
  42   24   46 1
  43   25   26 1
  44   25   34 2
  45   26   32 1
  46   27   28 1
  47   27   29 1
  48   27   31 1
  49   28   47 1
  50   28   48 1
  51   29   30 1
  52   29   49 1
  53   29   50 1
  54   30   31 1
  55   30   51 1
  56   30   52 1
  57   31   53 1
  58   31   54 1
  59   32   33 2
  60   32   55 1
  61   33   34 1
  62   33   56 1

#	End of record

