#	Name: ASD08151095
#	Creating user name:	WinNT
#	Creation time:	15. 06. 2019 21:17

#	Modifying user name:	WinNT
#	Modification time:	15. 06. 2019 21:17

#	Program:	/corina/corina34_cracker 3.40 0067  02.08.2006

@<TRIPOS>MOLECULE
ASD08151095
  34   34    0    0    0
SMALL
NO_CHARGES


@<TRIPOS>ATOM
   1 C1            -0.0184     1.5028     0.0103 C.2     
   2 C2             0.1329     0.0036    -0.0146 C.3     
   3 C3             1.1711     2.3596     0.0091 C.ar    
   4 C4             1.0335     3.7558    -0.0845 C.ar    
   5 C5             2.1582     4.5597    -0.0848 C.ar    
   6 C6             3.4261     3.9853     0.0076 C.ar    
   7 C7             3.5631     2.5942     0.1004 C.ar    
   8 C8             2.4476     1.7891     0.1070 C.ar    
   9 C9             4.5901     4.8194     0.0072 C.1     
  10 C10            5.5444     5.5033     0.0068 C.1     
  11 Si11           7.0888     6.6100     0.0062 Si      
  12 C12            8.6137     5.5482     0.1406 C.3     
  13 C13            7.1510     7.5885    -1.5779 C.3     
  14 C14            7.0161     7.7784     1.4555 C.3     
  15 N15            2.0171     6.0299    -0.1836 N.pl3   
  16 O16            1.9120     6.7009     0.8274 O.2     
  17 O17            2.0061     6.5686    -1.2760 O.2     
  18 O18           -0.2002     4.3128    -0.1747 O.3     
  19 F19            4.7931     2.0424     0.1887 F       
  20 O20           -1.1246     2.0007     0.0264 O.2     
  21 H21            1.1863    -0.2535    -0.1258 H       
  22 H22           -0.2470    -0.4155     0.9171 H       
  23 H23           -0.4312    -0.4046    -0.8533 H       
  24 H24            2.5557     0.7173     0.1831 H       
  25 H25            8.6563     4.8645    -0.7073 H       
  26 H26            9.4997     6.1831     0.1403 H       
  27 H27            8.5773     4.9757     1.0674 H       
  28 H28            6.2589     8.2097    -1.6565 H       
  29 H29            8.0370     8.2234    -1.5782 H       
  30 H30            7.1936     6.9048    -2.4258 H       
  31 H31            6.9797     7.2059     2.3823 H       
  32 H32            7.9021     8.4133     1.4551 H       
  33 H33            6.1239     8.3997     1.3768 H       
  34 H34           -0.5974     4.5294     0.6799 H       
@<TRIPOS>BOND
   1    1    2 1
   2    1    3 1
   3    1   20 2
   4    2   21 1
   5    2   22 1
   6    2   23 1
   7    3    4 ar
   8    3    8 ar
   9    4    5 ar
  10    4   18 1
  11    5    6 ar
  12    5   15 1
  13    6    7 ar
  14    6    9 1
  15    7    8 ar
  16    7   19 1
  17    8   24 1
  18    9   10 3
  19   10   11 1
  20   11   12 1
  21   11   13 1
  22   11   14 1
  23   12   25 1
  24   12   26 1
  25   12   27 1
  26   13   28 1
  27   13   29 1
  28   13   30 1
  29   14   31 1
  30   14   32 1
  31   14   33 1
  32   15   16 2
  33   15   17 2
  34   18   34 1

#	End of record

