#	Name: ASD04170048
#	Creating user name:	WinNT
#	Creation time:	15. 06. 2019 20:48

#	Modifying user name:	WinNT
#	Modification time:	15. 06. 2019 20:48

#	Program:	/corina/corina34_cracker 3.40 0067  02.08.2006

@<TRIPOS>MOLECULE
ASD04170048
  32   33    0    0    0
SMALL
NO_CHARGES


@<TRIPOS>ATOM
   1 C1             0.1043     1.3089    -0.6588 C.ar    
   2 C2             0.1377    -0.0688    -0.6207 C.ar    
   3 N3             1.2699    -0.7128    -0.4056 N.ar    
   4 C4             2.4109    -0.0755    -0.2188 C.ar    
   5 C5             2.4632     1.3020    -0.2413 C.ar    
   6 C6             1.2887     2.0213    -0.4662 C.ar    
   7 S7             1.3008     3.7828    -0.5052 S.3     
   8 C8             3.0441     4.1856    -0.2066 C.3     
   9 C9             3.2216     5.6821    -0.2102 C.2     
  10 N10            4.4421     6.2164    -0.0070 N.am    
  11 O11            2.2661     6.4057    -0.3959 O.2     
  12 C12            4.6256     7.6000    -0.1069 C.ar    
  13 C13            5.9840     9.4753    -0.7296 C.ar    
  14 C14            5.8062     8.1092    -0.6319 C.ar    
  15 C15            3.6253     8.4668     0.3133 C.ar    
  16 C16            3.8093     9.8319     0.2129 C.ar    
  17 C17            4.9881    10.3358    -0.3054 C.ar    
  18 C18            5.1856    11.8259    -0.4135 C.3     
  19 H19           -0.8246     1.8294    -0.8397 H       
  20 H20           -0.7741    -0.6284    -0.7684 H       
  21 H21            3.3149    -0.6405    -0.0459 H       
  22 H22            3.3998     1.8170    -0.0871 H       
  23 H23            3.3488     3.7859     0.7606 H       
  24 H24            3.6585     3.7450    -0.9917 H       
  25 H25            5.1933     5.6419     0.2086 H       
  26 H26            6.9021     9.8720    -1.1374 H       
  27 H27            6.5845     7.4377    -0.9630 H       
  28 H28            2.7043     8.0738     0.7179 H       
  29 H29            3.0316    10.5065     0.5392 H       
  30 H30            4.8206    12.1716    -1.3807 H       
  31 H31            4.6328    12.3244     0.3827 H       
  32 H32            6.2462    12.0596    -0.3208 H       
@<TRIPOS>BOND
   1    1    2 ar
   2    1    6 ar
   3    1   19 1
   4    2    3 ar
   5    2   20 1
   6    3    4 ar
   7    4    5 ar
   8    4   21 1
   9    5    6 ar
  10    5   22 1
  11    6    7 1
  12    7    8 1
  13    8    9 1
  14    8   23 1
  15    8   24 1
  16    9   10 am
  17    9   11 2
  18   10   12 1
  19   10   25 1
  20   12   15 ar
  21   12   14 ar
  22   13   14 ar
  23   13   17 ar
  24   13   26 1
  25   14   27 1
  26   15   16 ar
  27   15   28 1
  28   16   17 ar
  29   16   29 1
  30   17   18 1
  31   18   30 1
  32   18   31 1
  33   18   32 1

#	End of record

