#	Name: ASD01915366
#	Creating user name:	WinNT
#	Creation time:	15. 06. 2019 20:05

#	Modifying user name:	WinNT
#	Modification time:	15. 06. 2019 20:05

#	Program:	/corina/corina34_cracker 3.40 0067  02.08.2006

@<TRIPOS>MOLECULE
ASD01915366
  41   44    0    0    0
SMALL
NO_CHARGES


@<TRIPOS>ATOM
   1 C1             0.0096     1.3202    -0.0527 C.ar    
   2 C2             0.0590    -0.0716    -0.0789 C.ar    
   3 N3             1.2248    -0.7050    -0.0855 N.ar    
   4 C4             2.3671    -0.0492    -0.0677 C.ar    
   5 C5             2.3918     1.3333    -0.0409 C.ar    
   6 C6             1.1950     2.0351    -0.0336 C.ar    
   7 C7             3.7061     2.0704    -0.0197 C.3     
   8 N8             4.6667     1.3554     0.8332 N.am    
   9 C9             5.8137     0.9379     0.0064 C.3     
  10 C10            5.8219     1.9248    -1.1876 C.3     
  11 C11            4.3036     2.1188    -1.4418 C.3     
  12 C12            4.5229     1.1211     2.1527 C.2     
  13 O13            3.5829     1.6013     2.7567 O.2     
  14 C14            5.5040     0.2836     2.8629 C.2     
  15 C15           -1.2024    -0.8522    -0.0992 C.ar    
  16 C16           -1.1625    -2.2446    -0.1254 C.ar    
  17 C17           -2.3404    -2.9663    -0.1437 C.ar    
  18 C18           -3.5580    -2.3079    -0.1360 C.ar    
  19 C19           -3.6022    -0.9256    -0.1104 C.ar    
  20 C20           -2.4316    -0.1952    -0.0862 C.ar    
  21 Cl21          -2.2934    -4.7013    -0.1770 Cl      
  22 N22            5.5368     0.0810     4.1523 N.2     
  23 C23            6.4927    -0.6990     4.5837 C.2     
  24 C24            7.3154    -1.1894     3.6432 C.2     
  25 S25            6.8193    -0.6137     2.1105 S.3     
  26 H26           -0.9400     1.8345    -0.0519 H       
  27 H27            3.2970    -0.5986    -0.0738 H       
  28 H28            1.1883     3.1149    -0.0128 H       
  29 H29            3.5574     3.0823     0.3570 H       
  30 H30            6.7406     1.0212     0.5738 H       
  31 H31            5.6747    -0.0838    -0.3469 H       
  32 H32            6.2955     2.8672    -0.9123 H       
  33 H33            6.3102     1.4831    -2.0562 H       
  34 H34            3.9084     1.3081    -2.0540 H       
  35 H35            4.1111     3.0849    -1.9083 H       
  36 H36           -0.2127    -2.7587    -0.1318 H       
  37 H37           -4.4767    -2.8755    -0.1503 H       
  38 H38           -4.5549    -0.4170    -0.1052 H       
  39 H39           -2.4678     0.8840    -0.0662 H       
  40 H40            6.6133    -0.9339     5.6309 H       
  41 H41            8.1536    -1.8458     3.8245 H       
@<TRIPOS>BOND
   1    1    2 ar
   2    1    6 ar
   3    1   26 1
   4    2    3 ar
   5    2   15 1
   6    3    4 ar
   7    4    5 ar
   8    4   27 1
   9    5    6 ar
  10    5    7 1
  11    6   28 1
  12    7    8 1
  13    7   11 1
  14    7   29 1
  15    8    9 1
  16    8   12 am
  17    9   10 1
  18    9   30 1
  19    9   31 1
  20   10   11 1
  21   10   32 1
  22   10   33 1
  23   11   34 1
  24   11   35 1
  25   12   13 2
  26   12   14 1
  27   14   22 2
  28   14   25 1
  29   15   16 ar
  30   15   20 ar
  31   16   17 ar
  32   16   36 1
  33   17   18 ar
  34   17   21 1
  35   18   19 ar
  36   18   37 1
  37   19   20 ar
  38   19   38 1
  39   20   39 1
  40   22   23 1
  41   23   24 2
  42   23   40 1
  43   24   25 1
  44   24   41 1

#	End of record

