#	Name: ASD01882842
#	Creating user name:	WinNT
#	Creation time:	15. 06. 2019 19:45

#	Modifying user name:	WinNT
#	Modification time:	15. 06. 2019 19:45

#	Program:	/corina/corina34_cracker 3.40 0067  02.08.2006

@<TRIPOS>MOLECULE
ASD01882842
  51   54    0    0    0
SMALL
NO_CHARGES


@<TRIPOS>ATOM
   1 C1            -0.0159     1.3250     0.0093 C.2     
   2 N2             0.0021    -0.0041     0.0020 N.2     
   3 C3             1.1598    -0.6471    -0.1194 C.2     
   4 C4             2.4657     0.0595    -0.3547 C.3     
   5 C5             2.4478     1.4494     0.2975 C.3     
   6 N6             1.1427     2.0519     0.0022 N.pl3   
   7 O7            -1.0914     2.1228     0.0506 O.3     
   8 C8             0.8310     3.4340    -0.3540 C.3     
   9 C9            -0.7103     3.4383    -0.4604 C.3     
  10 O10            1.1623    -1.8594    -0.0361 O.2     
  11 C11            3.6039    -0.7672     0.2471 C.3     
  12 C12           -1.1492     3.5983    -1.9173 C.3     
  13 O13           -2.5765     3.6117    -1.9860 O.3     
  14 C14           -3.1336     3.7478    -3.2180 C.ar    
  15 C15           -4.5137     3.7688    -3.3581 C.ar    
  16 C16           -5.0776     3.9072    -4.6116 C.ar    
  17 C17           -4.2678     4.0246    -5.7261 C.ar    
  18 C18           -2.8921     4.0035    -5.5892 C.ar    
  19 C19           -2.3232     3.8716    -4.3372 C.ar    
  20 C20           -4.8856     4.1755    -7.0923 C.3     
  21 C21           -4.4316     5.4976    -7.7142 C.3     
  22 C22           -5.0588     5.6507    -9.1013 C.3     
  23 C23           -4.6152     4.4890    -9.9927 C.3     
  24 C24           -5.0692     3.1668    -9.3708 C.3     
  25 C25           -4.4420     3.0137    -7.9837 C.3     
  26 H26            2.6297     0.1665    -1.4270 H       
  27 H27            2.5774     1.3551     1.3756 H       
  28 H28            3.2439     2.0656    -0.1204 H       
  29 H29            1.1638     4.1165     0.4280 H       
  30 H30            1.2827     3.6952    -1.3110 H       
  31 H31           -1.1355     4.2284     0.1586 H       
  32 H32            3.6298    -1.7487    -0.2262 H       
  33 H33            4.5522    -0.2571     0.0780 H       
  34 H34            3.4406    -0.8846     1.3184 H       
  35 H35           -0.7575     4.5349    -2.3140 H       
  36 H36           -0.7650     2.7653    -2.5061 H       
  37 H37           -5.1467     3.6767    -2.4879 H       
  38 H38           -6.1519     3.9232    -4.7212 H       
  39 H39           -2.2616     4.0948    -6.4614 H       
  40 H40           -1.2486     3.8600    -4.2303 H       
  41 H41           -5.9718     4.1703    -7.0025 H       
  42 H42           -4.7475     6.3252    -7.0792 H       
  43 H43           -3.3453     5.5028    -7.8041 H       
  44 H44           -6.1451     5.6455    -9.0115 H       
  45 H45           -4.7353     6.5926    -9.5444 H       
  46 H46           -5.0621     4.5980   -10.9809 H       
  47 H47           -3.5290     4.4941   -10.0825 H       
  48 H48           -6.1555     3.1617    -9.2809 H       
  49 H49           -4.7533     2.3392   -10.0058 H       
  50 H50           -3.3557     3.0189    -8.0735 H       
  51 H51           -4.7655     2.0718    -7.5406 H       
@<TRIPOS>BOND
   1    1    2 2
   2    1    6 1
   3    1    7 1
   4    2    3 1
   5    3    4 1
   6    3   10 2
   7    4    5 1
   8    4   11 1
   9    4   26 1
  10    5    6 1
  11    5   27 1
  12    5   28 1
  13    6    8 1
  14    7    9 1
  15    8    9 1
  16    8   29 1
  17    8   30 1
  18    9   12 1
  19    9   31 1
  20   11   32 1
  21   11   33 1
  22   11   34 1
  23   12   13 1
  24   12   35 1
  25   12   36 1
  26   13   14 1
  27   14   15 ar
  28   14   19 ar
  29   15   16 ar
  30   15   37 1
  31   16   17 ar
  32   16   38 1
  33   17   18 ar
  34   17   20 1
  35   18   19 ar
  36   18   39 1
  37   19   40 1
  38   20   21 1
  39   20   25 1
  40   20   41 1
  41   21   22 1
  42   21   42 1
  43   21   43 1
  44   22   23 1
  45   22   44 1
  46   22   45 1
  47   23   24 1
  48   23   46 1
  49   23   47 1
  50   24   25 1
  51   24   48 1
  52   24   49 1
  53   25   50 1
  54   25   51 1

#	End of record

