#	Name: ASD00070041
#	Creating user name:	WinNT
#	Creation time:	15. 06. 2019 18:29

#	Modifying user name:	WinNT
#	Modification time:	15. 06. 2019 18:29

#	Program:	/corina/corina34_cracker 3.40 0067  02.08.2006

@<TRIPOS>MOLECULE
ASD00070041
  68   72    0    0    0
SMALL
NO_CHARGES


@<TRIPOS>ATOM
   1 C1            -0.0188     1.5336     0.0105 C.3     
   2 C2             0.0021    -0.0041     0.0020 C.3     
   3 C3             1.3941     0.0896     0.6488 C.3     
   4 C4             1.5179     1.4762    -0.0045 C.3     
   5 C5            -0.6126     2.1361    -1.2367 C.2     
   6 O6            -1.0169     1.4160    -2.1249 O.2     
   7 N7            -0.6943     3.4753    -1.3651 N.am    
   8 C8            -1.2715     4.0610    -2.5775 C.3     
   9 C9            -1.8186     5.4542    -2.2602 C.3     
  10 C10           -2.4215     6.0659    -3.5264 C.3     
  11 C11           -1.3410     6.1756    -4.6041 C.3     
  12 C12           -0.7939     4.7824    -4.9214 C.3     
  13 C13           -0.1910     4.1707    -3.6552 C.3     
  14 C14           -1.9438     6.7873    -5.8703 C.3     
  15 C15           -0.8386     7.0123    -6.9040 C.3     
  16 N16           -1.4174     7.5997    -8.1197 N.3     
  17 C17           -0.3647     8.0480    -9.0402 C.3     
  18 C18           -0.9988     8.7826   -10.2236 C.3     
  19 C19           -1.9657     7.8394   -10.9447 C.3     
  20 C20           -3.0235     7.3490    -9.9522 C.3     
  21 C21           -2.3307     6.6560    -8.7767 C.3     
  22 O22           -2.8175     8.2042   -15.6153 O.3     
  23 C23           -2.3634     6.8609   -15.3780 C.3     
  24 C24           -1.7427     6.9537   -13.9639 C.3     
  25 C25           -2.4926     8.1303   -13.3697 C.ar    
  26 C26           -3.0994     8.8005   -14.4245 C.ar    
  27 C27           -2.6382     8.5753   -12.0748 C.ar    
  28 C28           -3.4028     9.6984   -11.8115 C.ar    
  29 C29           -4.0179    10.3694   -12.8520 C.ar    
  30 C30           -3.8708     9.9270   -14.1506 C.ar    
  31 H31           -0.4309     1.9596     0.9252 H       
  32 H32           -0.7506    -0.4545     0.6490 H       
  33 H33            0.0139    -0.4351    -0.9991 H       
  34 H34            1.3682     0.1209     1.7381 H       
  35 H35            2.1053    -0.6404     0.2621 H       
  36 H36            1.9441     1.4499    -1.0074 H       
  37 H37            1.9889     2.2208     0.6373 H       
  38 H38           -0.3709     4.0512    -0.6547 H       
  39 H39           -2.0810     3.4262    -2.9378 H       
  40 H40           -2.5884     5.3760    -1.4924 H       
  41 H41           -1.0092     6.0890    -1.8998 H       
  42 H42           -3.2309     5.4311    -3.8867 H       
  43 H43           -2.8113     7.0584    -3.3003 H       
  44 H44           -0.5315     6.8104    -4.2437 H       
  45 H45           -1.6033     4.1476    -5.2817 H       
  46 H46           -0.0241     4.8606    -5.6891 H       
  47 H47            0.6184     4.8055    -3.2948 H       
  48 H48            0.1988     3.1782    -3.8812 H       
  49 H49           -2.6924     6.1095    -6.2804 H       
  50 H50           -2.4121     7.7407    -5.6257 H       
  51 H51           -0.0900     7.6902    -6.4939 H       
  52 H52           -0.3703     6.0589    -7.1486 H       
  53 H53            0.3136     8.7213    -8.5160 H       
  54 H54            0.1912     7.1841    -9.4047 H       
  55 H55           -1.5434     9.6545    -9.8611 H       
  56 H56           -0.2184     9.1016   -10.9144 H       
  57 H57           -1.4148     6.9864   -11.3411 H       
  58 H58           -3.5999     8.1983    -9.5855 H       
  59 H59           -3.6896     6.6437   -10.4492 H       
  60 H60           -1.7656     5.7986    -9.1424 H       
  61 H61           -3.0803     6.3182    -8.0612 H       
  62 H62           -3.2006     6.1630   -15.3872 H       
  63 H63           -1.6108     6.5725   -16.1119 H       
  64 H64           -1.9320     6.0435   -13.3949 H       
  65 H65           -0.6741     7.1611   -14.0203 H       
  66 H66           -3.5188    10.0493   -10.7967 H       
  67 H67           -4.6171    11.2443   -12.6472 H       
  68 H68           -4.3544    10.4571   -14.9576 H       
@<TRIPOS>BOND
   1    1    2 1
   2    1    4 1
   3    1    5 1
   4    1   31 1
   5    2    3 1
   6    2   32 1
   7    2   33 1
   8    3    4 1
   9    3   34 1
  10    3   35 1
  11    4   36 1
  12    4   37 1
  13    5    6 2
  14    5    7 am
  15    7    8 1
  16    7   38 1
  17    8    9 1
  18    8   13 1
  19    8   39 1
  20    9   10 1
  21    9   40 1
  22    9   41 1
  23   10   11 1
  24   10   42 1
  25   10   43 1
  26   11   12 1
  27   11   14 1
  28   11   44 1
  29   12   13 1
  30   12   45 1
  31   12   46 1
  32   13   47 1
  33   13   48 1
  34   14   15 1
  35   14   49 1
  36   14   50 1
  37   15   16 1
  38   15   51 1
  39   15   52 1
  40   16   17 1
  41   16   21 1
  42   17   18 1
  43   17   53 1
  44   17   54 1
  45   18   19 1
  46   18   55 1
  47   18   56 1
  48   19   20 1
  49   19   27 1
  50   19   57 1
  51   20   21 1
  52   20   58 1
  53   20   59 1
  54   21   60 1
  55   21   61 1
  56   22   23 1
  57   22   26 1
  58   23   24 1
  59   23   62 1
  60   23   63 1
  61   24   25 1
  62   24   64 1
  63   24   65 1
  64   25   26 ar
  65   25   27 ar
  66   26   30 ar
  67   27   28 ar
  68   28   29 ar
  69   28   66 1
  70   29   30 ar
  71   29   67 1
  72   30   68 1

#	End of record

