#	Name: ASD01148433
#	Creating user name:	WinNT
#	Creation time:	15. 06. 2019 19:02

#	Modifying user name:	WinNT
#	Modification time:	15. 06. 2019 19:02

#	Program:	/corina/corina34_cracker 3.40 0067  02.08.2006

@<TRIPOS>MOLECULE
ASD01148433
  49   51    0    0    0
SMALL
NO_CHARGES


@<TRIPOS>ATOM
   1 C1             0.3637     1.8435     0.0679 C.ar    
   2 C2             0.4623     0.4646    -0.0076 C.ar    
   3 C3            -0.6832    -0.3062    -0.0946 C.ar    
   4 C4            -1.9250     0.3003    -0.1062 C.ar    
   5 C5            -2.0235     1.6773    -0.0309 C.ar    
   6 C6            -0.8804     2.4486     0.0614 C.ar    
   7 C7            -3.3782     2.3373    -0.0442 C.3     
   8 O8            -4.3700     1.4926     0.5742 O.3     
   9 C9            -3.3993     3.5773     0.8813 C.3     
  10 C10           -3.9255     3.0069     2.1846 C.2     
  11 N11           -4.4451     1.8509     1.9399 N.2     
  12 C12           -3.8554     3.6614     3.5058 C.ar    
  13 C13           -4.3819     3.0217     4.6313 C.ar    
  14 C14           -3.2577     4.9178     3.6322 C.ar    
  15 C15           -3.1923     5.5282     4.8643 C.ar    
  16 C16           -3.7238     4.8912     5.9885 C.ar    
  17 C17           -4.3166     3.6319     5.8631 C.ar    
  18 C18           -3.6537     5.5461     7.3106 C.2     
  19 O19           -4.2121     5.0458     8.2669 O.2     
  20 N20           -2.9704     6.6987     7.4564 N.am    
  21 C21           -4.8902     2.9449     7.0756 C.3     
  22 C22           -3.7886     2.7102    -1.4701 C.3     
  23 F23           -3.8275     1.5568    -2.2609 F       
  24 F24           -5.0547     3.3051    -1.4505 F       
  25 F25           -2.8589     3.6098    -2.0028 F       
  26 Cl26           2.0224    -0.2966     0.0065 Cl      
  27 Cl27           1.8001     2.8122     0.1778 Cl      
  28 C28           -2.9065     7.2963     8.6627 C.2     
  29 O29           -2.2241     8.4473     8.8083 O.3     
  30 C30           -2.1977     9.0346    10.1359 C.3     
  31 O31           -3.4647     6.7961     9.6186 O.2     
  32 C32           -0.5769    -1.8072    -0.1773 C.3     
  33 F33           -1.8588    -2.3618    -0.2569 F       
  34 F34            0.1557    -2.1608    -1.3154 F       
  35 F35            0.0710    -2.2924     0.9638 F       
  36 H36           -2.8190    -0.3018    -0.1746 H       
  37 H37           -0.9580     3.5242     0.1203 H       
  38 H38           -2.3947     3.9793     1.0125 H       
  39 H39           -4.0744     4.3393     0.4919 H       
  40 H40           -4.8403     2.0486     4.5343 H       
  41 H41           -2.8466     5.4101     2.7632 H       
  42 H42           -2.7300     6.4993     4.9621 H       
  43 H43           -2.5247     7.0981     6.6930 H       
  44 H44           -5.8980     3.3167     7.2610 H       
  45 H45           -4.9260     1.8696     6.9010 H       
  46 H46           -4.2616     3.1517     7.9417 H       
  47 H47           -3.2161     9.2554    10.4558 H       
  48 H48           -1.7414     8.3333    10.8345 H       
  49 H49           -1.6159     9.9561    10.1141 H       
@<TRIPOS>BOND
   1    1    2 ar
   2    1   27 1
   3    1    6 ar
   4    2    3 ar
   5    2   26 1
   6    3    4 ar
   7    3   32 1
   8    4    5 ar
   9    4   36 1
  10    5    6 ar
  11    5    7 1
  12    6   37 1
  13    7    8 1
  14    7    9 1
  15    7   22 1
  16    8   11 1
  17    9   10 1
  18    9   38 1
  19    9   39 1
  20   10   11 2
  21   10   12 1
  22   12   13 ar
  23   12   14 ar
  24   13   17 ar
  25   13   40 1
  26   14   15 ar
  27   14   41 1
  28   15   16 ar
  29   15   42 1
  30   16   17 ar
  31   16   18 1
  32   17   21 1
  33   18   19 2
  34   18   20 am
  35   20   28 am
  36   20   43 1
  37   21   44 1
  38   21   45 1
  39   21   46 1
  40   22   23 1
  41   22   24 1
  42   22   25 1
  43   28   29 1
  44   28   31 2
  45   29   30 1
  46   30   47 1
  47   30   48 1
  48   30   49 1
  49   32   33 1
  50   32   34 1
  51   32   35 1

#	End of record

