#	Name: ASD04880053
#	Creating user name:	WinNT
#	Creation time:	15. 06. 2019 20:52

#	Modifying user name:	WinNT
#	Modification time:	15. 06. 2019 20:52

#	Program:	/corina/corina34_cracker 3.40 0067  02.08.2006

@<TRIPOS>MOLECULE
ASD04880053
  44   47    0    0    0
SMALL
NO_CHARGES


@<TRIPOS>ATOM
   1 C1            -0.0144     1.2119     0.0087 C.2     
   2 O2             0.0489    -0.0023     0.0315 O.2     
   3 N3             1.1153     1.9447    -0.0486 N.am    
   4 N4             1.1768     3.3293    -0.1917 N.2     
   5 C5             2.3749     3.8028    -0.2209 C.2     
   6 C6             3.3685     2.6711    -0.0864 C.3     
   7 C7             2.4851     1.4138     0.0361 C.3     
   8 C8             2.7231     5.2281    -0.3639 C.ar    
   9 C9             1.7135     6.1876    -0.4807 C.ar    
  10 C10            2.0456     7.5223    -0.6145 C.ar    
  11 C11            3.3843     7.9090    -0.6328 C.ar    
  12 C12            4.3864     6.9572    -0.5174 C.ar    
  13 C13            4.0627     5.6237    -0.3772 C.ar    
  14 O14            3.7088     9.2225    -0.7646 O.3     
  15 C15            5.1000     9.5491    -0.7757 C.3     
  16 O16            1.0659     8.4585    -0.7289 O.3     
  17 C17           -0.2843     7.9911    -0.7028 C.3     
  18 O18           -4.8627     3.9701     0.1387 O.3     
  19 C19           -4.4383     5.2401     0.2588 C.2     
  20 C20           -3.0998     5.2794     0.2926 C.2     
  21 C21           -2.6472     3.8867     0.1818 C.ar    
  22 C22           -3.8212     3.1166     0.0882 C.ar    
  23 C23           -1.4017     3.2693     0.1565 C.ar    
  24 C24           -1.3292     1.8833     0.0376 C.ar    
  25 C25           -2.5047     1.1270    -0.0549 C.ar    
  26 C26           -3.7268     1.7336    -0.0300 C.ar    
  27 H27            4.0031     2.6124    -0.9706 H       
  28 H28            3.9732     2.7979     0.8116 H       
  29 H29            2.6468     0.9209     0.9948 H       
  30 H30            2.6820     0.7273    -0.7873 H       
  31 H31            0.6764     5.8866    -0.4667 H       
  32 H32            5.4226     7.2613    -0.5324 H       
  33 H33            4.8449     4.8851    -0.2823 H       
  34 H34            5.2193    10.6269    -0.8863 H       
  35 H35            5.5563     9.2272     0.1603 H       
  36 H36            5.5855     9.0424    -1.6098 H       
  37 H37           -0.9638     8.8376    -0.8027 H       
  38 H38           -0.4446     7.2972    -1.5279 H       
  39 H39           -0.4744     7.4822     0.2421 H       
  40 H40           -5.0835     6.1041     0.3189 H       
  41 H41           -2.4785     6.1583     0.3827 H       
  42 H42           -0.4994     3.8585     0.2279 H       
  43 H43           -2.4431     0.0527    -0.1473 H       
  44 H44           -4.6246     1.1376    -0.1019 H       
@<TRIPOS>BOND
   1    1    2 2
   2    1    3 am
   3    1   24 1
   4    3    4 1
   5    3    7 1
   6    4    5 2
   7    5    6 1
   8    5    8 1
   9    6    7 1
  10    6   27 1
  11    6   28 1
  12    7   29 1
  13    7   30 1
  14    8    9 ar
  15    8   13 ar
  16    9   10 ar
  17    9   31 1
  18   10   11 ar
  19   10   16 1
  20   11   12 ar
  21   11   14 1
  22   12   13 ar
  23   12   32 1
  24   13   33 1
  25   14   15 1
  26   15   34 1
  27   15   35 1
  28   15   36 1
  29   16   17 1
  30   17   37 1
  31   17   38 1
  32   17   39 1
  33   18   19 1
  34   18   22 1
  35   19   20 2
  36   19   40 1
  37   20   21 1
  38   20   41 1
  39   21   22 ar
  40   21   23 ar
  41   22   26 ar
  42   23   24 ar
  43   23   42 1
  44   24   25 ar
  45   25   26 ar
  46   25   43 1
  47   26   44 1

#	End of record

