#	Name: ASD05430346
#	Creating user name:	WinNT
#	Creation time:	15. 06. 2019 21:00

#	Modifying user name:	WinNT
#	Modification time:	15. 06. 2019 21:00

#	Program:	/corina/corina34_cracker 3.40 0067  02.08.2006

@<TRIPOS>MOLECULE
ASD05430346
  57   61    0    0    0
SMALL
NO_CHARGES


@<TRIPOS>ATOM
   1 C1            -1.0701    -0.5737    -0.3819 C.ar    
   2 C2            -0.0104    -0.0083     0.3271 C.ar    
   3 C3            -0.1628     1.2280     0.9420 C.ar    
   4 C4            -1.3612     1.9018     0.8541 C.ar    
   5 C5            -2.4283     1.3411     0.1442 C.ar    
   6 C6            -2.2734     0.0988    -0.4788 C.ar    
   7 C7            -4.8622     1.3697    -0.0453 C.2     
   8 C8            -3.7094     2.0591     0.0495 C.2     
   9 N9            -7.3198     1.4173     0.2168 N.am    
  10 C10           -6.1720     2.0184    -0.3114 C.2     
  11 C11           -8.8029     3.0520     1.2668 C.ar    
  12 C12           -9.8422     3.9636     1.2718 C.ar    
  13 C13           -8.0983     2.7991     2.4290 C.ar    
  14 C14           -8.4324     3.4572     3.5974 C.ar    
  15 C15           -9.4731     4.3705     3.6036 C.ar    
  16 C16          -10.1779     4.6232     2.4389 C.ar    
  17 F17           -9.8009     5.0140     4.7453 F       
  18 O18           -0.9173    -1.7838    -0.9824 O.3     
  19 C19           -2.0441    -2.3029    -1.6916 C.3     
  20 C20            2.4534    -0.1729     0.1584 C.2     
  21 N21            1.2105    -0.6891     0.4198 N.pl3   
  22 C22            3.3400    -1.1635     0.3722 C.2     
  23 N23            2.6628    -2.2567     0.7538 N.2     
  24 C24            1.3865    -1.9853     0.7861 C.2     
  25 C25            4.8349    -1.0618     0.2103 C.3     
  26 C26           -8.4420     2.3288    -0.0051 C.3     
  27 C27           -7.8744     3.3133    -1.0541 C.3     
  28 N28           -6.4217     3.0692    -1.0107 N.2     
  29 C29           -9.6505     1.5760    -0.5651 C.3     
  30 C30           -4.9365    -0.1417     0.1044 C.3     
  31 N31           -6.1430    -0.5030     0.8469 N.am    
  32 C32           -7.2845     0.2075     0.8099 C.2     
  33 O33           -8.2937    -0.2474     1.3122 O.2     
  34 H34            0.6601     1.6619     1.4906 H       
  35 H35           -1.4769     2.8626     1.3334 H       
  36 H36           -3.0946    -0.3376    -1.0278 H       
  37 H37           -3.7250     3.1390     0.0560 H       
  38 H38          -10.3918     4.1607     0.3633 H       
  39 H39           -7.2865     2.0867     2.4239 H       
  40 H40           -7.8822     3.2590     4.5053 H       
  41 H41          -10.9896     5.3357     2.4425 H       
  42 H42           -1.7882    -3.2713    -2.1215 H       
  43 H43           -2.8828    -2.4202    -1.0054 H       
  44 H44           -2.3208    -1.6131    -2.4889 H       
  45 H45            2.6779     0.8338    -0.1620 H       
  46 H46            0.6019    -2.6756     1.0588 H       
  47 H47            5.2820    -0.7477     1.1534 H       
  48 H48            5.2363    -2.0339    -0.0762 H       
  49 H49            5.0675    -0.3303    -0.5635 H       
  50 H50           -8.2713     3.0892    -2.0442 H       
  51 H51           -8.0985     4.3427    -0.7743 H       
  52 H52           -9.9580     0.8054     0.1419 H       
  53 H53          -10.4727     2.2741    -0.7220 H       
  54 H54           -9.3817     1.1120    -1.5141 H       
  55 H55           -4.9661    -0.6030    -0.8827 H       
  56 H56           -4.0584    -0.4964     0.6440 H       
  57 H57           -6.1190    -1.3011     1.3977 H       
@<TRIPOS>BOND
   1    1    2 ar
   2    1   18 1
   3    1    6 ar
   4    2    3 ar
   5    2   21 1
   6    3    4 ar
   7    3   34 1
   8    4    5 ar
   9    4   35 1
  10    5    6 ar
  11    5    8 1
  12    6   36 1
  13    7    8 2
  14    7   30 1
  15    7   10 1
  16    8   37 1
  17    9   10 1
  18    9   26 1
  19    9   32 am
  20   10   28 2
  21   11   12 ar
  22   11   13 ar
  23   11   26 1
  24   12   16 ar
  25   12   38 1
  26   13   14 ar
  27   13   39 1
  28   14   15 ar
  29   14   40 1
  30   15   16 ar
  31   15   17 1
  32   16   41 1
  33   18   19 1
  34   19   42 1
  35   19   43 1
  36   19   44 1
  37   20   21 1
  38   20   22 2
  39   20   45 1
  40   21   24 1
  41   22   23 1
  42   22   25 1
  43   23   24 2
  44   24   46 1
  45   25   47 1
  46   25   48 1
  47   25   49 1
  48   26   27 1
  49   26   29 1
  50   27   28 1
  51   27   50 1
  52   27   51 1
  53   29   52 1
  54   29   53 1
  55   29   54 1
  56   30   31 1
  57   30   55 1
  58   30   56 1
  59   31   32 am
  60   31   57 1
  61   32   33 2

#	End of record

