#	Name: ASD01883295
#	Creating user name:	WinNT
#	Creation time:	15. 06. 2019 19:46

#	Modifying user name:	WinNT
#	Modification time:	15. 06. 2019 19:46

#	Program:	/corina/corina34_cracker 3.40 0067  02.08.2006

@<TRIPOS>MOLECULE
ASD01883295
  49   51    0    0    0
SMALL
NO_CHARGES


@<TRIPOS>ATOM
   1 N1            -0.0162     1.3417     0.0090 N.am    
   2 C2             0.0022    -0.0041     0.0184 C.2     
   3 C3            -1.2160    -0.7274     0.0274 C.2     
   4 C4            -2.4261    -0.0111     0.0261 C.2     
   5 C5            -2.3787     1.3969     0.0160 C.2     
   6 C6            -1.1852     2.0325     0.0130 C.2     
   7 O7             1.0659    -0.6000     0.0189 O.2     
   8 C8            -1.2149    -2.1594     0.0370 C.1     
   9 N9            -1.2141    -3.2953     0.0447 N.1     
  10 C10            1.2513     2.0763     0.0003 C.3     
  11 C11            1.6885     2.3219    -1.4451 C.3     
  12 C12            3.0122     3.0892    -1.4542 C.3     
  13 C13            4.1108     2.2182    -0.8414 C.3     
  14 C14            3.3864     3.4436    -2.8948 C.3     
  15 C15           -3.7218    -0.7212     0.0347 C.ar    
  16 C16           -4.5781    -0.6022     1.1323 C.ar    
  17 C17           -5.7852    -1.2649     1.1369 C.ar    
  18 C18           -6.1524    -2.0522     0.0504 C.ar    
  19 C19           -5.3019    -2.1732    -1.0438 C.ar    
  20 C20           -4.0959    -1.5085    -1.0572 C.ar    
  21 N21           -7.3764    -2.7225     0.0583 N.am    
  22 C22           -8.2906    -2.7636     1.2056 C.3     
  23 C23           -9.2556    -3.9361     0.9219 C.3     
  24 C24           -9.2086    -4.0167    -0.6215 C.3     
  25 C25           -7.8720    -3.4088    -0.9859 C.2     
  26 O26           -7.3241    -3.5292    -2.0611 O.2     
  27 H27           -3.2951     1.9683     0.0145 H       
  28 H28           -1.1612     3.1122     0.0052 H       
  29 H29            1.1207     3.0321     0.5078 H       
  30 H30            2.0134     1.4922     0.5162 H       
  31 H31            1.8191     1.3661    -1.9526 H       
  32 H32            0.9265     2.9060    -1.9610 H       
  33 H33            2.9060     4.0038    -0.8709 H       
  34 H34            5.0538     2.7648    -0.8478 H       
  35 H35            3.8441     1.9657     0.1849 H       
  36 H36            4.2170     1.3036    -1.4247 H       
  37 H37            2.6038     4.0641    -3.3313 H       
  38 H38            4.3294     3.9902    -2.9012 H       
  39 H39            3.4927     2.5289    -3.4780 H       
  40 H40           -4.2935     0.0086     1.9763 H       
  41 H41           -6.4474    -1.1736     1.9851 H       
  42 H42           -5.5897    -2.7855    -1.8856 H       
  43 H43           -3.4363    -1.6026    -1.9072 H       
  44 H44           -7.7343    -2.9468     2.1249 H       
  45 H45           -8.8452    -1.8281     1.2796 H       
  46 H46           -8.8906    -4.8593     1.3721 H       
  47 H47          -10.2625    -3.7056     1.2700 H       
  48 H48           -9.2614    -5.0543    -0.9511 H       
  49 H49          -10.0200    -3.4348    -1.0588 H       
@<TRIPOS>BOND
   1    1    2 am
   2    1   10 1
   3    1    6 1
   4    2    3 1
   5    2    7 2
   6    3    4 2
   7    3    8 1
   8    4    5 1
   9    4   15 1
  10    5    6 2
  11    5   27 1
  12    6   28 1
  13    8    9 3
  14   10   11 1
  15   10   29 1
  16   10   30 1
  17   11   12 1
  18   11   31 1
  19   11   32 1
  20   12   13 1
  21   12   14 1
  22   12   33 1
  23   13   34 1
  24   13   35 1
  25   13   36 1
  26   14   37 1
  27   14   38 1
  28   14   39 1
  29   15   16 ar
  30   15   20 ar
  31   16   17 ar
  32   16   40 1
  33   17   18 ar
  34   17   41 1
  35   18   19 ar
  36   18   21 1
  37   19   20 ar
  38   19   42 1
  39   20   43 1
  40   21   22 1
  41   21   25 am
  42   22   23 1
  43   22   44 1
  44   22   45 1
  45   23   24 1
  46   23   46 1
  47   23   47 1
  48   24   25 1
  49   24   48 1
  50   24   49 1
  51   25   26 2

#	End of record

