#	Name: ASD09750008
#	Creating user name:	WinNT
#	Creation time:	15. 06. 2019 21:23

#	Modifying user name:	WinNT
#	Modification time:	15. 06. 2019 21:23

#	Program:	/corina/corina34_cracker 3.40 0067  02.08.2006

@<TRIPOS>MOLECULE
ASD09750008
  98  101    0    0    0
SMALL
NO_CHARGES


@<TRIPOS>ATOM
   1 C1             0.4914     1.5541     1.5116 C.ar    
   2 C2             0.3198     0.3951     2.2699 C.ar    
   3 N3            -0.8324     0.1436     2.8554 N.ar    
   4 C4            -1.8623     0.9721     2.7489 C.ar    
   5 C5            -1.7617     2.1483     2.0076 C.ar    
   6 C6            -0.5803     2.4517     1.3868 C.ar    
   7 C7             1.7827     1.8348     0.8554 C.2     
   8 O8             1.9226     2.8472     0.1968 O.2     
   9 O9             5.3336     0.9094    -1.7093 O.3     
  10 C10            4.0456     0.7498    -1.1114 C.3     
  11 C11            4.0895     1.2476     0.3347 C.3     
  12 N12            2.8072     0.9689     0.9862 N.am    
  13 C13            3.0139     1.5603    -1.8986 C.3     
  14 N14            6.4662     0.9697     0.9613 N.am    
  15 C15            5.1940     0.5397     1.0763 C.2     
  16 O16            4.9382    -0.4169     1.7766 O.2     
  17 N17           -3.0543     0.6643     3.3825 N.3     
  18 C18           -2.9524    -0.6098     4.1054 C.3     
  19 C19           -4.3236    -0.9889     4.6695 C.3     
  20 C20           -4.8057     0.1171     5.6123 C.3     
  21 C21           -4.8567     1.4426     4.8475 C.3     
  22 C22           -3.4701     1.7512     4.2782 C.3     
  23 C23           -6.2028    -0.2273     6.1323 C.3     
  24 C24           -6.6321     0.8131     7.1687 C.3     
  25 C25           -8.0292     0.4687     7.6886 C.3     
  26 C26           -8.4585     1.5092     8.7250 C.3     
  27 C27           -9.9023     1.2369     9.1530 C.3     
  28 C28          -10.3401     2.3008    10.1646 C.3     
  29 N29           -9.3763     2.3241    11.2733 N.am    
  30 C30           -7.9492     2.4895    10.9654 C.3     
  31 C31           -7.5382     1.4235     9.9449 C.3     
  32 C32           -9.7933     2.1967    12.5486 C.2     
  33 C33          -11.2448     1.9174    12.8423 C.3     
  34 O34           -9.0005     2.3068    13.4598 O.2     
  35 C35          -11.3962     1.5115    14.2857 C.ar    
  36 C36          -12.0704     3.1781    12.5778 C.3     
  37 C37          -11.9183     0.2717    14.6039 C.ar    
  38 C38          -12.0572    -0.1006    15.9279 C.ar    
  39 C39          -11.6735     0.7666    16.9337 C.ar    
  40 C40          -11.1504     2.0060    16.6155 C.ar    
  41 C41          -11.0075     2.3766    15.2914 C.ar    
  42 C42          -11.8258     0.3611    18.3771 C.3     
  43 C43          -10.5504    -0.3415    18.8467 C.3     
  44 C44           -9.3848     0.6494    18.8255 C.3     
  45 C45          -10.7504    -0.8632    20.2711 C.3     
  46 H46            1.1385    -0.3011     2.3770 H       
  47 H47           -2.6067     2.8161     1.9275 H       
  48 H48           -0.4777     3.3572     0.8072 H       
  49 H49            5.3798     0.6136    -2.6288 H       
  50 H50            3.7668    -0.3038    -1.1247 H       
  51 H51            4.2758     2.3215     0.3438 H       
  52 H52            2.6956     0.1612     1.5117 H       
  53 H53            3.2231     2.6239    -1.7840 H       
  54 H54            3.0684     1.2910    -2.9534 H       
  55 H55            2.0153     1.3434    -1.5194 H       
  56 H56            6.6617     1.7780     0.4620 H       
  57 H57            7.1863     0.4710     1.3780 H       
  58 H58           -2.6127    -1.3886     3.4225 H       
  59 H59           -2.2390    -0.5075     4.9231 H       
  60 H60           -5.0343    -1.1050     3.8512 H       
  61 H61           -4.2444    -1.9268     5.2192 H       
  62 H62           -4.1157     0.2069     6.4513 H       
  63 H63           -5.5758     1.3648     4.0320 H       
  64 H64           -5.1583     2.2419     5.5244 H       
  65 H65           -2.7542     1.8425     5.0951 H       
  66 H66           -3.5063     2.6873     3.7210 H       
  67 H67           -6.9097    -0.2267     5.3025 H       
  68 H68           -6.1855    -1.2145     6.5941 H       
  69 H69           -5.9252     0.8125     7.9984 H       
  70 H70           -6.6494     1.8003     6.7069 H       
  71 H71           -8.7360     0.4694     6.8589 H       
  72 H72           -8.0119    -0.5184     8.1504 H       
  73 H73           -8.3908     2.5057     8.2887 H       
  74 H74          -10.5539     1.2750     8.2801 H       
  75 H75           -9.9658     0.2503     9.6122 H       
  76 H76          -10.3641     3.2772     9.6807 H       
  77 H77          -11.3310     2.0556    10.5470 H       
  78 H78           -7.7782     3.4813    10.5468 H       
  79 H79           -7.3625     2.3689    11.8761 H       
  80 H80           -7.6239     0.4352    10.3965 H       
  81 H81           -6.5071     1.5944     9.6355 H       
  82 H82          -11.5970     1.1109    12.1992 H       
  83 H83          -12.0416     3.4147    11.5142 H       
  84 H84          -13.1025     3.0074    12.8843 H       
  85 H85          -11.6554     4.0102    13.1466 H       
  86 H86          -12.2182    -0.4058    13.8181 H       
  87 H87          -12.4659    -1.0689    16.1765 H       
  88 H88          -10.8509     2.6836    17.4012 H       
  89 H89          -10.5989     3.3449    15.0428 H       
  90 H90          -11.9979     1.2476    18.9874 H       
  91 H91          -12.6724    -0.3183    18.4762 H       
  92 H92          -10.3295    -1.1764    18.1817 H       
  93 H93           -9.6057     1.4843    19.4906 H       
  94 H94           -8.4762     0.1489    19.1601 H       
  95 H95           -9.2423     1.0211    17.8108 H       
  96 H96          -11.5808    -1.5692    20.2862 H       
  97 H97           -9.8418    -1.3637    20.6057 H       
  98 H98          -10.9712    -0.0283    20.9361 H       
@<TRIPOS>BOND
   1    1    2 ar
   2    1    7 1
   3    1    6 ar
   4    2    3 ar
   5    2   46 1
   6    3    4 ar
   7    4    5 ar
   8    4   17 1
   9    5    6 ar
  10    5   47 1
  11    6   48 1
  12    7    8 2
  13    7   12 am
  14    9   10 1
  15    9   49 1
  16   10   11 1
  17   10   13 1
  18   10   50 1
  19   11   12 1
  20   11   15 1
  21   11   51 1
  22   12   52 1
  23   13   53 1
  24   13   54 1
  25   13   55 1
  26   14   15 am
  27   14   56 1
  28   14   57 1
  29   15   16 2
  30   17   18 1
  31   17   22 1
  32   18   19 1
  33   18   58 1
  34   18   59 1
  35   19   20 1
  36   19   60 1
  37   19   61 1
  38   20   21 1
  39   20   23 1
  40   20   62 1
  41   21   22 1
  42   21   63 1
  43   21   64 1
  44   22   65 1
  45   22   66 1
  46   23   24 1
  47   23   67 1
  48   23   68 1
  49   24   25 1
  50   24   69 1
  51   24   70 1
  52   25   26 1
  53   25   71 1
  54   25   72 1
  55   26   27 1
  56   26   31 1
  57   26   73 1
  58   27   28 1
  59   27   74 1
  60   27   75 1
  61   28   29 1
  62   28   76 1
  63   28   77 1
  64   29   30 1
  65   29   32 am
  66   30   31 1
  67   30   78 1
  68   30   79 1
  69   31   80 1
  70   31   81 1
  71   32   33 1
  72   32   34 2
  73   33   35 1
  74   33   36 1
  75   33   82 1
  76   35   37 ar
  77   35   41 ar
  78   36   83 1
  79   36   84 1
  80   36   85 1
  81   37   38 ar
  82   37   86 1
  83   38   39 ar
  84   38   87 1
  85   39   40 ar
  86   39   42 1
  87   40   41 ar
  88   40   88 1
  89   41   89 1
  90   42   43 1
  91   42   90 1
  92   42   91 1
  93   43   44 1
  94   43   45 1
  95   43   92 1
  96   44   93 1
  97   44   94 1
  98   44   95 1
  99   45   96 1
 100   45   97 1
 101   45   98 1

#	End of record

