#	Name: ASD01122010
#	Creating user name:	WinNT
#	Creation time:	15. 06. 2019 18:59

#	Modifying user name:	WinNT
#	Modification time:	15. 06. 2019 18:59

#	Program:	/corina/corina34_cracker 3.40 0067  02.08.2006

@<TRIPOS>MOLECULE
ASD01122010
  32   34    0    0    0
SMALL
NO_CHARGES


@<TRIPOS>ATOM
   1 C1            -0.0519     1.7935    -0.0228 C.2     
   2 S2             0.0367     0.0354    -0.0351 S.3     
   3 C3            -1.7212    -0.0590     0.0422 C.2     
   4 C4            -2.2141     1.2212     0.0700 C.2     
   5 N5            -1.2912     2.1715     0.0394 N.2     
   6 C6            -3.6574     1.5162     0.1352 C.2     
   7 C7            -4.2413     2.4879     0.8892 C.2     
   8 C8            -5.6272     2.4126     0.6456 C.2     
   9 C9            -5.8199     1.4108    -0.2344 C.2     
  10 O10           -4.6273     0.8750    -0.5453 O.3     
  11 C11           -2.5221    -1.2967     0.0712 C.ar    
  12 N12            1.0376     2.6447    -0.0669 N.pl3   
  13 C13           -2.2646    -2.3214    -0.8438 C.ar    
  14 C14           -3.0179    -3.4761    -0.8105 C.ar    
  15 C15           -4.0266    -3.6217     0.1258 C.ar    
  16 C16           -4.2873    -2.6114     1.0349 C.ar    
  17 C17           -3.5386    -1.4534     1.0176 C.ar    
  18 P18           -7.4229     0.8786    -0.8961 P.3     
  19 O19           -8.0050     1.9665    -1.7135 O.2     
  20 O20           -7.2179    -0.4298    -1.8117 O.3     
  21 O21           -8.4174     0.5311     0.3214 O.3     
  22 H22           -3.7394     3.1819     1.5472 H       
  23 H23           -6.3908     3.0393     1.0823 H       
  24 H24            1.9359     2.2810    -0.1083 H       
  25 H25            0.9034     3.6053    -0.0564 H       
  26 H26           -1.4780    -2.2090    -1.5752 H       
  27 H27           -2.8203    -4.2686    -1.5172 H       
  28 H28           -4.6134    -4.5281     0.1468 H       
  29 H29           -5.0761    -2.7320     1.7627 H       
  30 H30           -3.7432    -0.6658     1.7277 H       
  31 H31           -6.8390    -1.1843    -1.3402 H       
  32 H32           -9.2954     0.2387     0.0409 H       
@<TRIPOS>BOND
   1    1    2 1
   2    1   12 1
   3    1    5 2
   4    2    3 1
   5    3    4 2
   6    3   11 1
   7    4    5 1
   8    4    6 1
   9    6    7 2
  10    6   10 1
  11    7    8 1
  12    7   22 1
  13    8    9 2
  14    8   23 1
  15    9   10 1
  16    9   18 1
  17   11   13 ar
  18   11   17 ar
  19   12   24 1
  20   12   25 1
  21   13   14 ar
  22   13   26 1
  23   14   15 ar
  24   14   27 1
  25   15   16 ar
  26   15   28 1
  27   16   17 ar
  28   16   29 1
  29   17   30 1
  30   18   19 2
  31   18   20 1
  32   18   21 1
  33   20   31 1
  34   21   32 1

#	End of record

