#	Name: ASD02198485
#	Creating user name:	WinNT
#	Creation time:	15. 06. 2019 20:19

#	Modifying user name:	WinNT
#	Modification time:	15. 06. 2019 20:19

#	Program:	/corina/corina34_cracker 3.40 0067  02.08.2006

@<TRIPOS>MOLECULE
ASD02198485
  41   44    0    0    0
SMALL
NO_CHARGES


@<TRIPOS>ATOM
   1 C1            -0.0439     1.5049    -0.1130 C.2     
   2 C2            -0.0744     0.1652     0.0989 C.2     
   3 N3             1.0698    -0.5373     0.2608 N.pl3   
   4 N4             2.2346    -0.0034     0.2264 N.2     
   5 C5             2.4071     1.2856     0.0284 C.2     
   6 C6             1.2216     2.1380    -0.1588 C.2     
   7 C7             0.9775    -1.9161     0.4772 C.ar    
   8 C8             1.4835    -3.8492     1.8031 C.ar    
   9 C9             0.7947    -4.6438     0.9052 C.ar    
  10 C10            0.2017    -4.0790    -0.2095 C.ar    
  11 C11            0.2910    -2.7182    -0.4261 C.ar    
  12 C12            3.7645     1.8668    -0.0047 C.2     
  13 N13            4.3069     2.6059    -1.0182 N.pl3   
  14 N14            5.6090     2.9570    -0.6405 N.2     
  15 C15            5.8524     2.4581     0.5452 C.2     
  16 C16            4.7202     1.7711     0.9830 C.2     
  17 C17            3.6743     2.9498    -2.2196 C.ar    
  18 C18            2.9076     2.0101    -2.8960 C.ar    
  19 O19            1.3253     3.3410    -0.3461 O.2     
  20 C20            1.5767    -2.4874     1.5925 C.ar    
  21 C21            3.8079     4.2328    -2.7339 C.ar    
  22 C22            3.1829     4.5687    -3.9188 C.ar    
  23 C23            2.4247     3.6291    -4.5929 C.ar    
  24 C24            2.2851     2.3523    -4.0805 C.ar    
  25 C25            2.3280    -1.6223     2.5714 C.3     
  26 F26            2.8375    -2.4191     3.6023 F       
  27 F27            3.3827    -0.9809     1.9130 F       
  28 F28            1.4613    -0.6639     3.1076 F       
  29 H29           -0.9549     2.0692    -0.2468 H       
  30 H30           -1.0245    -0.3467     0.1391 H       
  31 H31            1.9454    -4.2934     2.6725 H       
  32 H32            0.7237    -5.7084     1.0721 H       
  33 H33           -0.3353    -4.7024    -0.9090 H       
  34 H34           -0.1726    -2.2778    -1.2965 H       
  35 H35            6.7760     2.5639     1.0948 H       
  36 H36            4.6141     1.2520     1.9241 H       
  37 H37            2.7984     1.0127    -2.4965 H       
  38 H38            4.3996     4.9672    -2.2077 H       
  39 H39            3.2861     5.5665    -4.3191 H       
  40 H40            1.9367     3.8943    -5.5191 H       
  41 H41            1.6926     1.6205    -4.6095 H       
@<TRIPOS>BOND
   1    1    2 2
   2    1    6 1
   3    1   29 1
   4    2    3 1
   5    2   30 1
   6    3    4 1
   7    3    7 1
   8    4    5 2
   9    5    6 1
  10    5   12 1
  11    6   19 2
  12    7   20 ar
  13    7   11 ar
  14    8    9 ar
  15    8   20 ar
  16    8   31 1
  17    9   10 ar
  18    9   32 1
  19   10   11 ar
  20   10   33 1
  21   11   34 1
  22   12   13 1
  23   12   16 2
  24   13   14 1
  25   13   17 1
  26   14   15 2
  27   15   16 1
  28   15   35 1
  29   16   36 1
  30   17   21 ar
  31   17   18 ar
  32   18   24 ar
  33   18   37 1
  34   20   25 1
  35   21   22 ar
  36   21   38 1
  37   22   23 ar
  38   22   39 1
  39   23   24 ar
  40   23   40 1
  41   24   41 1
  42   25   26 1
  43   25   27 1
  44   25   28 1

#	End of record

