#	Name: ASD01812658
#	Creating user name:	WinNT
#	Creation time:	15. 06. 2019 19:29

#	Modifying user name:	WinNT
#	Modification time:	15. 06. 2019 19:29

#	Program:	/corina/corina34_cracker 3.40 0067  02.08.2006

@<TRIPOS>MOLECULE
ASD01812658
  65   70    0    0    0
SMALL
NO_CHARGES


@<TRIPOS>ATOM
   1 O1            -0.0163     1.3521     0.0095 O.3     
   2 C2             0.0021    -0.0041     0.0020 C.ar    
   3 C3             1.2125    -0.6822    -0.0132 C.ar    
   4 C4             1.2400    -2.0606    -0.0204 C.ar    
   5 C5             0.0461    -2.7864    -0.0128 C.ar    
   6 C6            -1.1675    -2.1180     0.0023 C.ar    
   7 C7            -1.2026    -0.7228     0.0155 C.ar    
   8 C8            -2.6027    -2.5813     0.0131 C.3     
   9 N9            -3.4248    -1.3658     0.0272 N.am    
  10 C10           -2.6117    -0.2954     0.0372 C.2     
  11 C11           -4.8892    -1.3257     0.0405 C.3     
  12 O12           -2.9864     0.8612     0.0481 O.2     
  13 C13            1.2480     2.0181     0.0010 C.3     
  14 C14           -5.3787    -1.3199     1.4658 C.ar    
  15 C15           -5.5696    -0.1184     2.1239 C.ar    
  16 C16           -6.0182    -0.1073     3.4292 C.ar    
  17 C17           -6.2787    -1.3091     4.0837 C.ar    
  18 C18           -6.0847    -2.5163     3.4162 C.ar    
  19 C19           -5.6409    -2.5158     2.1092 C.ar    
  20 C20           -6.7609    -1.3034     5.4879 C.2     
  21 C21           -7.0001    -0.1643     6.2811 C.2     
  22 N22           -7.4151    -0.5659     7.4534 N.2     
  23 N23           -7.4569    -1.9653     7.4551 N.pl3   
  24 C24           -7.0586    -2.4003     6.2426 C.2     
  25 C25            1.0269     3.5320     0.0112 C.3     
  26 C26            2.3866     4.2737     0.0572 C.3     
  27 C27            0.0778    -4.2699    -0.0216 C.ar    
  28 C28           -7.8678    -2.8110     8.5786 C.3     
  29 O29            0.4106     3.9542    -1.2157 O.3     
  30 C30            0.9319     5.2282    -1.6119 C.3     
  31 C31            1.9994     5.6385    -0.5749 C.3     
  32 C32            0.8582    -4.9471    -0.9564 C.ar    
  33 C33            0.8839    -6.3270    -0.9600 C.ar    
  34 C34            0.1368    -7.0376    -0.0379 C.ar    
  35 C35           -0.6400    -6.3705     0.8920 C.ar    
  36 C36           -0.6683    -4.9907     0.9086 C.ar    
  37 H37            2.1388    -0.1269    -0.0198 H       
  38 H38            2.1865    -2.5805    -0.0322 H       
  39 H39           -2.8143    -3.1666    -0.8818 H       
  40 H40           -2.7978    -3.1761     0.9054 H       
  41 H41           -5.2326    -0.4232    -0.4653 H       
  42 H42           -5.2814    -2.2025    -0.4748 H       
  43 H43            1.8174     1.7281     0.8840 H       
  44 H44            1.8004     1.7376    -0.8958 H       
  45 H45           -5.3670     0.8128     1.6157 H       
  46 H46           -6.1666     0.8313     3.9423 H       
  47 H47           -6.2853    -3.4508     3.9191 H       
  48 H48           -5.4941    -3.4511     1.5895 H       
  49 H49           -6.8639     0.8621     5.9741 H       
  50 H50           -6.9858    -3.4305     5.9269 H       
  51 H51            0.4094     3.8178     0.8627 H       
  52 H52            2.7309     4.3997     1.0837 H       
  53 H53            3.1350     3.7597    -0.5460 H       
  54 H54           -8.9411    -2.9924     8.5233 H       
  55 H55           -7.3358    -3.7612     8.5317 H       
  56 H56           -7.6321    -2.3085     9.5167 H       
  57 H57            1.3863     5.1509    -2.5996 H       
  58 H58            0.1302     5.9666    -1.6292 H       
  59 H59            1.5754     6.3068     0.1747 H       
  60 H60            2.8588     6.0974    -1.0636 H       
  61 H61            1.4417    -4.3932    -1.6770 H       
  62 H62            1.4882    -6.8530    -1.6843 H       
  63 H63            0.1599    -8.1174    -0.0443 H       
  64 H64           -1.2219    -6.9303     1.6092 H       
  65 H65           -1.2712    -4.4707     1.6384 H       
@<TRIPOS>BOND
   1    1    2 1
   2    1   13 1
   3    2    3 ar
   4    2    7 ar
   5    3    4 ar
   6    3   37 1
   7    4    5 ar
   8    4   38 1
   9    5    6 ar
  10    5   27 1
  11    6    8 1
  12    6    7 ar
  13    7   10 1
  14    8    9 1
  15    8   39 1
  16    8   40 1
  17    9   10 am
  18    9   11 1
  19   10   12 2
  20   11   14 1
  21   11   41 1
  22   11   42 1
  23   13   25 1
  24   13   43 1
  25   13   44 1
  26   14   15 ar
  27   14   19 ar
  28   15   16 ar
  29   15   45 1
  30   16   17 ar
  31   16   46 1
  32   17   18 ar
  33   17   20 1
  34   18   19 ar
  35   18   47 1
  36   19   48 1
  37   20   21 1
  38   20   24 2
  39   21   22 2
  40   21   49 1
  41   22   23 1
  42   23   24 1
  43   23   28 1
  44   24   50 1
  45   25   29 1
  46   25   26 1
  47   25   51 1
  48   26   31 1
  49   26   52 1
  50   26   53 1
  51   27   32 ar
  52   27   36 ar
  53   28   54 1
  54   28   55 1
  55   28   56 1
  56   29   30 1
  57   30   31 1
  58   30   57 1
  59   30   58 1
  60   31   59 1
  61   31   60 1
  62   32   33 ar
  63   32   61 1
  64   33   34 ar
  65   33   62 1
  66   34   35 ar
  67   34   63 1
  68   35   36 ar
  69   35   64 1
  70   36   65 1

#	End of record

