#	Name: ASD03490039
#	Creating user name:	WinNT
#	Creation time:	15. 06. 2019 20:42

#	Modifying user name:	WinNT
#	Modification time:	15. 06. 2019 20:42

#	Program:	/corina/corina34_cracker 3.40 0067  02.08.2006

@<TRIPOS>MOLECULE
ASD03490039
  61   61    0    0    0
SMALL
NO_CHARGES


@<TRIPOS>ATOM
   1 O1            -0.5642     1.7470     0.8299 O.3     
   2 C2            -0.3447     0.4229     0.8096 C.2     
   3 C3            -1.4829    -0.5254     0.5335 C.3     
   4 O4             0.7654    -0.0086     1.0127 O.2     
   5 O5            -1.0274    -1.8720     0.6797 O.3     
   6 C6            -2.6198    -0.2607     1.5241 C.3     
   7 O7            -1.9576    -0.3249    -0.7994 O.3     
   8 C8            -3.0261    -1.1961    -1.1754 C.3     
   9 C9            -4.2251    -0.9581    -0.2537 C.3     
  10 C10           -3.7958    -1.1868     1.1991 C.3     
  11 C11           -3.4311    -0.9115    -2.6231 C.3     
  12 C12           -2.2876    -1.3068    -3.5597 C.3     
  13 C13           -2.7374    -1.1397    -5.0125 C.3     
  14 O14           -1.6964    -1.6258    -5.9004 O.3     
  15 O15           -1.1572    -0.4686    -3.3115 O.3     
  16 C16           -4.7206     0.4798    -0.4202 C.3     
  17 O17           -5.7647     0.7359     0.5211 O.3     
  18 O18           -3.3943    -2.5475     1.3703 O.3     
  19 C19           -1.9355    -1.5497    -7.2190 C.2     
  20 O20           -2.9801    -1.0920    -7.6181 O.2     
  21 C21           -0.9012    -2.0351    -8.2016 C.3     
  22 N22           -1.1553    -1.4332    -9.5174 N.3     
  23 C23           -0.9800    -3.5589    -8.3140 C.3     
  24 C24            0.1495    -4.0629    -9.2147 C.3     
  25 N25            1.1552    -6.0707   -10.1918 N.3     
  26 C26            0.0707    -5.5867    -9.3271 C.3     
  27 N27           -5.2328     0.6654    -1.7802 N.am    
  28 O28           -4.3317     2.6882    -1.9162 O.2     
  29 C29           -4.9817     1.8110    -2.4444 C.2     
  30 C30           -5.5086     2.0019    -3.8433 C.3     
  31 H31            0.1967     2.3154     1.0113 H       
  32 H32           -0.3060    -2.1103     0.0814 H       
  33 H33           -2.2719    -0.4559     2.5385 H       
  34 H34           -2.9404     0.7778     1.4415 H       
  35 H35           -2.6991    -2.2320    -1.0862 H       
  36 H36           -5.0254    -1.6522    -0.5105 H       
  37 H37           -4.6296    -0.9647     1.8650 H       
  38 H38           -4.3209    -1.4898    -2.8719 H       
  39 H39           -3.6444     0.1512    -2.7385 H       
  40 H40           -2.0148    -2.3469    -3.3811 H       
  41 H41           -3.6514    -1.7100    -5.1778 H       
  42 H42           -2.9252    -0.0854    -5.2157 H       
  43 H43           -1.3277     0.4730    -3.4509 H       
  44 H44           -3.8960     1.1708    -0.2451 H       
  45 H45           -6.5628     0.2093     0.3763 H       
  46 H46           -3.1091    -2.7634     2.2688 H       
  47 H47            0.0917    -1.7471    -7.8560 H       
  48 H48           -2.0703    -1.6854    -9.8598 H       
  49 H49           -1.0455    -0.4307    -9.4837 H       
  50 H50           -0.8798    -4.0020    -7.3232 H       
  51 H51           -1.9409    -3.8423    -8.7434 H       
  52 H52            0.0494    -3.6198   -10.2055 H       
  53 H53            1.1105    -3.7795    -8.7853 H       
  54 H54            1.1248    -7.0752   -10.2820 H       
  55 H55            1.1224    -5.6252   -11.0965 H       
  56 H56            0.1709    -6.0298    -8.3362 H       
  57 H57           -0.8903    -5.8702    -9.7564 H       
  58 H58           -5.7526    -0.0362    -2.2026 H       
  59 H59           -6.4978     2.4576    -3.7999 H       
  60 H60           -4.8334     2.6514    -4.4003 H       
  61 H61           -5.5757     1.0347    -4.3414 H       
@<TRIPOS>BOND
   1    1    2 1
   2    1   31 1
   3    2    3 1
   4    2    4 2
   5    3    5 1
   6    3    6 1
   7    3    7 1
   8    5   32 1
   9    6   10 1
  10    6   33 1
  11    6   34 1
  12    7    8 1
  13    8    9 1
  14    8   11 1
  15    8   35 1
  16    9   10 1
  17    9   16 1
  18    9   36 1
  19   10   18 1
  20   10   37 1
  21   11   12 1
  22   11   38 1
  23   11   39 1
  24   12   13 1
  25   12   15 1
  26   12   40 1
  27   13   14 1
  28   13   41 1
  29   13   42 1
  30   14   19 1
  31   15   43 1
  32   16   17 1
  33   16   27 1
  34   16   44 1
  35   17   45 1
  36   18   46 1
  37   19   20 2
  38   19   21 1
  39   21   22 1
  40   21   23 1
  41   21   47 1
  42   22   48 1
  43   22   49 1
  44   23   24 1
  45   23   50 1
  46   23   51 1
  47   24   26 1
  48   24   52 1
  49   24   53 1
  50   25   26 1
  51   25   54 1
  52   25   55 1
  53   26   56 1
  54   26   57 1
  55   27   29 am
  56   27   58 1
  57   28   29 2
  58   29   30 1
  59   30   59 1
  60   30   60 1
  61   30   61 1

#	End of record

