#	Name: ASD01812603
#	Creating user name:	WinNT
#	Creation time:	15. 06. 2019 19:28

#	Modifying user name:	WinNT
#	Modification time:	15. 06. 2019 19:28

#	Program:	/corina/corina34_cracker 3.40 0067  02.08.2006

@<TRIPOS>MOLECULE
ASD01812603
  45   49    0    0    0
SMALL
NO_CHARGES


@<TRIPOS>ATOM
   1 F1             0.0021    -0.0041     0.0020 F       
   2 C2            -0.0162     1.3468     0.0094 C.ar    
   3 C3            -1.2233     2.0206     0.0303 C.ar    
   4 C4            -1.2410     3.4138     0.0380 C.ar    
   5 C5            -0.0410     4.1217     0.0245 C.ar    
   6 C6             1.1614     3.4396     0.0037 C.ar    
   7 F7             2.3255     4.1250    -0.0094 F       
   8 C8             1.1743     2.0546     0.0019 C.ar    
   9 C9             2.4875     1.3155    -0.0141 C.3     
  10 N10            2.9002     1.0830    -1.4005 N.am    
  11 C11            2.5512    -0.0892    -2.2108 C.3     
  12 C12            3.1994     0.1187    -3.5583 C.ar    
  13 N13            3.2256    -0.5963    -4.6605 N.ar    
  14 C14            3.8781    -0.1923    -5.7351 C.ar    
  15 C15            4.5657     1.0077    -5.7441 C.ar    
  16 C16            4.5683     1.7975    -4.6069 C.ar    
  17 C17            3.8678     1.3428    -3.4852 C.ar    
  18 C18            3.6563     1.9113    -2.1419 C.2     
  19 O19            4.1031     2.9748    -1.7588 O.2     
  20 C20           -2.5338     4.1413     0.0599 C.ar    
  21 C21           -3.7333     3.4329     0.0787 C.ar    
  22 C22           -4.9347     4.1113     0.0981 C.ar    
  23 C23           -4.9537     5.4991     0.0988 C.ar    
  24 O24           -6.1500     6.1483     0.1102 O.3     
  25 C25           -6.1296     7.5294     0.4866 C.3     
  26 C26           -4.9857     8.2173    -0.2707 C.3     
  27 O27           -3.7590     7.5728     0.0889 O.3     
  28 C28           -3.7585     6.2114     0.0828 C.ar    
  29 C29           -2.5509     5.5346     0.0675 C.ar    
  30 H30           -2.1511     1.4679     0.0404 H       
  31 H31           -0.0501     5.2016     0.0300 H       
  32 H32            3.2454     1.9103     0.4956 H       
  33 H33            2.3725     0.3591     0.4960 H       
  34 H34            2.9386    -0.9952    -1.7448 H       
  35 H35            1.4692    -0.1583    -2.3226 H       
  36 H36            3.8752    -0.8094    -6.6214 H       
  37 H37            5.0958     1.3256    -6.6297 H       
  38 H38            5.0973     2.7388    -4.5865 H       
  39 H39           -3.7228     2.3530     0.0778 H       
  40 H40           -5.8635     3.5604     0.1124 H       
  41 H41           -7.0784     7.9964     0.2225 H       
  42 H42           -5.9634     7.6152     1.5604 H       
  43 H43           -5.1482     8.1255    -1.3446 H       
  44 H44           -4.9426     9.2706     0.0064 H       
  45 H45           -1.6225     6.0863     0.0577 H       
@<TRIPOS>BOND
   1    1    2 1
   2    2    8 ar
   3    2    3 ar
   4    3    4 ar
   5    3   30 1
   6    4    5 ar
   7    4   20 1
   8    5    6 ar
   9    5   31 1
  10    6    7 1
  11    6    8 ar
  12    8    9 1
  13    9   10 1
  14    9   32 1
  15    9   33 1
  16   10   18 am
  17   10   11 1
  18   11   12 1
  19   11   34 1
  20   11   35 1
  21   12   17 ar
  22   12   13 ar
  23   13   14 ar
  24   14   15 ar
  25   14   36 1
  26   15   16 ar
  27   15   37 1
  28   16   17 ar
  29   16   38 1
  30   17   18 1
  31   18   19 2
  32   20   29 ar
  33   20   21 ar
  34   21   22 ar
  35   21   39 1
  36   22   23 ar
  37   22   40 1
  38   23   28 ar
  39   23   24 1
  40   24   25 1
  41   25   26 1
  42   25   41 1
  43   25   42 1
  44   26   27 1
  45   26   43 1
  46   26   44 1
  47   27   28 1
  48   28   29 ar
  49   29   45 1

#	End of record

