#	Name: ASD01510116
#	Creating user name:	WinNT
#	Creation time:	15. 06. 2019 19:21

#	Modifying user name:	WinNT
#	Modification time:	15. 06. 2019 19:21

#	Program:	/corina/corina34_cracker 3.40 0067  02.08.2006

@<TRIPOS>MOLECULE
ASD01510116
  41   43    0    0    0
SMALL
NO_CHARGES


@<TRIPOS>ATOM
   1 C1            -0.0178     1.4648     0.0101 C.3     
   2 N2             0.0021    -0.0041     0.0020 N.3     
   3 C3             0.7064    -0.5277     1.1807 C.3     
   4 C4             0.6362    -2.0566     1.1762 C.3     
   5 N5             1.2373    -2.5683    -0.0634 N.3     
   6 C6             0.5329    -2.0447    -1.2421 C.3     
   7 C7             0.6031    -0.5158    -1.2375 C.3     
   8 C8             1.2560    -3.9524    -0.0710 C.ar    
   9 N9             0.7642    -4.6107     0.9679 N.ar    
  10 C10            0.7646    -5.9350     0.9960 C.ar    
  11 C11            1.2869    -6.6335    -0.0765 C.ar    
  12 C12            1.7974    -5.9121    -1.1555 C.ar    
  13 N13            1.7606    -4.5858    -1.1196 N.ar    
  14 O14            2.3195    -6.5562    -2.2275 O.3     
  15 C15            2.8215    -5.7444    -3.2910 C.3     
  16 C16            3.3579    -6.6282    -4.3874 C.ar    
  17 C17            2.5249    -7.0453    -5.4087 C.ar    
  18 C18            3.0169    -7.8561    -6.4144 C.ar    
  19 C19            4.3420    -8.2493    -6.3991 C.ar    
  20 C20            5.1753    -7.8314    -5.3784 C.ar    
  21 C21            4.6843    -7.0171    -4.3750 C.ar    
  22 I22            1.3118    -8.7284    -0.0807 I       
  23 H23            1.0047     1.8421     0.0024 H       
  24 H24           -0.5450     1.8259    -0.8730 H       
  25 H25           -0.5280     1.8163     0.9069 H       
  26 H26            1.7492    -0.2115     1.1515 H       
  27 H27            0.2352    -0.1447     2.0859 H       
  28 H28            1.1828    -2.4483     2.0340 H       
  29 H29           -0.4053    -2.3729     1.2329 H       
  30 H30            1.0041    -2.4277    -2.1472 H       
  31 H31           -0.5098    -2.3609    -1.2128 H       
  32 H32            0.0565    -0.1241    -2.0954 H       
  33 H33            1.6447    -0.1994    -1.2942 H       
  34 H34            0.3617    -6.4632     1.8476 H       
  35 H35            2.0168    -5.1239    -3.6854 H       
  36 H36            3.6211    -5.1063    -2.9147 H       
  37 H37            1.4895    -6.7381    -5.4206 H       
  38 H38            2.3659    -8.1826    -7.2119 H       
  39 H39            4.7263    -8.8833    -7.1845 H       
  40 H40            6.2105    -8.1389    -5.3663 H       
  41 H41            5.3353    -6.6906    -3.5775 H       
@<TRIPOS>BOND
   1    1    2 1
   2    1   23 1
   3    1   24 1
   4    1   25 1
   5    2    3 1
   6    2    7 1
   7    3    4 1
   8    3   26 1
   9    3   27 1
  10    4    5 1
  11    4   28 1
  12    4   29 1
  13    5    6 1
  14    5    8 1
  15    6    7 1
  16    6   30 1
  17    6   31 1
  18    7   32 1
  19    7   33 1
  20    8    9 ar
  21    8   13 ar
  22    9   10 ar
  23   10   11 ar
  24   10   34 1
  25   11   12 ar
  26   11   22 1
  27   12   13 ar
  28   12   14 1
  29   14   15 1
  30   15   16 1
  31   15   35 1
  32   15   36 1
  33   16   17 ar
  34   16   21 ar
  35   17   18 ar
  36   17   37 1
  37   18   19 ar
  38   18   38 1
  39   19   20 ar
  40   19   39 1
  41   20   21 ar
  42   20   40 1
  43   21   41 1

#	End of record

