#	Name: ASD04840073
#	Creating user name:	WinNT
#	Creation time:	15. 06. 2019 20:52

#	Modifying user name:	WinNT
#	Modification time:	15. 06. 2019 20:52

#	Program:	/corina/corina34_cracker 3.40 0067  02.08.2006

@<TRIPOS>MOLECULE
ASD04840073
  52   55    0    0    0
SMALL
NO_CHARGES


@<TRIPOS>ATOM
   1 C1            -0.1458     1.4429    -1.1028 C.ar    
   2 C2            -0.1282     0.0391    -1.1598 C.ar    
   3 C3             1.0402    -0.6098    -1.4185 C.ar    
   4 C4             2.2224     0.0973    -1.6279 C.ar    
   5 C5             2.2434     1.4575    -1.5798 C.ar    
   6 C6             1.0568     2.1622    -1.3164 C.ar    
   7 C7             1.0389     3.5664    -1.2600 C.ar    
   8 C8            -0.1292     4.2151    -1.0018 C.ar    
   9 C9            -1.3117     3.5078    -0.7917 C.ar    
  10 C10           -1.3337     2.1481    -0.8440 C.ar    
  11 C11           -2.6239     1.4022    -0.6203 C.3     
  12 O12           -3.6783     2.3361    -0.3789 O.3     
  13 C13           -4.9150     1.8248    -0.1567 C.ar    
  14 C14           -5.9990     2.6822     0.0876 C.ar    
  15 C15           -7.2717     2.1480     0.3159 C.ar    
  16 C16           -7.4606     0.7966     0.3015 C.ar    
  17 C17           -6.3862    -0.0631     0.0594 C.ar    
  18 C18           -5.1148     0.4551    -0.1756 C.ar    
  19 C19           -5.7971     4.1406     0.1041 C.2     
  20 O20           -6.8391     4.9626     0.3388 O.3     
  21 O21           -4.6908     4.6031    -0.0941 O.2     
  22 C22           -6.6009    -1.5294     0.0466 C.ar    
  23 C23           -7.8741    -2.0510     0.2760 C.ar    
  24 C24           -8.0711    -3.4150     0.2636 C.ar    
  25 C25           -7.0023    -4.2707     0.0229 C.ar    
  26 C26           -5.7324    -3.7534    -0.2056 C.ar    
  27 C27           -5.5313    -2.3899    -0.2004 C.ar    
  28 N28           -7.2048    -5.6534     0.0109 N.am    
  29 C29           -8.3526    -6.1621    -0.4792 C.2     
  30 C30           -8.5287    -7.6548    -0.5894 C.3     
  31 O31           -9.2437    -5.4187    -0.8315 O.2     
  32 H32           -1.0367    -0.5222    -0.9989 H       
  33 H33            1.0510    -1.6889    -1.4618 H       
  34 H34            3.1358    -0.4420    -1.8309 H       
  35 H35            3.1673     1.9923    -1.7434 H       
  36 H36            1.9476     4.1277    -1.4203 H       
  37 H37           -0.1401     5.2942    -0.9586 H       
  38 H38           -2.2251     4.0471    -0.5886 H       
  39 H39           -2.8589     0.8095    -1.5044 H       
  40 H40           -2.5179     0.7431     0.2413 H       
  41 H41           -8.1066     2.8067     0.5044 H       
  42 H42           -8.4453     0.3897     0.4784 H       
  43 H43           -4.2861    -0.2102    -0.3675 H       
  44 H44           -6.6575     5.9124     0.3398 H       
  45 H45           -8.7046    -1.3867     0.4635 H       
  46 H46           -9.0566    -3.8194     0.4415 H       
  47 H47           -4.9035    -4.4203    -0.3917 H       
  48 H48           -4.5455    -1.9883    -0.3827 H       
  49 H49           -6.5192    -6.2469     0.3552 H       
  50 H50           -8.9657    -8.0381     0.3327 H       
  51 H51           -9.1890    -7.8819    -1.4263 H       
  52 H52           -7.5587    -8.1239    -0.7541 H       
@<TRIPOS>BOND
   1    1    2 ar
   2    1    6 ar
   3    1   10 ar
   4    2    3 ar
   5    2   32 1
   6    3    4 ar
   7    3   33 1
   8    4    5 ar
   9    4   34 1
  10    5    6 ar
  11    5   35 1
  12    6    7 ar
  13    7    8 ar
  14    7   36 1
  15    8    9 ar
  16    8   37 1
  17    9   10 ar
  18    9   38 1
  19   10   11 1
  20   11   12 1
  21   11   39 1
  22   11   40 1
  23   12   13 1
  24   13   14 ar
  25   13   18 ar
  26   14   15 ar
  27   14   19 1
  28   15   16 ar
  29   15   41 1
  30   16   17 ar
  31   16   42 1
  32   17   18 ar
  33   17   22 1
  34   18   43 1
  35   19   20 1
  36   19   21 2
  37   20   44 1
  38   22   23 ar
  39   22   27 ar
  40   23   24 ar
  41   23   45 1
  42   24   25 ar
  43   24   46 1
  44   25   26 ar
  45   25   28 1
  46   26   27 ar
  47   26   47 1
  48   27   48 1
  49   28   29 am
  50   28   49 1
  51   29   30 1
  52   29   31 2
  53   30   50 1
  54   30   51 1
  55   30   52 1

#	End of record

