#	Name: ASD01915034
#	Creating user name:	WinNT
#	Creation time:	15. 06. 2019 20:04

#	Modifying user name:	WinNT
#	Modification time:	15. 06. 2019 20:04

#	Program:	/corina/corina34_cracker 3.40 0067  02.08.2006

@<TRIPOS>MOLECULE
ASD01915034
  52   56    0    0    0
SMALL
NO_CHARGES


@<TRIPOS>ATOM
   1 C1            -0.0144     1.2113     0.0087 C.2     
   2 O2             0.1227     0.1451     0.5759 O.2     
   3 N3             1.0183     1.7528    -0.6671 N.am    
   4 C4             2.3524     1.1347    -0.6291 C.3     
   5 C5             2.8489     0.9594    -2.0682 C.3     
   6 N6             2.7819     2.2500    -2.7665 N.3     
   7 C7             1.3971     2.7296    -2.8684 C.3     
   8 C8             0.8398     2.9740    -1.4670 C.3     
   9 C9             4.0234     3.1584    -6.1002 C.ar    
  10 C10            3.4259     3.2804    -4.8635 C.ar    
  11 C11            3.3752     2.1687    -4.0228 C.ar    
  12 C12            3.9350     0.9734    -4.4737 C.ar    
  13 C13            4.5138     0.9347    -5.7247 C.ar    
  14 N14            4.5422     2.0092    -6.4908 N.ar    
  15 C15           -1.3161     1.9114     0.0550 C.ar    
  16 C16           -2.5042     1.1829    -0.0329 C.ar    
  17 C17           -3.7165     1.8350     0.0101 C.ar    
  18 C18           -3.7575     3.2245     0.1416 C.ar    
  19 C19           -2.5695     3.9530     0.2291 C.ar    
  20 C20           -1.3573     3.3005     0.1923 C.ar    
  21 O21           -6.2740     3.3591     0.1155 O.3     
  22 N22           -7.1322     4.2133     0.1831 N.2     
  23 C23           -6.5867     5.3968     0.3037 C.2     
  24 N24           -5.2484     5.2248     0.3081 N.2     
  25 C25           -5.0593     3.9247     0.1878 C.2     
  26 C26           -7.3071     6.6895     0.4150 C.ar    
  27 C27           -8.7002     6.7169     0.3966 C.ar    
  28 C28           -9.3659     7.9207     0.5003 C.ar    
  29 C29           -8.6513     9.1016     0.6222 C.ar    
  30 C30           -7.2660     9.0789     0.6409 C.ar    
  31 C31           -6.5925     7.8788     0.5440 C.ar    
  32 F32           -9.3071    10.2785     0.7226 F       
  33 H33            3.0392     1.7796    -0.0808 H       
  34 H34            2.2914     0.1617    -0.1417 H       
  35 H35            3.8796     0.6051    -2.0567 H       
  36 H36            2.2201     0.2337    -2.5840 H       
  37 H37            1.3750     3.6590    -3.4373 H       
  38 H38            0.7885     1.9792    -3.3730 H       
  39 H39           -0.2209     3.2164    -1.5333 H       
  40 H40            1.3784     3.7991    -1.0009 H       
  41 H41            4.0633     4.0128    -6.7597 H       
  42 H42            3.0036     4.2237    -4.5500 H       
  43 H43            3.9158     0.0908    -3.8516 H       
  44 H44            4.9498     0.0135    -6.0821 H       
  45 H45           -2.4725     0.1082    -0.1350 H       
  46 H46           -4.6354     1.2716    -0.0582 H       
  47 H47           -2.6013     5.0278     0.3304 H       
  48 H48           -0.4385     3.8635     0.2647 H       
  49 H49           -9.2579     5.7970     0.3009 H       
  50 H50          -10.4456     7.9428     0.4861 H       
  51 H51           -6.7128    10.0016     0.7361 H       
  52 H52           -5.5128     7.8615     0.5635 H       
@<TRIPOS>BOND
   1    1    2 2
   2    1    3 am
   3    1   15 1
   4    3    4 1
   5    3    8 1
   6    4    5 1
   7    4   33 1
   8    4   34 1
   9    5    6 1
  10    5   35 1
  11    5   36 1
  12    6    7 1
  13    6   11 1
  14    7    8 1
  15    7   37 1
  16    7   38 1
  17    8   39 1
  18    8   40 1
  19    9   10 ar
  20    9   14 ar
  21    9   41 1
  22   10   11 ar
  23   10   42 1
  24   11   12 ar
  25   12   13 ar
  26   12   43 1
  27   13   14 ar
  28   13   44 1
  29   15   16 ar
  30   15   20 ar
  31   16   17 ar
  32   16   45 1
  33   17   18 ar
  34   17   46 1
  35   18   19 ar
  36   18   25 1
  37   19   20 ar
  38   19   47 1
  39   20   48 1
  40   21   22 1
  41   21   25 1
  42   22   23 2
  43   23   24 1
  44   23   26 1
  45   24   25 2
  46   26   27 ar
  47   26   31 ar
  48   27   28 ar
  49   27   49 1
  50   28   29 ar
  51   28   50 1
  52   29   30 ar
  53   29   32 1
  54   30   31 ar
  55   30   51 1
  56   31   52 1

#	End of record

