#	Name: ASD01680054
#	Creating user name:	WinNT
#	Creation time:	15. 06. 2019 19:22

#	Modifying user name:	WinNT
#	Modification time:	15. 06. 2019 19:22

#	Program:	/corina/corina34_cracker 3.40 0067  02.08.2006

@<TRIPOS>MOLECULE
ASD01680054
  83   86    0    0    0
SMALL
NO_CHARGES


@<TRIPOS>ATOM
   1 N1            -0.4720    -1.5619    -2.3230 N.am    
   2 C2            -0.1870    -2.9279    -2.7986 C.3     
   3 C3             1.1032    -3.3471    -2.0508 C.3     
   4 C4             1.8937    -2.0123    -2.0211 C.3     
   5 C5             0.7817    -0.9558    -1.8513 C.3     
   6 C6            -1.6805    -0.9654    -2.3255 C.2     
   7 O7            -2.6320    -1.5226    -2.8362 O.2     
   8 O8            -1.8336     0.2479    -1.7623 O.3     
   9 C9            -1.3397    -3.8679    -2.4398 C.3     
  10 N10           -1.6749    -3.7107    -1.0223 N.pl3   
  11 N11           -4.2898    -5.1767     0.9000 N.pl3   
  12 N12           -3.1702    -4.3456     0.7667 N.2     
  13 C13           -2.7663    -4.3999    -0.4806 C.2     
  14 C14           -3.6207    -5.2699    -1.1771 C.2     
  15 C15           -4.5451    -5.7307    -0.3039 C.2     
  16 O16            2.7935    -1.9821    -0.9114 O.3     
  17 C17            3.9720    -1.2067    -1.1396 C.3     
  18 C18            4.8439    -1.2445     0.0890 C.2     
  19 N19            6.0159    -0.5793     0.1042 N.am    
  20 O20            4.4909    -1.8735     1.0640 O.2     
  21 C21            6.8636    -0.6161     1.2985 C.3     
  22 C22            8.1253     0.2141     1.0542 C.3     
  23 N23            7.7468     1.5698     0.6481 N.am    
  24 S24            8.6700     2.3924    -0.4535 S.o2    
  25 O25            8.0294     3.6439    -0.6592 O.2     
  26 O26           10.0172     2.2711    -0.0181 O.2     
  27 C27            8.5603     1.5203    -1.9807 C.ar    
  28 C28            9.4544     0.5043    -2.2622 C.ar    
  29 C29            9.3683    -0.1798    -3.4603 C.ar    
  30 C30            8.3880     0.1519    -4.3767 C.ar    
  31 C31            7.4933     1.1673    -4.0948 C.ar    
  32 C32            7.5767     1.8485    -2.8948 C.ar    
  33 C33            6.5982     2.9520    -2.5853 C.3     
  34 C34            8.2948    -0.5932    -5.6833 C.3     
  35 C35           10.5231     0.1428    -1.2632 C.3     
  36 C36            8.9379     0.2779     2.3218 C.2     
  37 O37            9.1764     1.3462     2.8334 O.2     
  38 O38            9.3967    -0.8520     2.8824 O.3     
  39 C39           -3.1632     0.8300    -1.8019 C.3     
  40 C40           -3.1416     2.1781    -1.1287 C.ar    
  41 C41           -2.8734     3.3153    -1.8674 C.ar    
  42 C42           -2.8535     4.5519    -1.2499 C.ar    
  43 C43           -3.1024     4.6514     0.1062 C.ar    
  44 C44           -3.3715     3.5143     0.8448 C.ar    
  45 C45           -3.3956     2.2781     0.2264 C.ar    
  46 H46           -0.0181    -2.9272    -3.8754 H       
  47 H47            0.8760    -3.6891    -1.0410 H       
  48 H48            1.6467    -4.1107    -2.6072 H       
  49 H49            2.4299    -1.8608    -2.9580 H       
  50 H50            1.0143    -0.0736    -2.4478 H       
  51 H51            0.6885    -0.6813    -0.8006 H       
  52 H52           -2.2104    -3.6239    -3.0483 H       
  53 H53           -1.0406    -4.8987    -2.6303 H       
  54 H54           -1.1406    -3.1291    -0.4592 H       
  55 H55           -4.7913    -5.3306     1.7158 H       
  56 H56           -3.5518    -5.5258    -2.2241 H       
  57 H57           -5.3456    -6.4195    -0.5300 H       
  58 H58            4.5199    -1.6192    -1.9868 H       
  59 H59            3.6923    -0.1755    -1.3551 H       
  60 H60            6.2983    -0.0762    -0.6756 H       
  61 H61            6.3156    -0.2036     2.1458 H       
  62 H62            7.1432    -1.6473     1.5140 H       
  63 H63            8.7181    -0.2493     0.2656 H       
  64 H64            6.9553     1.9857     1.0243 H       
  65 H65           10.0673    -0.9731    -3.6806 H       
  66 H66            6.7276     1.4266    -4.8109 H       
  67 H67            7.0543     3.9159    -2.8111 H       
  68 H68            5.7016     2.8233    -3.1916 H       
  69 H69            6.3310     2.9150    -1.5292 H       
  70 H70            7.6365    -1.4539    -5.5646 H       
  71 H71            7.8932     0.0682    -6.4509 H       
  72 H72            9.2873    -0.9330    -5.9794 H       
  73 H73           10.0961    -0.4945    -0.4888 H       
  74 H74           11.3282    -0.3901    -1.7692 H       
  75 H75           10.9182     1.0514    -0.8089 H       
  76 H76            9.9132    -0.7607     3.6948 H       
  77 H77           -3.4781     0.9467    -2.8388 H       
  78 H78           -3.8622     0.1752    -1.2814 H       
  79 H79           -2.6790     3.2376    -2.9269 H       
  80 H80           -2.6432     5.4403    -1.8269 H       
  81 H81           -3.0861     5.6174     0.5888 H       
  82 H82           -3.5656     3.5919     1.9043 H       
  83 H83           -3.6096     1.3901     0.8027 H       
@<TRIPOS>BOND
   1    1    2 1
   2    1    5 1
   3    1    6 am
   4    2    3 1
   5    2    9 1
   6    2   46 1
   7    3    4 1
   8    3   47 1
   9    3   48 1
  10    4    5 1
  11    4   16 1
  12    4   49 1
  13    5   50 1
  14    5   51 1
  15    6    7 2
  16    6    8 1
  17    8   39 1
  18    9   10 1
  19    9   52 1
  20    9   53 1
  21   10   13 1
  22   10   54 1
  23   11   12 1
  24   11   15 1
  25   11   55 1
  26   12   13 2
  27   13   14 1
  28   14   15 2
  29   14   56 1
  30   15   57 1
  31   16   17 1
  32   17   18 1
  33   17   58 1
  34   17   59 1
  35   18   19 am
  36   18   20 2
  37   19   21 1
  38   19   60 1
  39   21   22 1
  40   21   61 1
  41   21   62 1
  42   22   23 1
  43   22   36 1
  44   22   63 1
  45   23   24 am
  46   23   64 1
  47   24   25 2
  48   24   26 2
  49   24   27 1
  50   27   28 ar
  51   27   32 ar
  52   28   29 ar
  53   28   35 1
  54   29   30 ar
  55   29   65 1
  56   30   31 ar
  57   30   34 1
  58   31   32 ar
  59   31   66 1
  60   32   33 1
  61   33   67 1
  62   33   68 1
  63   33   69 1
  64   34   70 1
  65   34   71 1
  66   34   72 1
  67   35   73 1
  68   35   74 1
  69   35   75 1
  70   36   37 2
  71   36   38 1
  72   38   76 1
  73   39   40 1
  74   39   77 1
  75   39   78 1
  76   40   41 ar
  77   40   45 ar
  78   41   42 ar
  79   41   79 1
  80   42   43 ar
  81   42   80 1
  82   43   44 ar
  83   43   81 1
  84   44   45 ar
  85   44   82 1
  86   45   83 1

#	End of record

