#	Name: ASD01850111
#	Creating user name:	WinNT
#	Creation time:	15. 06. 2019 19:38

#	Modifying user name:	WinNT
#	Modification time:	15. 06. 2019 19:38

#	Program:	/corina/corina34_cracker 3.40 0067  02.08.2006

@<TRIPOS>MOLECULE
ASD01850111
  55   59    0    0    0
SMALL
NO_CHARGES


@<TRIPOS>ATOM
   1 C1             0.3582     1.5290    -0.3812 C.ar    
   2 C2             0.4610     0.1597    -0.5496 C.ar    
   3 C3             1.6934    -0.4579    -0.4871 C.ar    
   4 C4             2.8400     0.3004    -0.2535 C.ar    
   5 C5             2.7238     1.6834    -0.0661 C.ar    
   6 C6             1.4907     2.2885    -0.1399 C.ar    
   7 C7             4.2708    -0.0603    -0.1574 C.2     
   8 N8             5.0113     1.0447    -0.0798 N.am    
   9 C9             4.1104     2.1830     0.2161 C.3     
  10 C10            6.3234     1.7016    -0.2288 C.3     
  11 C11            5.9687     3.0112    -0.9754 C.3     
  12 N12            4.5357     3.2506    -0.6957 N.am    
  13 C13            3.7730     4.2495    -1.1824 C.2     
  14 C14            4.3756     5.2854    -2.0463 C.ar    
  15 C15            3.5756     6.2852    -2.6031 C.ar    
  16 C16            4.1432     7.2512    -3.4100 C.ar    
  17 C17            5.5067     7.2295    -3.6679 C.ar    
  18 C18            6.3058     6.2377    -3.1167 C.ar    
  19 C19            5.7479     5.2709    -2.3039 C.ar    
  20 O20            2.5891     4.2982    -0.9105 O.2     
  21 C21            4.2411     2.6087     1.6558 C.ar    
  22 O22            4.7063    -1.1951    -0.1502 O.2     
  23 F23            6.0578     8.1764    -4.4584 F       
  24 F24            3.3701     8.2188    -3.9497 F       
  25 C25            4.0260     3.9284     2.0075 C.ar    
  26 C26            4.1452     4.3211     3.3266 C.ar    
  27 C27            4.4809     3.3900     4.2987 C.ar    
  28 C28            4.6962     2.0664     3.9432 C.ar    
  29 C29            4.5702     1.6776     2.6236 C.ar    
  30 O30            4.5992     3.7740     5.5970 O.3     
  31 C31            4.4435     5.1663     5.8785 C.3     
  32 C32            4.0412     5.3485     7.3434 C.3     
  33 C33            5.7662     5.8901     5.6190 C.3     
  34 F34            7.6325     6.2211    -3.3715 F       
  35 H35           -0.6079     2.0078    -0.4426 H       
  36 H36           -0.4267    -0.4282    -0.7303 H       
  37 H37            1.7698    -1.5271    -0.6186 H       
  38 H38            1.4058     3.3573    -0.0100 H       
  39 H39            6.7593     1.9189     0.7463 H       
  40 H40            6.9973     1.0871    -0.8258 H       
  41 H41            6.5701     3.8369    -0.5950 H       
  42 H42            6.1286     2.8896    -2.0467 H       
  43 H43            2.5144     6.3026    -2.4033 H       
  44 H44            6.3705     4.4995    -1.8753 H       
  45 H45            3.7650     4.6529     1.2503 H       
  46 H46            3.9775     5.3522     3.6008 H       
  47 H47            4.9576     1.3397     4.6981 H       
  48 H48            4.7377     0.6474     2.3463 H       
  49 H49            3.6690     5.5828     5.2345 H       
  50 H50            4.8157     4.9320     7.9874 H       
  51 H51            3.9224     6.4105     7.5581 H       
  52 H52            3.0988     4.8328     7.5282 H       
  53 H53            6.0528     5.7603     4.5754 H       
  54 H54            5.6474     6.9522     5.8338 H       
  55 H55            6.5407     5.4736     6.2631 H       
@<TRIPOS>BOND
   1    1    2 ar
   2    1    6 ar
   3    1   35 1
   4    2    3 ar
   5    2   36 1
   6    3    4 ar
   7    3   37 1
   8    4    5 ar
   9    4    7 1
  10    5    6 ar
  11    5    9 1
  12    6   38 1
  13    7    8 am
  14    7   22 2
  15    8    9 1
  16    8   10 1
  17    9   21 1
  18    9   12 1
  19   10   11 1
  20   10   39 1
  21   10   40 1
  22   11   12 1
  23   11   41 1
  24   11   42 1
  25   12   13 am
  26   13   14 1
  27   13   20 2
  28   14   15 ar
  29   14   19 ar
  30   15   16 ar
  31   15   43 1
  32   16   17 ar
  33   16   24 1
  34   17   18 ar
  35   17   23 1
  36   18   19 ar
  37   18   34 1
  38   19   44 1
  39   21   25 ar
  40   21   29 ar
  41   25   26 ar
  42   25   45 1
  43   26   27 ar
  44   26   46 1
  45   27   28 ar
  46   27   30 1
  47   28   29 ar
  48   28   47 1
  49   29   48 1
  50   30   31 1
  51   31   32 1
  52   31   33 1
  53   31   49 1
  54   32   50 1
  55   32   51 1
  56   32   52 1
  57   33   53 1
  58   33   54 1
  59   33   55 1

#	End of record

