#	Name: ASD03540465
#	Creating user name:	WinNT
#	Creation time:	15. 06. 2019 20:43

#	Modifying user name:	WinNT
#	Modification time:	15. 06. 2019 20:43

#	Program:	/corina/corina34_cracker 3.40 0067  02.08.2006

@<TRIPOS>MOLECULE
ASD03540465
  60   64    0    0    0
SMALL
NO_CHARGES


@<TRIPOS>ATOM
   1 N1            -0.0161     1.3396     0.0094 N.am    
   2 C2             0.0021    -0.0041     0.0020 C.2     
   3 N3             1.1390    -0.7172    -0.0122 N.am    
   4 C4             2.3459    -0.1106    -0.0200 C.2     
   5 C5             2.3857     1.3633    -0.0129 C.ar    
   6 C6             3.5871     2.0607    -0.0197 C.ar    
   7 C7             3.5659     3.4548    -0.0121 C.ar    
   8 C8             2.3437     4.1382     0.0023 C.ar    
   9 C9             1.1622     3.4519     0.0094 C.ar    
  10 C10            1.1637     2.0628     0.0020 C.ar    
  11 C11            4.8337     4.2115    -0.0186 C.2     
  12 O12            5.8952     3.6190    -0.0307 O.2     
  13 N13            4.8141     5.5591    -0.0113 N.am    
  14 C14            6.0721     6.3100    -0.0178 C.3     
  15 C15            5.7753     7.7874    -0.0074 C.ar    
  16 C16            5.6494     8.4577     1.1954 C.ar    
  17 C17            5.3773     9.8120     1.2076 C.ar    
  18 C18            5.2304    10.4996     0.0116 C.ar    
  19 C19            5.3572     9.8248    -1.1939 C.ar    
  20 C20            5.6349     8.4716    -1.2007 C.ar    
  21 O21            4.9624    11.8319     0.0210 O.3     
  22 C22            4.8240    12.4747    -1.2477 C.3     
  23 C23            1.0697    -2.1806    -0.0189 C.3     
  24 C24            1.0327    -2.6752    -1.4420 C.ar    
  25 C25            2.2137    -2.9580    -2.1042 C.ar    
  26 C26            2.1855    -3.4108    -3.4078 C.ar    
  27 C27            0.9647    -3.5833    -4.0563 C.ar    
  28 C28           -0.2217    -3.2974    -3.3846 C.ar    
  29 C29           -0.1823    -2.8501    -2.0794 C.ar    
  30 N30           -0.1470    -4.2779    -6.1918 N.2     
  31 N31            0.2391    -4.6974    -7.3476 N.pl3   
  32 N32            1.5246    -4.7614    -7.3698 N.2     
  33 N33            1.9825    -4.3827    -6.2249 N.2     
  34 C34            0.9283    -4.0696    -5.4585 C.2     
  35 O35            3.3721    -0.7626    -0.0320 O.2     
  36 O36           -1.0576    -0.5997     0.0089 O.2     
  37 C37           -1.2992     2.0466     0.0193 C.3     
  38 H38            4.5271     1.5290    -0.0304 H       
  39 H39            2.3349     5.2181     0.0081 H       
  40 H40            0.2260     3.9901     0.0212 H       
  41 H41            3.9672     6.0319    -0.0017 H       
  42 H42            6.6548     6.0502     0.8660 H       
  43 H43            6.6399     6.0598    -0.9139 H       
  44 H44            5.7635     7.9218     2.1261 H       
  45 H45            5.2787    10.3350     2.1473 H       
  46 H46            5.2433    10.3579    -2.1262 H       
  47 H47            5.7384     7.9468    -2.1390 H       
  48 H48            4.6120    13.5333    -1.0975 H       
  49 H49            5.7496    12.3662    -1.8129 H       
  50 H50            4.0047    12.0150    -1.8005 H       
  51 H51            1.9463    -2.5881     0.4847 H       
  52 H52            0.1684    -2.5041     0.5017 H       
  53 H53            3.1595    -2.8239    -1.6005 H       
  54 H54            3.1082    -3.6307    -3.9241 H       
  55 H55           -1.1707    -3.4295    -3.8828 H       
  56 H56           -1.1017    -2.6320    -1.5563 H       
  57 H57           -0.3470    -4.9289    -8.0850 H       
  58 H58           -2.1134     1.3219     0.0192 H       
  59 H59           -1.3652     2.6671     0.9130 H       
  60 H60           -1.3736     2.6768    -0.8669 H       
@<TRIPOS>BOND
   1    1    2 am
   2    1   10 1
   3    1   37 1
   4    2    3 am
   5    2   36 2
   6    3    4 am
   7    3   23 1
   8    4    5 1
   9    4   35 2
  10    5    6 ar
  11    5   10 ar
  12    6    7 ar
  13    6   38 1
  14    7    8 ar
  15    7   11 1
  16    8    9 ar
  17    8   39 1
  18    9   10 ar
  19    9   40 1
  20   11   12 2
  21   11   13 am
  22   13   14 1
  23   13   41 1
  24   14   15 1
  25   14   42 1
  26   14   43 1
  27   15   16 ar
  28   15   20 ar
  29   16   17 ar
  30   16   44 1
  31   17   18 ar
  32   17   45 1
  33   18   19 ar
  34   18   21 1
  35   19   20 ar
  36   19   46 1
  37   20   47 1
  38   21   22 1
  39   22   48 1
  40   22   49 1
  41   22   50 1
  42   23   24 1
  43   23   51 1
  44   23   52 1
  45   24   25 ar
  46   24   29 ar
  47   25   26 ar
  48   25   53 1
  49   26   27 ar
  50   26   54 1
  51   27   28 ar
  52   27   34 1
  53   28   29 ar
  54   28   55 1
  55   29   56 1
  56   30   31 1
  57   30   34 2
  58   31   32 1
  59   31   57 1
  60   32   33 2
  61   33   34 1
  62   37   58 1
  63   37   59 1
  64   37   60 1

#	End of record

