#	Name: ASD01910471
#	Creating user name:	WinNT
#	Creation time:	15. 06. 2019 19:55

#	Modifying user name:	WinNT
#	Modification time:	15. 06. 2019 19:55

#	Program:	/corina/corina34_cracker 3.40 0067  02.08.2006

@<TRIPOS>MOLECULE
ASD01910471
  47   50    0    0    0
SMALL
NO_CHARGES


@<TRIPOS>ATOM
   1 C1            -0.8517     1.9333     1.0573 C.ar    
   2 C2            -0.8684     0.4951     0.6908 C.2     
   3 N3            -1.8821    -0.3749     0.9002 N.2     
   4 C4            -1.4658    -1.5215     0.4234 C.2     
   5 O5            -0.2333    -1.3246    -0.0550 O.3     
   6 N6             0.0922    -0.1665     0.0997 N.2     
   7 C7            -2.2320    -2.8192     0.4162 C.3     
   8 C8            -2.4163    -3.2956    -1.0264 C.3     
   9 C9            -3.2227    -4.5963    -1.0369 C.3     
  10 C10           -2.4548    -5.6746    -0.2660 C.3     
  11 N11           -2.1466    -5.1664     1.0777 N.am    
  12 C12           -1.4529    -3.8774     1.2035 C.3     
  13 C13           -2.4937    -5.8693     2.1740 C.2     
  14 C14           -3.2643    -7.1220     2.0349 C.ar    
  15 O15           -2.1727    -5.4724     3.2774 O.2     
  16 C16            0.2687     2.7128     0.7785 C.ar    
  17 C17            0.2787     4.0499     1.1212 C.ar    
  18 C18           -0.8209     4.6160     1.7402 C.ar    
  19 C19           -1.9360     3.8464     2.0198 C.ar    
  20 C20           -1.9589     2.5100     1.6764 C.ar    
  21 C21            1.4678     2.0972     0.1045 C.3     
  22 C22           -2.8380    -8.1119     1.1470 C.ar    
  23 C23           -3.5605    -9.2791     1.0215 C.ar    
  24 C24           -4.7086    -9.4711     1.7749 C.ar    
  25 C25           -5.1365    -8.4913     2.6576 C.ar    
  26 C26           -4.4184    -7.3228     2.7952 C.ar    
  27 F27           -5.4130   -10.6169     1.6480 F       
  28 H28           -3.2082    -2.6678     0.8769 H       
  29 H29           -2.9491    -2.5335    -1.5953 H       
  30 H30           -1.4401    -3.4699    -1.4788 H       
  31 H31           -4.1895    -4.4287    -0.5623 H       
  32 H32           -3.3736    -4.9225    -2.0659 H       
  33 H33           -3.0675    -6.5725    -0.1854 H       
  34 H34           -1.5278    -5.9081    -0.7898 H       
  35 H35           -0.4442    -3.9643     0.7996 H       
  36 H36           -1.4045    -3.5894     2.2537 H       
  37 H37            1.1469     4.6551     0.9058 H       
  38 H38           -0.8089     5.6625     2.0066 H       
  39 H39           -2.7917     4.2933     2.5040 H       
  40 H40           -2.8300     1.9102     1.8948 H       
  41 H41            1.3627     2.1869    -0.9767 H       
  42 H42            2.3712     2.6156     0.4259 H       
  43 H43            1.5369     1.0440     0.3767 H       
  44 H44           -1.9441    -7.9632     0.5594 H       
  45 H45           -3.2319   -10.0452     0.3348 H       
  46 H46           -6.0316    -8.6458     3.2418 H       
  47 H47           -4.7524    -6.5604     3.4833 H       
@<TRIPOS>BOND
   1    1    2 1
   2    1   16 ar
   3    1   20 ar
   4    2    3 1
   5    2    6 2
   6    3    4 2
   7    4    5 1
   8    4    7 1
   9    5    6 1
  10    7    8 1
  11    7   12 1
  12    7   28 1
  13    8    9 1
  14    8   29 1
  15    8   30 1
  16    9   10 1
  17    9   31 1
  18    9   32 1
  19   10   11 1
  20   10   33 1
  21   10   34 1
  22   11   12 1
  23   11   13 am
  24   12   35 1
  25   12   36 1
  26   13   14 1
  27   13   15 2
  28   14   22 ar
  29   14   26 ar
  30   16   17 ar
  31   16   21 1
  32   17   18 ar
  33   17   37 1
  34   18   19 ar
  35   18   38 1
  36   19   20 ar
  37   19   39 1
  38   20   40 1
  39   21   41 1
  40   21   42 1
  41   21   43 1
  42   22   23 ar
  43   22   44 1
  44   23   24 ar
  45   23   45 1
  46   24   25 ar
  47   24   27 1
  48   25   26 ar
  49   25   46 1
  50   26   47 1

#	End of record

