#	Name: ASD03091477
#	Creating user name:	WinNT
#	Creation time:	15. 06. 2019 20:30

#	Modifying user name:	WinNT
#	Modification time:	15. 06. 2019 20:30

#	Program:	/corina/corina34_cracker 3.40 0067  02.08.2006

@<TRIPOS>MOLECULE
ASD03091477
  48   51    0    0    0
SMALL
NO_CHARGES


@<TRIPOS>ATOM
   1 N1            -0.0163     1.3519     0.0095 N.pl3   
   2 C2             0.0021    -0.0041     0.0020 C.2     
   3 C3             1.1381    -0.7093     0.2660 C.2     
   4 C4             2.3788     0.0267     0.5580 C.2     
   5 C5             2.3734     1.4687     0.2772 C.ar    
   6 C6             3.5462     2.2360     0.2735 C.ar    
   7 N7             3.4819     3.5325     0.0080 N.ar    
   8 C8             2.3374     4.1399    -0.2569 C.ar    
   9 C9             1.1409     3.4582    -0.2709 C.ar    
  10 C10            1.1400     2.0902     0.0024 C.ar    
  11 N11            4.7655     1.6424     0.5463 N.pl3   
  12 C12            5.9894     2.4475     0.5416 C.3     
  13 C13            7.1879     1.5553     0.8711 C.3     
  14 C14            8.4784     2.3674     0.7443 C.3     
  15 C15            9.6769     1.4753     1.0738 C.3     
  16 C16            9.5435     0.9499     2.5046 C.3     
  17 C17            8.2530     0.1378     2.6314 C.3     
  18 C18            7.0545     1.0299     2.3019 C.3     
  19 O19            3.3632    -0.5331     1.0114 O.2     
  20 C20            1.1243    -2.1921     0.2597 C.ar    
  21 C21            0.8702    -2.8840    -0.9234 C.ar    
  22 C22            0.8584    -4.2638    -0.9240 C.ar    
  23 C23            1.0983    -4.9610     0.2478 C.ar    
  24 C24            1.3507    -4.2785     1.4256 C.ar    
  25 C25            1.3709    -2.8988     1.4356 C.ar    
  26 Cl26           1.0820    -6.6969     0.2404 Cl      
  27 H27           -0.8701     1.8122     0.0160 H       
  28 H28           -0.9091    -0.5401    -0.2190 H       
  29 H29            2.3413     5.1990    -0.4682 H       
  30 H30            0.2179     3.9745    -0.4898 H       
  31 H31            4.8101     0.6931     0.7407 H       
  32 H32            6.1278     2.8925    -0.4438 H       
  33 H33            5.9079     3.2370     1.2887 H       
  34 H34            7.2174     0.7155     0.1770 H       
  35 H35            8.5734     2.7417    -0.2750 H       
  36 H36            8.4489     3.2073     1.4385 H       
  37 H37            9.7064     0.6354     0.3797 H       
  38 H38           10.5962     2.0538     0.9835 H       
  39 H39           10.3973     0.3143     2.7394 H       
  40 H40            9.5139     1.7897     3.1988 H       
  41 H41            8.2825    -0.7021     1.9373 H       
  42 H42            8.1579    -0.2365     3.6507 H       
  43 H43            7.0250     1.8698     2.9961 H       
  44 H44            6.1351     0.4514     2.3922 H       
  45 H45            0.6826    -2.3411    -1.8380 H       
  46 H46            0.6613    -4.8009    -1.8400 H       
  47 H47            1.5366    -4.8270     2.3372 H       
  48 H48            1.5730    -2.3674     2.3538 H       
@<TRIPOS>BOND
   1    1    2 1
   2    1   10 1
   3    1   27 1
   4    2    3 2
   5    2   28 1
   6    3    4 1
   7    3   20 1
   8    4    5 1
   9    4   19 2
  10    5    6 ar
  11    5   10 ar
  12    6    7 ar
  13    6   11 1
  14    7    8 ar
  15    8    9 ar
  16    8   29 1
  17    9   10 ar
  18    9   30 1
  19   11   12 1
  20   11   31 1
  21   12   13 1
  22   12   32 1
  23   12   33 1
  24   13   14 1
  25   13   18 1
  26   13   34 1
  27   14   15 1
  28   14   35 1
  29   14   36 1
  30   15   16 1
  31   15   37 1
  32   15   38 1
  33   16   17 1
  34   16   39 1
  35   16   40 1
  36   17   18 1
  37   17   41 1
  38   17   42 1
  39   18   43 1
  40   18   44 1
  41   20   21 ar
  42   20   25 ar
  43   21   22 ar
  44   21   45 1
  45   22   23 ar
  46   22   46 1
  47   23   24 ar
  48   23   26 1
  49   24   25 ar
  50   24   47 1
  51   25   48 1

#	End of record

