#	Name: ASD09610012
#	Creating user name:	WinNT
#	Creation time:	15. 06. 2019 21:22

#	Modifying user name:	WinNT
#	Modification time:	15. 06. 2019 21:22

#	Program:	/corina/corina34_cracker 3.40 0067  02.08.2006

@<TRIPOS>MOLECULE
ASD09610012
  41   42    0    0    0
SMALL
NO_CHARGES


@<TRIPOS>ATOM
   1 C1            -0.0225     1.4700    -0.3550 C.2     
   2 C2             0.0043     0.0026    -0.0129 C.3     
   3 O3             1.0097     2.0577    -0.5765 O.2     
   4 O4            -1.1936     2.1229    -0.4190 O.3     
   5 O5             1.3556    -0.4620    -0.0134 O.3     
   6 N6             3.9491    -1.4259    -0.3117 N.ar    
   7 C7             5.1778    -1.8629    -0.4446 C.ar    
   8 C8             5.4547    -3.1217    -0.9738 C.ar    
   9 C9             4.4311    -3.9348    -1.3697 C.ar    
  10 C10            3.1134    -3.4617    -1.2253 C.ar    
  11 C11            2.0099    -4.2417    -1.6101 C.ar    
  12 C12            0.7481    -3.7498    -1.4547 C.ar    
  13 C13            0.5352    -2.4829    -0.9190 C.ar    
  14 C14            1.5834    -1.6963    -0.5338 C.ar    
  15 C15            2.9030    -2.1714    -0.6796 C.ar    
  16 Cl16           2.2522    -5.8244    -2.2810 Cl      
  17 C17           -2.0542     0.2884     1.3741 C.3     
  18 C18           -0.6073    -0.2091     1.3735 C.3     
  19 C19           -0.5801    -1.6989     1.7209 C.3     
  20 O20           -1.1502     3.3482    -0.7097 O.3     
  21 C21           -2.4313     3.9793    -0.7602 C.3     
  22 C22           -2.2610     5.4341    -1.1144 C.2     
  23 C23           -3.0411     5.9857    -2.0106 C.2     
  24 H24           -0.5714    -0.5535    -0.7527 H       
  25 H25            5.9970    -1.2305    -0.1360 H       
  26 H26            6.4777    -3.4540    -1.0712 H       
  27 H27            4.6275    -4.9133    -1.7823 H       
  28 H28           -0.0982    -4.3516    -1.7513 H       
  29 H29           -0.4743    -2.1160    -0.8064 H       
  30 H30           -2.6299    -0.2678     0.6342 H       
  31 H31           -2.4899     0.1375     2.3617 H       
  32 H32           -2.0736     1.3497     1.1266 H       
  33 H33           -0.0316     0.3470     2.1134 H       
  34 H34            0.4507    -2.0533     1.7205 H       
  35 H35           -1.0158    -1.8497     2.7085 H       
  36 H36           -1.1558    -2.2550     0.9810 H       
  37 H37           -3.0472     3.4911    -1.5155 H       
  38 H38           -2.9158     3.8965     0.2127 H       
  39 H39           -1.4958     6.0220    -0.6293 H       
  40 H40           -3.8063     5.3979    -2.4957 H       
  41 H41           -2.9191     7.0284    -2.2645 H       
@<TRIPOS>BOND
   1    1    2 1
   2    1    3 2
   3    1    4 1
   4    2    5 1
   5    2   18 1
   6    2   24 1
   7    4   20 1
   8    5   14 1
   9    6    7 ar
  10    6   15 ar
  11    7    8 ar
  12    7   25 1
  13    8    9 ar
  14    8   26 1
  15    9   10 ar
  16    9   27 1
  17   10   11 ar
  18   10   15 ar
  19   11   12 ar
  20   11   16 1
  21   12   13 ar
  22   12   28 1
  23   13   14 ar
  24   13   29 1
  25   14   15 ar
  26   17   18 1
  27   17   30 1
  28   17   31 1
  29   17   32 1
  30   18   19 1
  31   18   33 1
  32   19   34 1
  33   19   35 1
  34   19   36 1
  35   20   21 1
  36   21   22 1
  37   21   37 1
  38   21   38 1
  39   22   23 2
  40   22   39 1
  41   23   40 1
  42   23   41 1

#	End of record

