#	Name: ASD03081126
#	Creating user name:	WinNT
#	Creation time:	15. 06. 2019 20:27

#	Modifying user name:	WinNT
#	Modification time:	15. 06. 2019 20:27

#	Program:	/corina/corina34_cracker 3.40 0067  02.08.2006

@<TRIPOS>MOLECULE
ASD03081126
  23   25    0    0    0
SMALL
NO_CHARGES


@<TRIPOS>ATOM
   1 O1            -0.0144     1.2085     0.0087 O.3     
   2 N2             0.0021    -0.0041     0.0020 N.2     
   3 C3             1.2345    -0.4420    -0.0121 C.2     
   4 N4             2.0453     0.6365    -0.0141 N.2     
   5 C5             1.2410     1.6827    -0.0008 C.2     
   6 C6             2.3784     5.6809     0.0095 C.ar    
   7 N7             1.0940     5.3826     0.0202 N.ar    
   8 C8             0.6880     4.1250     0.0173 C.ar    
   9 C9             1.6455     3.1046     0.0026 C.ar    
  10 C10            2.9968     3.4683    -0.0084 C.ar    
  11 N11            3.3135     4.7513    -0.0044 N.ar    
  12 C12            3.0152    -2.2108    -0.0381 C.ar    
  13 C13            1.6625    -1.8640    -0.0238 C.ar    
  14 C14            0.7240    -2.9019    -0.0205 C.ar    
  15 C15            1.1983    -4.2026    -0.0315 C.ar    
  16 N16            2.4981    -4.4298    -0.0447 N.ar    
  17 N17            3.3630    -3.4824    -0.0478 N.ar    
  18 H18            2.6738     6.7197     0.0078 H       
  19 H19           -0.3658     3.8886     0.0264 H       
  20 H20            3.7683     2.7126    -0.0202 H       
  21 H21            3.7726    -1.4410    -0.0456 H       
  22 H22           -0.3360    -2.6951    -0.0093 H       
  23 H23            0.5050    -5.0306    -0.0290 H       
@<TRIPOS>BOND
   1    1    2 1
   2    1    5 1
   3    2    3 2
   4    3    4 1
   5    3   13 1
   6    4    5 2
   7    5    9 1
   8    6    7 ar
   9    6   11 ar
  10    6   18 1
  11    7    8 ar
  12    8    9 ar
  13    8   19 1
  14    9   10 ar
  15   10   11 ar
  16   10   20 1
  17   12   13 ar
  18   12   17 ar
  19   12   21 1
  20   13   14 ar
  21   14   15 ar
  22   14   22 1
  23   15   16 ar
  24   15   23 1
  25   16   17 ar

#	End of record

