#	Name: ASD01880753
#	Creating user name:	WinNT
#	Creation time:	15. 06. 2019 19:41

#	Modifying user name:	WinNT
#	Modification time:	15. 06. 2019 19:41

#	Program:	/corina/corina34_cracker 3.40 0067  02.08.2006

@<TRIPOS>MOLECULE
ASD01880753
  41   43    0    0    0
SMALL
NO_CHARGES


@<TRIPOS>ATOM
   1 N1            -0.0158     1.3136     0.0093 N.ar    
   2 C2             0.0021    -0.0041     0.0020 C.ar    
   3 N3             1.1319    -0.6827    -0.0124 N.ar    
   4 C4             2.2989    -0.0581    -0.0202 C.ar    
   5 C5             2.3222     1.3269    -0.0130 C.ar    
   6 C6             1.1127     2.0071     0.0022 C.ar    
   7 C7             3.6294     2.0768    -0.0210 C.3     
   8 O8             4.7129     1.1452    -0.0359 O.3     
   9 C9             5.9684     1.6604    -0.0446 C.ar    
  10 C10            7.0690     0.8091    -0.0593 C.ar    
  11 C11            8.3384     1.3316    -0.0686 C.ar    
  12 C12            8.5338     2.7167    -0.0634 C.ar    
  13 C13            7.4249     3.5673    -0.0491 C.ar    
  14 C14            6.1535     3.0378    -0.0447 C.ar    
  15 C15            9.7118     0.7080    -0.0846 C.3     
  16 N16           10.6673     1.8216    -0.0880 N.am    
  17 C17            9.9834     2.9786    -0.0757 C.2     
  18 O18           10.4893     4.0842    -0.0752 O.2     
  19 C19           -1.3044    -0.7552     0.0110 C.3     
  20 C20            7.6200     5.0616    -0.0428 C.3     
  21 Cl21           1.0791     3.7428     0.0113 Cl      
  22 C22           12.6215     1.6557    -1.5492 C.3     
  23 C23           12.1266     1.6934    -0.1019 C.3     
  24 H24            3.2206    -0.6208    -0.0317 H       
  25 H25            3.6807     2.7080    -0.9081 H       
  26 H26            3.6971     2.6985     0.8718 H       
  27 H27            6.9247    -0.2612    -0.0630 H       
  28 H28            5.2970     3.6956    -0.0340 H       
  29 H29            9.8550     0.0941     0.8046 H       
  30 H30            9.8382     0.1032    -0.9826 H       
  31 H31           -1.6296    -0.9308    -1.0145 H       
  32 H32           -1.1707    -1.7106     0.5184 H       
  33 H33           -2.0578    -0.1675     0.5355 H       
  34 H34            7.6580     5.4274    -1.0689 H       
  35 H35            6.7891     5.5343     0.4809 H       
  36 H36            8.5540     5.3039     0.4642 H       
  37 H37           13.7073     1.5603    -1.5596 H       
  38 H38           12.1770     0.8034    -2.0631 H       
  39 H39           12.3328     2.5765    -2.0560 H       
  40 H40           12.5712     2.5457     0.4120 H       
  41 H41           12.4153     0.7726     0.4049 H       
@<TRIPOS>BOND
   1    1    2 ar
   2    1    6 ar
   3    2    3 ar
   4    2   19 1
   5    3    4 ar
   6    4    5 ar
   7    4   24 1
   8    5    6 ar
   9    5    7 1
  10    6   21 1
  11    7    8 1
  12    7   25 1
  13    7   26 1
  14    8    9 1
  15    9   10 ar
  16    9   14 ar
  17   10   11 ar
  18   10   27 1
  19   11   12 ar
  20   11   15 1
  21   12   13 ar
  22   12   17 1
  23   13   14 ar
  24   13   20 1
  25   14   28 1
  26   15   16 1
  27   15   29 1
  28   15   30 1
  29   16   17 am
  30   16   23 1
  31   17   18 2
  32   19   31 1
  33   19   32 1
  34   19   33 1
  35   20   34 1
  36   20   35 1
  37   20   36 1
  38   22   23 1
  39   22   37 1
  40   22   38 1
  41   22   39 1
  42   23   40 1
  43   23   41 1

#	End of record

