#	Name: ASD06020111
#	Creating user name:	WinNT
#	Creation time:	15. 06. 2019 21:04

#	Modifying user name:	WinNT
#	Modification time:	15. 06. 2019 21:04

#	Program:	/corina/corina34_cracker 3.40 0067  02.08.2006

@<TRIPOS>MOLECULE
ASD06020111
  36   39    0    0    0
SMALL
NO_CHARGES


@<TRIPOS>ATOM
   1 C1            -0.0187     1.5258     0.0104 C.3     
   2 C2             0.0021    -0.0041     0.0020 C.3     
   3 C3             1.3165     0.7789    -0.0063 C.3     
   4 C4            -0.4420     2.2229    -1.2568 C.2     
   5 O5            -0.7498     1.5724    -2.2330 O.2     
   6 N6            -0.4784     3.5693    -1.3053 N.am    
   7 C7            -0.8701     4.2143    -2.4778 C.ar    
   8 C8            -0.9065     5.6108    -2.5239 C.ar    
   9 C9            -1.3001     6.2525    -3.7041 C.ar    
  10 C10           -1.6444     5.4262    -4.8034 C.ar    
  11 C11           -1.5804     4.0745    -4.6718 C.ar    
  12 N12           -1.1995     3.5019    -3.5411 N.ar    
  13 S13           -0.5345     6.8411    -1.3215 S.3     
  14 C14           -0.9301     8.1056    -2.4785 C.2     
  15 N15           -1.2889     7.5829    -3.6066 N.2     
  16 C16           -0.8621     9.5545    -2.2025 C.ar    
  17 C17           -1.2004    10.4743    -3.1994 C.ar    
  18 C18           -1.1362    11.8263    -2.9378 C.ar    
  19 C19           -0.7350    12.2756    -1.6841 C.ar    
  20 C20           -0.3972    11.3635    -0.6898 C.ar    
  21 C21           -0.4649    10.0098    -0.9419 C.ar    
  22 Cl22          -0.0499     8.8722     0.3020 Cl      
  23 Cl23          -1.7002     9.9148    -4.7649 Cl      
  24 N24           -0.6709    13.6430    -1.4236 N.pl3   
  25 H25           -0.3072     2.0201     0.9381 H       
  26 H26           -0.2728    -0.5162     0.9241 H       
  27 H27           -0.2904    -0.5063    -0.9201 H       
  28 H28            1.8888     0.7918    -0.9339 H       
  29 H29            1.9064     0.7818     0.9103 H       
  30 H30           -0.2322     4.0896    -0.5246 H       
  31 H31           -1.9557     5.8674    -5.7387 H       
  32 H32           -1.8446     3.4515    -5.5135 H       
  33 H33           -1.3974    12.5376    -3.7074 H       
  34 H34           -0.0857    11.7161     0.2823 H       
  35 H35           -0.9059    14.2802    -2.1162 H       
  36 H36           -0.3912    13.9576    -0.5497 H       
@<TRIPOS>BOND
   1    1    2 1
   2    1    3 1
   3    1    4 1
   4    1   25 1
   5    2    3 1
   6    2   26 1
   7    2   27 1
   8    3   28 1
   9    3   29 1
  10    4    5 2
  11    4    6 am
  12    6    7 1
  13    6   30 1
  14    7    8 ar
  15    7   12 ar
  16    8    9 ar
  17    8   13 1
  18    9   10 ar
  19    9   15 1
  20   10   11 ar
  21   10   31 1
  22   11   12 ar
  23   11   32 1
  24   13   14 1
  25   14   15 2
  26   14   16 1
  27   16   17 ar
  28   16   21 ar
  29   17   18 ar
  30   17   23 1
  31   18   19 ar
  32   18   33 1
  33   19   20 ar
  34   19   24 1
  35   20   21 ar
  36   20   34 1
  37   21   22 1
  38   24   35 1
  39   24   36 1

#	End of record

