#	Name: ASD05313245
#	Creating user name:	WinNT
#	Creation time:	15. 06. 2019 20:59

#	Modifying user name:	WinNT
#	Modification time:	15. 06. 2019 20:59

#	Program:	/corina/corina34_cracker 3.40 0067  02.08.2006

@<TRIPOS>MOLECULE
ASD05313245
  38   41    0    0    0
SMALL
NO_CHARGES


@<TRIPOS>ATOM
   1 C1            -0.4839     1.1689     1.2149 C.2     
   2 C2            -0.1931    -0.3025     1.0187 C.3     
   3 N3             0.4757     2.1222     1.2636 N.pl3   
   4 N4             1.2274    -0.4160     0.6403 N.am    
   5 C5             2.2062     0.4002     1.3746 C.3     
   6 C6             1.9133     1.8835     1.1227 C.3     
   7 N7            -1.6484     1.7305     1.3673 N.2     
   8 C8            -1.4910     3.0511     1.5205 C.2     
   9 C9            -0.1568     3.3242     1.4610 C.2     
  10 C10            0.4819     4.6504     1.5872 C.ar    
  11 C11            1.8556     4.7912     1.3714 C.ar    
  12 N12           -0.2495     5.7173     1.9016 N.ar    
  13 N13            2.4197     5.9780     1.4852 N.ar    
  14 C14            1.6877     7.0331     1.8028 C.ar    
  15 C15            0.3267     6.9004     2.0127 C.ar    
  16 C16            1.6176    -1.2436    -0.3493 C.2     
  17 O17            2.7776    -1.2515    -0.7132 O.2     
  18 C18            0.6364    -2.1408    -0.9914 C.ar    
  19 C19            0.6179    -2.2800    -2.3824 C.ar    
  20 C20           -0.3014    -3.1204    -2.9762 C.ar    
  21 C21           -1.2046    -3.8252    -2.1961 C.ar    
  22 C22           -1.1905    -3.6901    -0.8160 C.ar    
  23 C23           -0.2732    -2.8580    -0.2112 C.ar    
  24 F24           -2.1026    -4.6468    -2.7825 F       
  25 Cl25           1.7485    -1.3972    -3.3602 Cl      
  26 H26           -0.3748    -0.8443     1.9470 H       
  27 H27           -0.8226    -0.7031     0.2241 H       
  28 H28            2.1288     0.1898     2.4413 H       
  29 H29            3.2118     0.1632     1.0275 H       
  30 H30            2.2296     2.1504     0.1143 H       
  31 H31            2.4559     2.4902     1.8477 H       
  32 H32           -2.2812     3.7723     1.6681 H       
  33 H33            2.4539     3.9301     1.1124 H       
  34 H34            2.1540     8.0029     1.8953 H       
  35 H35           -0.2661     7.7665     2.2677 H       
  36 H36           -0.3174    -3.2290    -4.0506 H       
  37 H37           -1.8972    -4.2413    -0.2134 H       
  38 H38           -0.2605    -2.7577     0.8641 H       
@<TRIPOS>BOND
   1    1    2 1
   2    1    3 1
   3    1    7 2
   4    2    4 1
   5    2   26 1
   6    2   27 1
   7    3    6 1
   8    3    9 1
   9    4    5 1
  10    4   16 am
  11    5    6 1
  12    5   28 1
  13    5   29 1
  14    6   30 1
  15    6   31 1
  16    7    8 1
  17    8    9 2
  18    8   32 1
  19    9   10 1
  20   10   11 ar
  21   10   12 ar
  22   11   13 ar
  23   11   33 1
  24   12   15 ar
  25   13   14 ar
  26   14   15 ar
  27   14   34 1
  28   15   35 1
  29   16   17 2
  30   16   18 1
  31   18   19 ar
  32   18   23 ar
  33   19   20 ar
  34   19   25 1
  35   20   21 ar
  36   20   36 1
  37   21   22 ar
  38   21   24 1
  39   22   23 ar
  40   22   37 1
  41   23   38 1

#	End of record

