#	Name: ASD01912898
#	Creating user name:	WinNT
#	Creation time:	15. 06. 2019 20:00

#	Modifying user name:	WinNT
#	Modification time:	15. 06. 2019 20:00

#	Program:	/corina/corina34_cracker 3.40 0067  02.08.2006

@<TRIPOS>MOLECULE
ASD01912898
  28   30    0    0    0
SMALL
NO_CHARGES


@<TRIPOS>ATOM
   1 C1            -0.0165     1.3668     0.0096 C.2     
   2 N2             0.0021    -0.0041     0.0020 N.pl3   
   3 C3            -1.2026    -0.6917     0.0094 C.2     
   4 C4            -2.3632    -0.0490     0.0236 C.2     
   5 N5            -2.4362     1.3300     0.0317 N.am    
   6 C6            -1.3026     2.0665     0.0309 C.2     
   7 C7             1.3011     1.7836    -0.0008 C.2     
   8 C8             2.0549     0.6112    -0.0143 C.2     
   9 N9             1.2243    -0.4045    -0.0118 N.2     
  10 O10           -1.3500     3.2834     0.0380 O.2     
  11 C11            3.5593     0.5254    -0.0291 C.3     
  12 O12            4.1117     1.8433    -0.0273 O.3     
  13 C13            5.4653     1.9442    -0.0397 C.ar    
  14 C14            6.0885     3.1896    -0.0389 C.ar    
  15 C15            7.4669     3.2500    -0.0513 C.ar    
  16 N16            8.1919     2.1474    -0.0637 N.ar    
  17 C17            7.6382     0.9496    -0.0648 C.ar    
  18 C18            6.2662     0.8049    -0.0476 C.ar    
  19 H19           -1.1956    -1.7717     0.0032 H       
  20 H20           -3.2788    -0.6218     0.0285 H       
  21 H21           -3.3006     1.7700     0.0420 H       
  22 H22            1.6679     2.7994     0.0006 H       
  23 H23            3.9013    -0.0131     0.8548 H       
  24 H24            3.8843    -0.0036    -0.9251 H       
  25 H25            5.5010     4.0957    -0.0292 H       
  26 H26            7.9585     4.2115    -0.0512 H       
  27 H27            8.2669     0.0715    -0.0755 H       
  28 H28            5.8194    -0.1783    -0.0482 H       
@<TRIPOS>BOND
   1    1    2 1
   2    1    7 2
   3    1    6 1
   4    2    3 1
   5    2    9 1
   6    3    4 2
   7    3   19 1
   8    4    5 1
   9    4   20 1
  10    5    6 am
  11    5   21 1
  12    6   10 2
  13    7    8 1
  14    7   22 1
  15    8    9 2
  16    8   11 1
  17   11   12 1
  18   11   23 1
  19   11   24 1
  20   12   13 1
  21   13   14 ar
  22   13   18 ar
  23   14   15 ar
  24   14   25 1
  25   15   16 ar
  26   15   26 1
  27   16   17 ar
  28   17   18 ar
  29   17   27 1
  30   18   28 1

#	End of record

