#	Name: ASD08170093
#	Creating user name:	WinNT
#	Creation time:	15. 06. 2019 21:17

#	Modifying user name:	WinNT
#	Modification time:	15. 06. 2019 21:17

#	Program:	/corina/corina34_cracker 3.40 0067  02.08.2006

@<TRIPOS>MOLECULE
ASD08170093
  73   76    0    0    0
SMALL
NO_CHARGES


@<TRIPOS>ATOM
   1 C1            -0.0225     1.8097     0.0120 C.3     
   2 S2             0.0021    -0.0041     0.0020 S.3     
   3 C3             1.4129     2.3393     0.0011 C.3     
   4 C4            -1.7597    -0.4361     0.0165 C.3     
   5 C5            -1.9115    -1.9586     0.0098 C.3     
   6 C6            -3.3750    -2.3175     0.0218 C.2     
   7 C7             1.3924     3.8462     0.0094 C.2     
   8 S8            -4.3719    -2.5730     1.4545 S.3     
   9 C9            -5.7140    -2.8943     0.4396 C.2     
  10 N10           -5.3340    -2.7916    -0.7982 N.2     
  11 N11           -4.1283    -2.4884    -1.0179 N.2     
  12 S12            1.3647     4.8941    -1.4092 S.3     
  13 N13            1.3864     4.6043     1.0595 N.2     
  14 N14            1.3687     5.8503     0.8566 N.2     
  15 C15            1.3559     6.2604    -0.3758 C.2     
  16 N16            1.3364     7.5885    -0.7880 N.am    
  17 C17            1.3289     8.5780     0.1269 C.2     
  18 C18            1.3077    10.0172    -0.3197 C.3     
  19 O19            1.3390     8.3103     1.3098 O.2     
  20 C20            0.7024    10.8709     0.7646 C.ar    
  21 C21            2.7373    10.4855    -0.5991 C.3     
  22 O22            0.5266    10.1349    -1.5105 O.3     
  23 C23            2.7289    11.9789    -0.9317 C.3     
  24 N24           -6.9978    -3.2124     0.8697 N.am    
  25 C25           -7.9724    -3.4444    -0.0318 C.2     
  26 C26           -9.3635    -3.7891     0.4342 C.3     
  27 O27           -7.7299    -3.3758    -1.2182 O.2     
  28 C28          -10.0731    -4.5731    -0.6394 C.ar    
  29 O29           -9.2857    -4.5749     1.6252 O.3     
  30 C30          -10.1384    -2.5017     0.7223 C.3     
  31 C31           -9.3548    -1.6472     1.7206 C.3     
  32 C32           -0.6610    11.0984     0.7849 C.ar    
  33 C33            1.5097    11.4218     1.7422 C.ar    
  34 C34            0.9544    12.2048     2.7368 C.ar    
  35 C35           -0.4082    12.4374     2.7536 C.ar    
  36 C36           -1.2163    11.8815     1.7795 C.ar    
  37 C37           -9.9874    -5.9526    -0.6589 C.ar    
  38 C38          -10.8144    -3.9130    -1.6016 C.ar    
  39 C39          -11.4654    -4.6322    -2.5864 C.ar    
  40 C40          -11.3747    -6.0114    -2.6094 C.ar    
  41 C41          -10.6383    -6.6718    -1.6438 C.ar    
  42 H42           -0.5497     2.1708    -0.8711 H       
  43 H43           -0.5327     2.1613     0.9088 H       
  44 H44            1.9400     1.9782     0.8842 H       
  45 H45            1.9230     1.9878    -0.8957 H       
  46 H46           -2.2264    -0.0284     0.9132 H       
  47 H47           -2.2434    -0.0189    -0.8667 H       
  48 H48           -1.4447    -2.3663    -0.8869 H       
  49 H49           -1.4277    -2.3759     0.8930 H       
  50 H50            1.3283     7.8026    -1.7341 H       
  51 H51            3.3549    10.3130     0.2823 H       
  52 H52            3.1440     9.9277    -1.4426 H       
  53 H53           -0.3931     9.8548    -1.4069 H       
  54 H54            2.3221    12.5367    -0.0882 H       
  55 H55            3.7473    12.3125    -1.1308 H       
  56 H56            2.1112    12.1513    -1.8131 H       
  57 H57           -7.1917    -3.2672     1.8185 H       
  58 H58           -8.8067    -5.4078     1.5164 H       
  59 H59          -10.2747    -1.9445    -0.2046 H       
  60 H60          -11.1126    -2.7505     1.1431 H       
  61 H61           -9.2186    -2.2044     2.6474 H       
  62 H62           -8.3806    -1.3984     1.2997 H       
  63 H63           -9.9069    -0.7301     1.9258 H       
  64 H64           -1.2922    10.6646     0.0234 H       
  65 H65            2.5742    11.2401     1.7291 H       
  66 H66            1.5850    12.6347     3.5010 H       
  67 H67           -0.8421    13.0489     3.5309 H       
  68 H68           -2.2808    12.0632     1.7926 H       
  69 H69           -9.4116    -6.4686     0.0952 H       
  70 H70          -10.8853    -2.8355    -1.5836 H       
  71 H71          -12.0451    -4.1165    -3.3377 H       
  72 H72          -11.8835    -6.5732    -3.3787 H       
  73 H73          -10.5674    -7.7493    -1.6617 H       
@<TRIPOS>BOND
   1    1    2 1
   2    1    3 1
   3    1   42 1
   4    1   43 1
   5    2    4 1
   6    3    7 1
   7    3   44 1
   8    3   45 1
   9    4    5 1
  10    4   46 1
  11    4   47 1
  12    5    6 1
  13    5   48 1
  14    5   49 1
  15    6    8 1
  16    6   11 2
  17    7   12 1
  18    7   13 2
  19    8    9 1
  20    9   10 2
  21    9   24 1
  22   10   11 1
  23   12   15 1
  24   13   14 1
  25   14   15 2
  26   15   16 1
  27   16   17 am
  28   16   50 1
  29   17   18 1
  30   17   19 2
  31   18   20 1
  32   18   21 1
  33   18   22 1
  34   20   32 ar
  35   20   33 ar
  36   21   23 1
  37   21   51 1
  38   21   52 1
  39   22   53 1
  40   23   54 1
  41   23   55 1
  42   23   56 1
  43   24   25 am
  44   24   57 1
  45   25   26 1
  46   25   27 2
  47   26   28 1
  48   26   29 1
  49   26   30 1
  50   28   37 ar
  51   28   38 ar
  52   29   58 1
  53   30   31 1
  54   30   59 1
  55   30   60 1
  56   31   61 1
  57   31   62 1
  58   31   63 1
  59   32   36 ar
  60   32   64 1
  61   33   34 ar
  62   33   65 1
  63   34   35 ar
  64   34   66 1
  65   35   36 ar
  66   35   67 1
  67   36   68 1
  68   37   41 ar
  69   37   69 1
  70   38   39 ar
  71   38   70 1
  72   39   40 ar
  73   39   71 1
  74   40   41 ar
  75   40   72 1
  76   41   73 1

#	End of record

