#	Name: ASD01680080
#	Creating user name:	WinNT
#	Creation time:	15. 06. 2019 19:22

#	Modifying user name:	WinNT
#	Modification time:	15. 06. 2019 19:22

#	Program:	/corina/corina34_cracker 3.40 0067  02.08.2006

@<TRIPOS>MOLECULE
ASD01680080
  88   91    0    0    0
SMALL
NO_CHARGES


@<TRIPOS>ATOM
   1 C1            -0.7201     1.9884    -0.9847 C.2     
   2 C2            -0.6475     0.4958    -0.7895 C.3     
   3 C3            -1.5101    -0.1991    -1.8449 C.3     
   4 O4             0.2858     2.6173    -1.2140 O.2     
   5 O5            -1.9030     2.6183    -0.9094 O.3     
   6 N6             0.7422     0.0526    -0.9256 N.am    
   7 S7             1.6908    -0.1229     0.4204 S.o2    
   8 O8             2.9524    -0.5912    -0.0362 O.2     
   9 O9             1.5323     1.0669     1.1809 O.2     
  10 C10            0.9953    -1.4249     1.3826 C.ar    
  11 C11            0.1129    -1.1327     2.4058 C.ar    
  12 C12           -0.4327    -2.1541     3.1607 C.ar    
  13 C13           -0.0963    -3.4677     2.8921 C.ar    
  14 C14            0.7854    -3.7599     1.8683 C.ar    
  15 C15            1.3276    -2.7388     1.1106 C.ar    
  16 C16            2.2848    -3.0577    -0.0088 C.3     
  17 C17           -0.6904    -4.5812     3.7157 C.3     
  18 C18           -0.2538     0.2994     2.6986 C.3     
  19 N19           -1.3461    -1.6504    -1.7313 N.am    
  20 C20           -2.0149    -2.4715    -2.5650 C.2     
  21 O21           -2.7524    -2.0089    -3.4093 O.2     
  22 C22           -1.8461    -3.9645    -2.4481 C.3     
  23 O23           -2.6518    -4.6135    -3.4338 O.3     
  24 N24           -3.8307    -8.0163    -3.0230 N.3     
  25 C25           -3.6586    -6.6402    -2.4911 C.3     
  26 C26           -2.5643    -6.0396    -3.4089 C.3     
  27 C27           -2.9106    -6.6332    -4.7937 C.3     
  28 C28           -3.7428    -7.8938    -4.4943 C.3     
  29 C29           -3.0508    -9.1265    -5.0795 C.3     
  30 N30           -3.8297   -10.3240    -4.7550 N.pl3   
  31 C31           -3.4409   -11.5621    -5.2530 C.ar    
  32 C32           -2.3108   -11.6570    -6.0592 C.ar    
  33 C33           -1.9354   -12.8951    -6.5479 C.ar    
  34 C34           -2.7055   -14.0013    -6.2129 C.ar    
  35 C35           -3.8144   -13.8344    -5.4082 C.ar    
  36 N36           -4.1460   -12.6414    -4.9516 N.ar    
  37 C37           -5.1257    -8.5791    -2.6179 C.3     
  38 C38           -6.2441    -7.9187    -3.4266 C.3     
  39 C39           -7.6009    -8.3985    -2.9070 C.3     
  40 C40           -8.7024    -7.7480    -3.7035 C.ar    
  41 C41           -9.1834    -8.3600    -4.8459 C.ar    
  42 C42          -10.1938    -7.7633    -5.5765 C.ar    
  43 C43          -10.7236    -6.5548    -5.1645 C.ar    
  44 C44          -10.2433    -5.9433    -4.0216 C.ar    
  45 C45           -9.2359    -6.5421    -3.2886 C.ar    
  46 H46           -1.0144     0.2412     0.2048 H       
  47 H47           -2.5568     0.0617    -1.6879 H       
  48 H48           -1.2001     0.1249    -2.8384 H       
  49 H49           -1.8994     3.5763    -1.0416 H       
  50 H50            1.1066    -0.1381    -1.8040 H       
  51 H51           -1.1215    -1.9258     3.9605 H       
  52 H52            1.0484    -4.7862     1.6587 H       
  53 H53            3.3093    -2.9702     0.3531 H       
  54 H54            2.1088    -4.0749    -0.3587 H       
  55 H55            2.1288    -2.3587    -0.8305 H       
  56 H56           -1.6203    -4.9166     3.2564 H       
  57 H57            0.0123    -5.4131     3.7627 H       
  58 H58           -0.8929    -4.2192     4.7237 H       
  59 H59           -0.9780     0.6469     1.9618 H       
  60 H60           -0.6891     0.3664     3.6956 H       
  61 H61            0.6405     0.9207     2.6501 H       
  62 H62           -0.7562    -2.0205    -1.0560 H       
  63 H63           -0.7995    -4.2253    -2.6051 H       
  64 H64           -2.1562    -4.2885    -1.4546 H       
  65 H65           -4.5866    -6.0751    -2.5784 H       
  66 H66           -3.3196    -6.6676    -1.4555 H       
  67 H67           -1.5730    -6.3582    -3.0866 H       
  68 H68           -3.4975    -5.9215    -5.3744 H       
  69 H69           -1.9996    -6.8998    -5.3296 H       
  70 H70           -4.7414    -7.7889    -4.9184 H       
  71 H71           -2.9781    -9.0226    -6.1621 H       
  72 H72           -2.0508    -9.2174    -4.6553 H       
  73 H73           -4.6168   -10.2529    -4.1925 H       
  74 H74           -1.7349   -10.7758    -6.3004 H       
  75 H75           -1.0632   -12.9994    -7.1763 H       
  76 H76           -2.4395   -14.9820    -6.5785 H       
  77 H77           -4.4160   -14.6919    -5.1452 H       
  78 H78           -5.1290    -9.6532    -2.8032 H       
  79 H79           -5.2866    -8.3930    -1.5560 H       
  80 H80           -6.1773    -6.8358    -3.3220 H       
  81 H81           -6.1412    -8.1893    -4.4774 H       
  82 H82           -7.6677    -9.4814    -3.0115 H       
  83 H83           -7.7038    -8.1279    -1.8561 H       
  84 H84           -8.7694    -9.3042    -5.1678 H       
  85 H85          -10.5690    -8.2411    -6.4694 H       
  86 H86          -11.5126    -6.0883    -5.7357 H       
  87 H87          -10.6571    -4.9989    -3.6999 H       
  88 H88           -8.8632    -6.0661    -2.3936 H       
@<TRIPOS>BOND
   1    1    2 1
   2    1    4 2
   3    1    5 1
   4    2    3 1
   5    2    6 1
   6    2   46 1
   7    3   19 1
   8    3   47 1
   9    3   48 1
  10    5   49 1
  11    6    7 am
  12    6   50 1
  13    7    8 2
  14    7    9 2
  15    7   10 1
  16   10   11 ar
  17   10   15 ar
  18   11   12 ar
  19   11   18 1
  20   12   13 ar
  21   12   51 1
  22   13   14 ar
  23   13   17 1
  24   14   15 ar
  25   14   52 1
  26   15   16 1
  27   16   53 1
  28   16   54 1
  29   16   55 1
  30   17   56 1
  31   17   57 1
  32   17   58 1
  33   18   59 1
  34   18   60 1
  35   18   61 1
  36   19   20 am
  37   19   62 1
  38   20   21 2
  39   20   22 1
  40   22   23 1
  41   22   63 1
  42   22   64 1
  43   23   26 1
  44   24   25 1
  45   24   28 1
  46   24   37 1
  47   25   26 1
  48   25   65 1
  49   25   66 1
  50   26   27 1
  51   26   67 1
  52   27   28 1
  53   27   68 1
  54   27   69 1
  55   28   29 1
  56   28   70 1
  57   29   30 1
  58   29   71 1
  59   29   72 1
  60   30   31 1
  61   30   73 1
  62   31   32 ar
  63   31   36 ar
  64   32   33 ar
  65   32   74 1
  66   33   34 ar
  67   33   75 1
  68   34   35 ar
  69   34   76 1
  70   35   36 ar
  71   35   77 1
  72   37   38 1
  73   37   78 1
  74   37   79 1
  75   38   39 1
  76   38   80 1
  77   38   81 1
  78   39   40 1
  79   39   82 1
  80   39   83 1
  81   40   41 ar
  82   40   45 ar
  83   41   42 ar
  84   41   84 1
  85   42   43 ar
  86   42   85 1
  87   43   44 ar
  88   43   86 1
  89   44   45 ar
  90   44   87 1
  91   45   88 1

#	End of record

