#	Name: ASD01148357
#	Creating user name:	WinNT
#	Creation time:	15. 06. 2019 19:02

#	Modifying user name:	WinNT
#	Modification time:	15. 06. 2019 19:02

#	Program:	/corina/corina34_cracker 3.40 0067  02.08.2006

@<TRIPOS>MOLECULE
ASD01148357
  58   61    0    0    0
SMALL
NO_CHARGES


@<TRIPOS>ATOM
   1 C1            -0.0222     1.5721     0.1297 C.ar    
   2 C2            -0.0163     0.1893     0.1523 C.ar    
   3 C3             1.1863    -0.4974     0.1463 C.ar    
   4 C4             2.3801     0.2004     0.1177 C.ar    
   5 C5             2.3723     1.5827     0.0951 C.ar    
   6 C6             1.1720     2.2681     0.1011 C.ar    
   7 C7             3.6733     2.3427     0.0639 C.3     
   8 O8             4.6883     1.5997    -0.6413 O.3     
   9 C9             3.5508     3.6148    -0.8084 C.3     
  10 C10            4.0435     3.1359    -2.1607 C.2     
  11 N11            4.6599     2.0141    -1.9928 N.2     
  12 C12            3.8511     3.8327    -3.4477 C.ar    
  13 C13            4.3592     3.2780    -4.6254 C.ar    
  14 C14            3.1562     5.0440    -3.4891 C.ar    
  15 C15            2.9769     5.6940    -4.6893 C.ar    
  16 C16            3.4897     5.1422    -5.8660 C.ar    
  17 C17            4.1799     3.9277    -5.8253 C.ar    
  18 C18            3.2972     5.8396    -7.1538 C.2     
  19 O19            4.2568     6.2791    -7.7561 O.2     
  20 N20            2.0574     5.9883    -7.6608 N.am    
  21 C21            4.7335     3.3327    -7.0944 C.3     
  22 C22            4.1346     2.6913     1.4804 C.3     
  23 F23            4.3029     1.5150     2.2189 F       
  24 F24            5.3503     3.3809     1.4185 F       
  25 F25            3.1726     3.4968     2.0992 F       
  26 Cl26           1.1955    -2.2332     0.1752 Cl      
  27 Cl27          -1.5155    -0.6852     0.1888 Cl      
  28 C28            1.8512     6.7925    -8.8679 C.3     
  29 C29            1.9702     5.9116   -10.0848 C.ar    
  30 N30            3.1596     5.6683   -10.5994 N.ar    
  31 C31            1.0072     5.3972    -7.0575 C.2     
  32 C32            3.3118     4.9037   -11.6631 C.ar    
  33 C33            2.2189     4.3264   -12.2809 C.ar    
  34 C34            0.9516     4.5595   -11.7682 C.ar    
  35 C35            0.8318     5.3635   -10.6453 C.ar    
  36 O36            1.1645     4.8013    -6.0107 O.2     
  37 O37           -0.2160     5.4671    -7.6148 O.3     
  38 C38           -1.3004     4.8073    -6.9096 C.3     
  39 H39           -0.9598     2.1082     0.1299 H       
  40 H40            3.3183    -0.3345     0.1133 H       
  41 H41            1.1670     3.3479     0.0835 H       
  42 H42            2.5135     3.9441    -0.8689 H       
  43 H43            4.1887     4.4106    -0.4238 H       
  44 H44            4.8928     2.3396    -4.5939 H       
  45 H45            2.7595     5.4704    -2.5796 H       
  46 H46            2.4394     6.6302    -4.7214 H       
  47 H47            5.7134     3.7633    -7.3002 H       
  48 H48            4.8281     2.2531    -6.9784 H       
  49 H49            4.0593     3.5515    -7.9225 H       
  50 H50            0.8585     7.2416    -8.8401 H       
  51 H51            2.6046     7.5789    -8.9136 H       
  52 H52            4.3021     4.7271   -12.0562 H       
  53 H53            2.3499     3.7018   -13.1521 H       
  54 H54            0.0792     4.1217   -12.2304 H       
  55 H55           -0.1396     5.5661   -10.2190 H       
  56 H56           -1.4059     5.2430    -5.9161 H       
  57 H57           -2.2288     4.9400    -7.4650 H       
  58 H58           -1.0804     3.7436    -6.8184 H       
@<TRIPOS>BOND
   1    1    2 ar
   2    1    6 ar
   3    1   39 1
   4    2    3 ar
   5    2   27 1
   6    3    4 ar
   7    3   26 1
   8    4    5 ar
   9    4   40 1
  10    5    6 ar
  11    5    7 1
  12    6   41 1
  13    7    8 1
  14    7    9 1
  15    7   22 1
  16    8   11 1
  17    9   10 1
  18    9   42 1
  19    9   43 1
  20   10   11 2
  21   10   12 1
  22   12   13 ar
  23   12   14 ar
  24   13   17 ar
  25   13   44 1
  26   14   15 ar
  27   14   45 1
  28   15   16 ar
  29   15   46 1
  30   16   17 ar
  31   16   18 1
  32   17   21 1
  33   18   19 2
  34   18   20 am
  35   20   28 1
  36   20   31 am
  37   21   47 1
  38   21   48 1
  39   21   49 1
  40   22   23 1
  41   22   24 1
  42   22   25 1
  43   28   29 1
  44   28   50 1
  45   28   51 1
  46   29   30 ar
  47   29   35 ar
  48   30   32 ar
  49   31   36 2
  50   31   37 1
  51   32   33 ar
  52   32   52 1
  53   33   34 ar
  54   33   53 1
  55   34   35 ar
  56   34   54 1
  57   35   55 1
  58   37   38 1
  59   38   56 1
  60   38   57 1
  61   38   58 1

#	End of record

