#	Name: ASD01148633
#	Creating user name:	WinNT
#	Creation time:	15. 06. 2019 19:02

#	Modifying user name:	WinNT
#	Modification time:	15. 06. 2019 19:02

#	Program:	/corina/corina34_cracker 3.40 0067  02.08.2006

@<TRIPOS>MOLECULE
ASD01148633
  61   65    0    0    0
SMALL
NO_CHARGES


@<TRIPOS>ATOM
   1 C1            -0.0169     1.4355    -0.0251 C.ar    
   2 C2             0.0192     0.0536    -0.0358 C.ar    
   3 C3            -1.1593    -0.6687    -0.0207 C.ar    
   4 C4            -2.3739    -0.0092     0.0055 C.ar    
   5 C5            -2.4100     1.3726     0.0170 C.ar    
   6 C6            -1.2314     2.0949     0.0064 C.ar    
   7 C7            -3.7342     2.0916     0.0451 C.3     
   8 O8            -4.7238     1.3227     0.7585 O.3     
   9 C9            -3.6497     3.3741     0.9067 C.3     
  10 C10           -4.1236     2.8912     2.2643 C.2     
  11 N11           -4.7055     1.7481     2.1068 N.2     
  12 C12           -3.9497     3.6024     3.5424 C.ar    
  13 C13           -4.4574     3.0206     4.7825 C.ar    
  14 C14           -3.2974     4.8270     3.5772 C.ar    
  15 C15           -3.1197     5.5165     4.7637 C.ar    
  16 C16           -3.5861     5.0133     5.9701 C.ar    
  17 C17           -4.2758     3.7258     5.9958 C.ar    
  18 C18           -3.3819     5.7707     7.2185 C.2     
  19 O19           -3.8833     5.3804     8.2554 O.2     
  20 N20           -2.6397     6.8956     7.2105 N.am    
  21 C21           -4.2091     2.4140    -1.3731 C.3     
  22 F22           -4.3418     1.2270    -2.1016 F       
  23 F23           -5.4457     3.0656    -1.3139 F       
  24 F24           -3.2742     3.2442    -2.0006 F       
  25 C25           -2.4368     7.6482     8.4509 C.3     
  26 C26           -1.5773     8.8542     8.1720 C.ar    
  27 N27           -0.2643     8.7335     8.1758 N.ar    
  28 C28            0.5273     9.7611     7.9371 C.ar    
  29 C29            0.0020    11.0115     7.6727 C.ar    
  30 C30           -1.3747    11.1773     7.6602 C.ar    
  31 C31           -2.1746    10.0728     7.9096 C.ar    
  32 C32           -5.1167     1.7849     4.7955 C.ar    
  33 C33           -4.7625     3.1795     7.1901 C.ar    
  34 C34           -5.5742     1.2783     5.9756 C.ar    
  35 C35           -5.4000     1.9746     7.1687 C.ar    
  36 C36            1.2679     2.2230    -0.0416 C.3     
  37 F37            2.3544     1.3421    -0.0668 F       
  38 F38            1.3012     3.0372    -1.1788 F       
  39 F39            1.3407     3.0206     1.1054 F       
  40 C40           -1.1200    -2.1751    -0.0333 C.3     
  41 F41            0.2105    -2.6067    -0.0602 F       
  42 F42           -1.7468    -2.6676     1.1163 F       
  43 F43           -1.7871    -2.6495    -1.1678 F       
  44 H44            0.9681    -0.4616    -0.0563 H       
  45 H45           -3.2947    -0.5735     0.0165 H       
  46 H46           -1.2596     3.1745     0.0154 H       
  47 H47           -2.6232     3.7365     0.9615 H       
  48 H48           -4.3134     4.1462     0.5173 H       
  49 H49           -2.9199     5.2508     2.6584 H       
  50 H50           -2.6066     6.4667     4.7507 H       
  51 H51           -2.2398     7.2069     6.3834 H       
  52 H52           -3.4016     7.9721     8.8413 H       
  53 H53           -1.9428     7.0119     9.1853 H       
  54 H54            1.5984     9.6237     7.9487 H       
  55 H55            0.6554    11.8492     7.4787 H       
  56 H56           -1.8135    12.1430     7.4569 H       
  57 H57           -3.2506    10.1652     7.9073 H       
  58 H58           -5.2621     1.2369     3.8763 H       
  59 H59           -4.6333     3.7094     8.1223 H       
  60 H60           -6.0825     0.3254     5.9846 H       
  61 H61           -5.7749     1.5542     8.0901 H       
@<TRIPOS>BOND
   1    1    2 ar
   2    1   36 1
   3    1    6 ar
   4    2    3 ar
   5    2   44 1
   6    3    4 ar
   7    3   40 1
   8    4    5 ar
   9    4   45 1
  10    5    6 ar
  11    5    7 1
  12    6   46 1
  13    7    8 1
  14    7    9 1
  15    7   21 1
  16    8   11 1
  17    9   10 1
  18    9   47 1
  19    9   48 1
  20   10   11 2
  21   10   12 1
  22   12   13 ar
  23   12   14 ar
  24   13   32 ar
  25   13   17 ar
  26   14   15 ar
  27   14   49 1
  28   15   16 ar
  29   15   50 1
  30   16   17 ar
  31   16   18 1
  32   17   33 ar
  33   18   19 2
  34   18   20 am
  35   20   25 1
  36   20   51 1
  37   21   22 1
  38   21   23 1
  39   21   24 1
  40   25   26 1
  41   25   52 1
  42   25   53 1
  43   26   27 ar
  44   26   31 ar
  45   27   28 ar
  46   28   29 ar
  47   28   54 1
  48   29   30 ar
  49   29   55 1
  50   30   31 ar
  51   30   56 1
  52   31   57 1
  53   32   34 ar
  54   32   58 1
  55   33   35 ar
  56   33   59 1
  57   34   35 ar
  58   34   60 1
  59   35   61 1
  60   36   37 1
  61   36   38 1
  62   36   39 1
  63   40   41 1
  64   40   42 1
  65   40   43 1

#	End of record

