#	Name: ASD01941006
#	Creating user name:	WinNT
#	Creation time:	15. 06. 2019 20:13

#	Modifying user name:	WinNT
#	Modification time:	15. 06. 2019 20:13

#	Program:	/corina/corina34_cracker 3.40 0067  02.08.2006

@<TRIPOS>MOLECULE
ASD01941006
  47   48    0    0    0
SMALL
NO_CHARGES


@<TRIPOS>ATOM
   1 C1             1.3076    -0.0808    -0.4268 C.ar    
   2 C2             0.5166    -0.3484     0.6867 C.ar    
   3 C3             0.3293     0.6368     1.6679 C.ar    
   4 C4             0.9277     1.8735     1.5332 C.ar    
   5 C5             1.7202     2.1498     0.4232 C.ar    
   6 C6             1.9126     1.1680    -0.5640 C.ar    
   7 F7            -0.4394     0.3744     2.7475 F       
   8 F8             0.7431     2.8181     2.4813 F       
   9 N9             2.3199     3.3943     0.2908 N.pl3   
  10 C10            3.6490     3.5759     0.6872 C.ar    
  11 C11            4.4106     2.4866     1.0875 C.ar    
  12 C12            5.7232     2.6689     1.4786 C.ar    
  13 C13            6.2797     3.9349     1.4720 C.ar    
  14 C14            5.5244     5.0240     1.0742 C.ar    
  15 C15            4.2124     4.8481     0.6758 C.ar    
  16 F16            3.4749     5.9112     0.2870 F       
  17 I17            8.2705     4.2046     2.0662 I       
  18 C18            2.7517     1.4573    -1.7405 C.2     
  19 O19            3.1907     2.5782    -1.9133 O.2     
  20 N20            3.0326     0.4798    -2.6248 N.am    
  21 O21            3.8985     0.7386    -3.7148 O.3     
  22 C22            4.1129    -0.3883    -4.5670 C.3     
  23 C23            5.0802    -0.0032    -5.6881 C.3     
  24 O24            6.3608     0.2976    -5.1299 O.3     
  25 C25           -0.1251    -1.6676     0.8349 C.2     
  26 N26           -0.5078    -2.3226    -0.2138 N.2     
  27 O27           -0.2522    -1.8025    -1.5058 O.3     
  28 C28           -0.7968    -2.5892    -2.5672 C.3     
  29 C29           -0.4683    -1.9321    -3.9093 C.3     
  30 O30            0.9343    -2.0387    -4.1612 O.3     
  31 H31            1.4560    -0.8400    -1.1805 H       
  32 H32            1.8174     4.1382    -0.0766 H       
  33 H33            3.9773     1.4973     1.0936 H       
  34 H34            6.3156     1.8213     1.7904 H       
  35 H35            5.9617     6.0115     1.0705 H       
  36 H36            2.6415    -0.4010    -2.5145 H       
  37 H37            4.5372    -1.2074    -3.9865 H       
  38 H38            3.1629    -0.7030    -4.9990 H       
  39 H39            5.1748    -0.8337    -6.3877 H       
  40 H40            4.6980     0.8723    -6.2131 H       
  41 H41            7.0258     0.5505    -5.7848 H       
  42 H42           -0.2759    -2.0873     1.8186 H       
  43 H43           -0.3646    -3.5893    -2.5369 H       
  44 H44           -1.8784    -2.6571    -2.4510 H       
  45 H45           -1.0195    -2.4343    -4.7043 H       
  46 H46           -0.7529    -0.8804    -3.8783 H       
  47 H47            1.1990    -1.7440    -5.0434 H       
@<TRIPOS>BOND
   1    1    2 ar
   2    1    6 ar
   3    1   31 1
   4    2    3 ar
   5    2   25 1
   6    3    4 ar
   7    3    7 1
   8    4    5 ar
   9    4    8 1
  10    5    6 ar
  11    5    9 1
  12    6   18 1
  13    9   10 1
  14    9   32 1
  15   10   11 ar
  16   10   15 ar
  17   11   12 ar
  18   11   33 1
  19   12   13 ar
  20   12   34 1
  21   13   14 ar
  22   13   17 1
  23   14   15 ar
  24   14   35 1
  25   15   16 1
  26   18   19 2
  27   18   20 am
  28   20   21 1
  29   20   36 1
  30   21   22 1
  31   22   23 1
  32   22   37 1
  33   22   38 1
  34   23   24 1
  35   23   39 1
  36   23   40 1
  37   24   41 1
  38   25   26 2
  39   25   42 1
  40   26   27 1
  41   27   28 1
  42   28   29 1
  43   28   43 1
  44   28   44 1
  45   29   30 1
  46   29   45 1
  47   29   46 1
  48   30   47 1

#	End of record

