#	Name: ASD04590361
#	Creating user name:	WinNT
#	Creation time:	15. 06. 2019 20:50

#	Modifying user name:	WinNT
#	Modification time:	15. 06. 2019 20:50

#	Program:	/corina/corina34_cracker 3.40 0067  02.08.2006

@<TRIPOS>MOLECULE
ASD04590361
  39   42    0    0    0
SMALL
NO_CHARGES


@<TRIPOS>ATOM
   1 C1            -0.0168     1.3846     0.0097 C.ar    
   2 C2             0.0021    -0.0041     0.0020 C.ar    
   3 C3            -1.1746    -0.7190     0.0090 C.ar    
   4 C4            -2.3985    -0.0418     0.0243 C.ar    
   5 C5            -2.4108     1.3640     0.0324 C.ar    
   6 C6            -1.2145     2.0672     0.0305 C.ar    
   7 N7            -3.6898    -0.4541     0.0345 N.2     
   8 C8            -4.4851     0.5883     0.0481 C.2     
   9 N9            -3.7417     1.7378     0.0474 N.pl3   
  10 C10           -5.9614     0.5308     0.0616 C.2     
  11 C11           -6.7476    -0.6445     0.0626 C.2     
  12 C12           -8.0504    -0.2703     0.0768 C.2     
  13 N13           -8.0935     1.0880     0.0847 N.pl3   
  14 N14           -6.7773     1.5666     0.0807 N.2     
  15 N15           -6.2652    -1.9633     0.0504 N.am    
  16 C16           -7.1298    -2.9972     0.0529 C.2     
  17 C17           -6.6230    -4.3826     0.0401 C.ar    
  18 O18           -8.3277    -2.7880     0.0657 O.2     
  19 C19           -6.3930    -5.0364    -1.1753 C.ar    
  20 C20           -5.9176    -6.3342    -1.1780 C.ar    
  21 C21           -5.6698    -6.9867     0.0160 C.ar    
  22 C22           -5.8948    -6.3480     1.2220 C.ar    
  23 C23           -6.3641    -5.0481     1.2432 C.ar    
  24 F24           -6.5828    -4.4259     2.4223 F       
  25 F25           -6.6353    -4.4011    -2.3427 F       
  26 C26            1.2810     2.1507     0.0014 C.3     
  27 Cl27           1.5207    -0.8449    -0.0170 Cl      
  28 H28           -1.1528    -1.7987     0.0022 H       
  29 H29           -1.2218     3.1472     0.0371 H       
  30 H30           -4.0847     2.6451     0.0564 H       
  31 H31           -8.9026    -0.9337     0.0809 H       
  32 H32           -8.8967     1.6318     0.0953 H       
  33 H33           -5.3097    -2.1301     0.0402 H       
  34 H34           -5.7395    -6.8404    -2.1153 H       
  35 H35           -5.2987    -8.0009     0.0067 H       
  36 H36           -5.6993    -6.8651     2.1498 H       
  37 H37            1.5841     2.3409    -1.0282 H       
  38 H38            1.1465     3.0990     0.5216 H       
  39 H39            2.0511     1.5662     0.5047 H       
@<TRIPOS>BOND
   1    1    2 ar
   2    1   26 1
   3    1    6 ar
   4    2    3 ar
   5    2   27 1
   6    3    4 ar
   7    3   28 1
   8    4    5 ar
   9    4    7 1
  10    5    6 ar
  11    5    9 1
  12    6   29 1
  13    7    8 2
  14    8    9 1
  15    8   10 1
  16    9   30 1
  17   10   11 1
  18   10   14 2
  19   11   12 2
  20   11   15 1
  21   12   13 1
  22   12   31 1
  23   13   14 1
  24   13   32 1
  25   15   16 am
  26   15   33 1
  27   16   17 1
  28   16   18 2
  29   17   19 ar
  30   17   23 ar
  31   19   20 ar
  32   19   25 1
  33   20   21 ar
  34   20   34 1
  35   21   22 ar
  36   21   35 1
  37   22   23 ar
  38   22   36 1
  39   23   24 1
  40   26   37 1
  41   26   38 1
  42   26   39 1

#	End of record

