#	Name: ASD05313034
#	Creating user name:	WinNT
#	Creation time:	15. 06. 2019 20:58

#	Modifying user name:	WinNT
#	Modification time:	15. 06. 2019 20:58

#	Program:	/corina/corina34_cracker 3.40 0067  02.08.2006

@<TRIPOS>MOLECULE
ASD05313034
  39   42    0    0    0
SMALL
NO_CHARGES


@<TRIPOS>ATOM
   1 C1            -0.2532     0.9612     1.1346 C.2     
   2 C2            -0.0250    -0.5040     0.8496 C.3     
   3 N3             0.7478     1.8852     1.1863 N.pl3   
   4 N4             1.3726    -0.6410     0.3975 N.am    
   5 C5             2.4131     0.1015     1.1247 C.3     
   6 C6             2.1656     1.6065     0.9658 C.3     
   7 N7            -1.1441     2.8302     1.5755 N.2     
   8 N8            -1.3704     1.5775     1.3742 N.2     
   9 C9             0.1470     3.0724     1.4729 C.2     
  10 C10            0.8152     4.3815     1.6407 C.ar    
  11 C11            2.1106     4.5737     1.1594 C.ar    
  12 C12            2.7283     5.7970     1.3191 C.ar    
  13 C13            2.0660     6.8319     1.9549 C.ar    
  14 C14            0.7814     6.6478     2.4344 C.ar    
  15 C15            0.1505     5.4310     2.2759 C.ar    
  16 C16            1.6871    -1.4253    -0.6524 C.2     
  17 O17            2.8276    -1.4497    -1.0729 O.2     
  18 C18            0.6466    -2.2549    -1.2921 C.ar    
  19 C19            0.5570    -2.3169    -2.6859 C.ar    
  20 C20           -0.4174    -3.0944    -3.2775 C.ar    
  21 C21           -1.3055    -3.8126    -2.4922 C.ar    
  22 C22           -1.2209    -3.7540    -1.1093 C.ar    
  23 C23           -0.2483    -2.9854    -0.5071 C.ar    
  24 F24           -2.2577    -4.5724    -3.0765 F       
  25 Cl25           1.6687    -1.4172    -3.6700 Cl      
  26 H26           -0.1818    -1.0882     1.7563 H       
  27 H27           -0.7042    -0.8409     0.0665 H       
  28 H28            2.3781    -0.1634     2.1814 H       
  29 H29            3.3922    -0.1513     0.7178 H       
  30 H30            2.4458     1.9173    -0.0406 H       
  31 H31            2.7622     2.1530     1.6963 H       
  32 H32            2.6288     3.7664     0.6632 H       
  33 H33            3.7311     5.9469     0.9473 H       
  34 H34            2.5539     7.7875     2.0778 H       
  35 H35            0.2698     7.4595     2.9302 H       
  36 H36           -0.8539     5.2898     2.6467 H       
  37 H37           -0.4884    -3.1432    -4.3540 H       
  38 H38           -1.9162    -4.3153    -0.5028 H       
  39 H39           -0.1808    -2.9448     0.5700 H       
@<TRIPOS>BOND
   1    1    2 1
   2    1    3 1
   3    1    8 2
   4    2    4 1
   5    2   26 1
   6    2   27 1
   7    3    6 1
   8    3    9 1
   9    4    5 1
  10    4   16 am
  11    5    6 1
  12    5   28 1
  13    5   29 1
  14    6   30 1
  15    6   31 1
  16    7    8 1
  17    7    9 2
  18    9   10 1
  19   10   11 ar
  20   10   15 ar
  21   11   12 ar
  22   11   32 1
  23   12   13 ar
  24   12   33 1
  25   13   14 ar
  26   13   34 1
  27   14   15 ar
  28   14   35 1
  29   15   36 1
  30   16   17 2
  31   16   18 1
  32   18   19 ar
  33   18   23 ar
  34   19   20 ar
  35   19   25 1
  36   20   21 ar
  37   20   37 1
  38   21   22 ar
  39   21   24 1
  40   22   23 ar
  41   22   38 1
  42   23   39 1

#	End of record

