#	Name: ASD01180230
#	Creating user name:	WinNT
#	Creation time:	15. 06. 2019 19:07

#	Modifying user name:	WinNT
#	Modification time:	15. 06. 2019 19:07

#	Program:	/corina/corina34_cracker 3.40 0067  02.08.2006

@<TRIPOS>MOLECULE
ASD01180230
  54   56    0    0    0
SMALL
NO_CHARGES


@<TRIPOS>ATOM
   1 C1            -1.7712     0.8609     0.8059 C.2     
   2 C2            -1.4425    -0.6080     0.7346 C.3     
   3 C3             0.0386    -0.7832     0.3928 C.3     
   4 O4            -0.9093     1.6834     0.6042 O.2     
   5 O5            -3.0227     1.2557     1.0882 O.3     
   6 C6             1.6135    -2.6076     0.0345 C.2     
   7 C7             1.9360    -4.0487    -0.0355 C.ar    
   8 C8             3.2362    -4.4736    -0.3347 C.ar    
   9 C9             3.4858    -5.8334    -0.3876 C.ar    
  10 C10            2.4529    -6.7214    -0.1456 C.ar    
  11 N11            1.2372    -6.2921     0.1340 N.ar    
  12 C12            0.9512    -5.0083     0.2011 C.ar    
  13 O13            2.4805    -1.7802    -0.1685 O.2     
  14 N14            0.3581    -2.2113     0.3234 N.am    
  15 C15            2.7207    -8.2033    -0.2029 C.3     
  16 C16            2.2853    -8.8514     1.1129 C.3     
  17 O17            1.9845    -8.7790    -1.2840 O.3     
  18 C18            3.4583   -12.2807    -2.9005 C.ar    
  19 C19            4.0600   -11.7247    -1.7729 C.ar    
  20 C20            3.5653   -10.5552    -1.2350 C.ar    
  21 C21            2.4695    -9.9313    -1.8159 C.ar    
  22 C22            1.8681   -10.4828    -2.9391 C.ar    
  23 C23            2.3581   -11.6523    -3.4813 C.ar    
  24 C24            3.9919   -13.5354    -3.4853 C.ar    
  25 C25            3.3912   -14.0924    -4.6126 C.ar    
  26 C26            3.8918   -15.2598    -5.1524 C.ar    
  27 C27            4.9876   -15.8769    -4.5764 C.ar    
  28 C28            5.5878   -15.3285    -3.4573 C.ar    
  29 C29            5.0991   -14.1583    -2.9126 C.ar    
  30 C30            5.5293   -17.1518    -5.1700 C.3     
  31 F31            6.5000   -16.8439    -6.1292 F       
  32 F32            6.1031   -17.9301    -4.1590 F       
  33 F33            4.4876   -17.8649    -5.7730 F       
  34 H34           -1.6507    -1.0742     1.6976 H       
  35 H35           -2.0515    -1.0796    -0.0366 H       
  36 H36            0.2468    -0.3171    -0.5702 H       
  37 H37            0.6476    -0.3117     1.1640 H       
  38 H38           -3.1852     2.2083     1.1231 H       
  39 H39            4.0239    -3.7582    -0.5197 H       
  40 H40            4.4765    -6.1978    -0.6158 H       
  41 H41           -0.0553    -4.6956     0.4371 H       
  42 H42           -0.3338    -2.8715     0.4854 H       
  43 H43            3.7861    -8.3743    -0.3571 H       
  44 H44            2.4790    -9.9233     1.0715 H       
  45 H45            2.8468    -8.4123     1.9375 H       
  46 H46            1.2199    -8.6805     1.2670 H       
  47 H47            4.9124   -12.2096    -1.3206 H       
  48 H48            4.0311   -10.1239    -0.3613 H       
  49 H49            1.0154    -9.9956    -3.3885 H       
  50 H50            1.8900   -12.0806    -4.3553 H       
  51 H51            2.5354   -13.6116    -5.0629 H       
  52 H52            3.4268   -15.6926    -6.0258 H       
  53 H53            6.4431   -15.8145    -3.0117 H       
  54 H54            5.5715   -13.7284    -2.0417 H       
@<TRIPOS>BOND
   1    1    2 1
   2    1    4 2
   3    1    5 1
   4    2    3 1
   5    2   34 1
   6    2   35 1
   7    3   14 1
   8    3   36 1
   9    3   37 1
  10    5   38 1
  11    6    7 1
  12    6   13 2
  13    6   14 am
  14    7    8 ar
  15    7   12 ar
  16    8    9 ar
  17    8   39 1
  18    9   10 ar
  19    9   40 1
  20   10   11 ar
  21   10   15 1
  22   11   12 ar
  23   12   41 1
  24   14   42 1
  25   15   16 1
  26   15   17 1
  27   15   43 1
  28   16   44 1
  29   16   45 1
  30   16   46 1
  31   17   21 1
  32   18   19 ar
  33   18   23 ar
  34   18   24 1
  35   19   20 ar
  36   19   47 1
  37   20   21 ar
  38   20   48 1
  39   21   22 ar
  40   22   23 ar
  41   22   49 1
  42   23   50 1
  43   24   25 ar
  44   24   29 ar
  45   25   26 ar
  46   25   51 1
  47   26   27 ar
  48   26   52 1
  49   27   28 ar
  50   27   30 1
  51   28   29 ar
  52   28   53 1
  53   29   54 1
  54   30   31 1
  55   30   32 1
  56   30   33 1

#	End of record

