#	Name: ASD08170341
#	Creating user name:	WinNT
#	Creation time:	15. 06. 2019 21:17

#	Modifying user name:	WinNT
#	Modification time:	15. 06. 2019 21:17

#	Program:	/corina/corina34_cracker 3.40 0067  02.08.2006

@<TRIPOS>MOLECULE
ASD08170341
  67   70    0    0    0
SMALL
NO_CHARGES


@<TRIPOS>ATOM
   1 C1            -0.0167     1.3782     0.0096 C.ar    
   2 C2             0.0021    -0.0041     0.0020 C.ar    
   3 C3             1.2076    -0.6815    -0.0127 C.ar    
   4 C4             2.3963     0.0219    -0.0199 C.ar    
   5 C5             2.3802     1.4093    -0.0127 C.ar    
   6 C6             1.1697     2.0864     0.0021 C.ar    
   7 C7             1.2243    -2.1884    -0.0205 C.3     
   8 C8             1.2166    -2.6835    -1.4438 C.2     
   9 N9             1.2290    -4.0072    -1.6969 N.am    
  10 C10            1.2219    -4.4642    -3.0104 C.2     
  11 S11            1.2357    -6.1069    -3.4962 S.3     
  12 C12            1.2142    -5.5877    -5.1819 C.2     
  13 N13            1.1996    -4.2927    -5.1953 N.2     
  14 N14            1.1980    -3.7162    -4.0720 N.2     
  15 O15            1.1992    -1.8908    -2.3615 O.2     
  16 O16            3.5484     2.1036    -0.0193 O.3     
  17 C17            1.2134    -6.4891    -6.3896 C.3     
  18 C18            2.6555    -6.7776    -6.8117 C.3     
  19 C19            2.6548    -7.6927    -8.0378 C.3     
  20 C20            4.0968    -7.9811    -8.4598 C.3     
  21 C21            4.0961    -8.8825    -9.6675 C.2     
  22 N22            4.0807    -8.4920   -10.9012 N.2     
  23 S23            4.1230   -10.5942    -9.6366 S.3     
  24 C24            4.1036   -10.6205   -11.3484 C.2     
  25 N25            4.0837    -9.4006   -11.7799 N.2     
  26 C26            4.1137   -11.8575   -12.2091 C.3     
  27 C27            5.5376   -12.2469   -12.5123 C.2     
  28 O28            6.4500   -11.5879   -12.0748 O.2     
  29 C29            5.8228   -13.4587   -13.3616 C.3     
  30 C30            7.3127   -13.6269   -13.5126 C.ar    
  31 C31            8.0176   -14.3873   -12.5993 C.ar    
  32 C32            7.9723   -13.0250   -14.5680 C.ar    
  33 C33            9.3395   -13.1775   -14.7093 C.ar    
  34 C34           10.0495   -13.9319   -13.7958 C.ar    
  35 C35            9.3890   -14.5417   -12.7389 C.ar    
  36 O36           10.0854   -15.2842   -11.8385 O.3     
  37 C37           11.4956   -15.3946   -12.0411 C.3     
  38 C38            3.4557     3.5296    -0.0113 C.3     
  39 H39           -0.9595     1.9050     0.0170 H       
  40 H40           -0.9263    -0.5558     0.0080 H       
  41 H41            3.3375    -0.5076    -0.0307 H       
  42 H42            1.1545     3.1663     0.0073 H       
  43 H43            2.1231    -2.5443     0.4832 H       
  44 H44            0.3433    -2.5642     0.4998 H       
  45 H45            1.2430    -4.6412    -0.9629 H       
  46 H46            0.7126    -7.4255    -6.1438 H       
  47 H47            0.6863    -5.9992    -7.2083 H       
  48 H48            3.1563    -5.8412    -7.0575 H       
  49 H49            3.1826    -7.2675    -5.9929 H       
  50 H50            2.1539    -8.6291    -7.7920 H       
  51 H51            2.1277    -7.2028    -8.8565 H       
  52 H52            4.5977    -7.0447    -8.7056 H       
  53 H53            4.6239    -8.4711    -7.6411 H       
  54 H54            3.6191   -12.6722   -11.6801 H       
  55 H55            3.5857   -11.6560   -13.1411 H       
  56 H56            5.4038   -14.3442   -12.8837 H       
  57 H57            5.3705   -13.3280   -14.3447 H       
  58 H58            7.5013   -14.8607   -11.7773 H       
  59 H59            7.4188   -12.4350   -15.2835 H       
  60 H60            9.8524   -12.7065   -15.5348 H       
  61 H61           11.1172   -14.0507   -13.9066 H       
  62 H62           11.6886   -15.8535   -13.0108 H       
  63 H63           11.9456   -14.4022   -12.0128 H       
  64 H64           11.9285   -16.0123   -11.2542 H       
  65 H65            2.9117     3.8632    -0.8950 H       
  66 H66            2.9270     3.8543     0.8849 H       
  67 H67            4.4575     3.9589    -0.0178 H       
@<TRIPOS>BOND
   1    1    2 ar
   2    1    6 ar
   3    1   39 1
   4    2    3 ar
   5    2   40 1
   6    3    4 ar
   7    3    7 1
   8    4    5 ar
   9    4   41 1
  10    5    6 ar
  11    5   16 1
  12    6   42 1
  13    7    8 1
  14    7   43 1
  15    7   44 1
  16    8    9 am
  17    8   15 2
  18    9   10 1
  19    9   45 1
  20   10   11 1
  21   10   14 2
  22   11   12 1
  23   12   13 2
  24   12   17 1
  25   13   14 1
  26   16   38 1
  27   17   18 1
  28   17   46 1
  29   17   47 1
  30   18   19 1
  31   18   48 1
  32   18   49 1
  33   19   20 1
  34   19   50 1
  35   19   51 1
  36   20   21 1
  37   20   52 1
  38   20   53 1
  39   21   22 2
  40   21   23 1
  41   22   25 1
  42   23   24 1
  43   24   25 2
  44   24   26 1
  45   26   27 1
  46   26   54 1
  47   26   55 1
  48   27   28 2
  49   27   29 1
  50   29   30 1
  51   29   56 1
  52   29   57 1
  53   30   31 ar
  54   30   32 ar
  55   31   35 ar
  56   31   58 1
  57   32   33 ar
  58   32   59 1
  59   33   34 ar
  60   33   60 1
  61   34   35 ar
  62   34   61 1
  63   35   36 1
  64   36   37 1
  65   37   62 1
  66   37   63 1
  67   37   64 1
  68   38   65 1
  69   38   66 1
  70   38   67 1

#	End of record

