#	Name: ASD00311057
#	Creating user name:	WinNT
#	Creation time:	15. 06. 2019 18:34

#	Modifying user name:	WinNT
#	Modification time:	15. 06. 2019 18:34

#	Program:	/corina/corina34_cracker 3.40 0067  02.08.2006

@<TRIPOS>MOLECULE
ASD00311057
  37   40    0    0    0
SMALL
NO_CHARGES


@<TRIPOS>ATOM
   1 C1            -0.0167     1.3775     0.0096 C.2     
   2 C2             0.0021    -0.0041     0.0020 C.2     
   3 C3             1.2586    -0.6767    -0.0136 C.2     
   4 C4             2.4315     0.0671    -0.0208 C.2     
   5 C5             2.3575     1.4748    -0.0125 C.2     
   6 N6             1.1650     2.0900     0.0022 N.am    
   7 C7            -1.3435    -0.5754     0.0118 C.2     
   8 C8            -2.3233     0.3267     0.0260 C.2     
   9 S9            -1.6791     1.9565     0.0358 S.3     
  10 O10            3.3825     2.1369    -0.0187 O.2     
  11 C11           -1.5961    -2.0354     0.0059 C.ar    
  12 C12           -2.2071    -2.6446     1.1015 C.ar    
  13 C13           -2.4401    -4.0046     1.0900 C.ar    
  14 C14           -2.0689    -4.7635    -0.0055 C.ar    
  15 C15           -1.4621    -4.1650    -1.0952 C.ar    
  16 C16           -1.2290    -2.8049    -1.0977 C.ar    
  17 C17            3.7477    -0.6124    -0.0365 C.ar    
  18 C18            4.5909    -0.4743    -1.1359 C.ar    
  19 C19            5.8277    -1.1170    -1.1429 C.ar    
  20 C20            6.2130    -1.8948    -0.0479 C.ar    
  21 C21            5.3716    -2.0268     1.0382 C.ar    
  22 C22            4.1473    -1.3875     1.0530 C.ar    
  23 C23            6.7011    -0.9809    -2.2696 C.1     
  24 N24            7.3939    -0.8730    -3.1634 N.1     
  25 O25            1.3084    -2.0292    -0.0209 O.3     
  26 Cl26          -4.0154    -0.0609     0.0401 Cl      
  27 H27            1.1328     3.0595     0.0073 H       
  28 H28           -2.4969    -2.0532     1.9574 H       
  29 H29           -2.9129    -4.4775     1.9380 H       
  30 H30           -2.2534    -5.8276    -0.0100 H       
  31 H31           -1.1742    -4.7627    -1.9474 H       
  32 H32           -0.7592    -2.3380    -1.9508 H       
  33 H33            4.2877     0.1278    -1.9797 H       
  34 H34            7.1708    -2.3938    -0.0516 H       
  35 H35            5.6736    -2.6293     1.8821 H       
  36 H36            3.4956    -1.4914     1.9079 H       
  37 H37            2.2056    -2.3897    -0.0314 H       
@<TRIPOS>BOND
   1    1    2 2
   2    1    6 1
   3    1    9 1
   4    2    3 1
   5    2    7 1
   6    3    4 2
   7    3   25 1
   8    4    5 1
   9    4   17 1
  10    5    6 am
  11    5   10 2
  12    6   27 1
  13    7    8 2
  14    7   11 1
  15    8    9 1
  16    8   26 1
  17   11   12 ar
  18   11   16 ar
  19   12   13 ar
  20   12   28 1
  21   13   14 ar
  22   13   29 1
  23   14   15 ar
  24   14   30 1
  25   15   16 ar
  26   15   31 1
  27   16   32 1
  28   17   18 ar
  29   17   22 ar
  30   18   19 ar
  31   18   33 1
  32   19   20 ar
  33   19   23 1
  34   20   21 ar
  35   20   34 1
  36   21   22 ar
  37   21   35 1
  38   22   36 1
  39   23   24 3
  40   25   37 1

#	End of record

