#	Name: ASD06120001
#	Creating user name:	WinNT
#	Creation time:	15. 06. 2019 21:05

#	Modifying user name:	WinNT
#	Modification time:	15. 06. 2019 21:05

#	Program:	/corina/corina34_cracker 3.40 0067  02.08.2006

@<TRIPOS>MOLECULE
ASD06120001
  54   56    0    0    0
SMALL
NO_CHARGES


@<TRIPOS>ATOM
   1 C1            -0.0162     1.3460     0.0094 C.2     
   2 C2             0.0021    -0.0041     0.0020 C.2     
   3 N3             2.3881     0.0441    -0.0205 N.am    
   4 N4             1.1632     2.0398     0.0019 N.am    
   5 C5             1.2481    -0.6760    -0.0135 C.2     
   6 O6             1.2900    -1.8931    -0.0200 O.2     
   7 C7             2.3408     1.3893    -0.0128 C.2     
   8 O8             3.3769     2.0254    -0.0189 O.2     
   9 C9             1.1434     3.5046     0.0095 C.3     
  10 C10            1.7614     4.0520     1.3213 C.3     
  11 O11            0.7771     4.1319     2.3542 O.3     
  12 C12            2.2300     5.4644     0.8943 C.3     
  13 O13            1.2643     6.4474     1.2726 O.3     
  14 C14            2.3393     5.3782    -0.6404 C.3     
  15 C15            3.7669     5.7093    -1.0797 C.3     
  16 O16            3.8308     5.7411    -2.5069 O.3     
  17 O17            4.8617     6.1407    -4.8923 O.3     
  18 O18            5.7646     7.4104    -2.8404 O.co2   
  19 P19            5.1851     6.0599    -3.3172 P.3     
  20 O20            6.2154     4.9377    -3.0599 O.co2   
  21 O21            6.3682     8.0265    -5.7932 O.co2   
  22 O22            6.7137     5.6679    -6.6196 O.co2   
  23 P23            5.6610     6.7057    -6.1705 P.3     
  24 O24            4.6263     6.9759    -7.3741 O.3     
  25 O25            2.0122     4.0301    -1.0170 O.3     
  26 C26            5.0117     7.5777    -8.6115 C.3     
  27 C27            5.8431     7.0580   -10.8002 C.3     
  28 C28            3.8268     8.3533    -9.1930 C.3     
  29 O29            2.7175     7.4697    -9.3683 O.3     
  30 C30            4.6915     7.8127   -11.4696 C.3     
  31 O31            3.6052     6.9148   -11.7053 O.3     
  32 C32            4.2290     8.9449   -10.5474 C.3     
  33 O33            5.2958     9.8778   -10.3637 O.3     
  34 O34            5.4113     6.5604    -9.5321 O.3     
  35 H35           -0.9573     1.8758     0.0168 H       
  36 H36           -0.9215    -0.5639     0.0082 H       
  37 H37            3.2456    -0.4090    -0.0308 H       
  38 H38            0.1261     3.8742    -0.1191 H       
  39 H39            2.6062     3.4405     1.6381 H       
  40 H40            1.1156     4.4690     3.1949 H       
  41 H41            3.1999     5.6941     1.3356 H       
  42 H42            1.1127     6.5033     2.2260 H       
  43 H43            1.6388     6.0745    -1.1015 H       
  44 H44            4.0531     6.6828    -0.6814 H       
  45 H45            4.4491     4.9475    -0.7023 H       
  46 H46            5.8440     8.2603    -8.4400 H       
  47 H47            6.1480     6.2245   -11.4331 H       
  48 H48            6.6863     7.7338   -10.6576 H       
  49 H49            3.5480     9.1572    -8.5117 H       
  50 H50            2.4122     7.0545    -8.5501 H       
  51 H51            5.0319     8.2306   -12.4170 H       
  52 H52            3.8286     6.1690   -12.2789 H       
  53 H53            3.3727     9.4513   -10.9929 H       
  54 H54            5.6060    10.2869   -11.1832 H       
@<TRIPOS>BOND
   1    1    2 2
   2    1    4 1
   3    1   35 1
   4    2    5 1
   5    2   36 1
   6    3    7 am
   7    3    5 am
   8    3   37 1
   9    4    7 am
  10    4    9 1
  11    5    6 2
  12    7    8 2
  13    9   10 1
  14    9   25 1
  15    9   38 1
  16   10   11 1
  17   10   12 1
  18   10   39 1
  19   11   40 1
  20   12   13 1
  21   12   14 1
  22   12   41 1
  23   13   42 1
  24   14   15 1
  25   14   25 1
  26   14   43 1
  27   15   16 1
  28   15   44 1
  29   15   45 1
  30   16   19 1
  31   17   23 1
  32   17   19 1
  33   18   19 ar
  34   19   20 ar
  35   21   23 ar
  36   22   23 ar
  37   23   24 1
  38   24   26 1
  39   26   28 1
  40   26   34 1
  41   26   46 1
  42   27   30 1
  43   27   34 1
  44   27   47 1
  45   27   48 1
  46   28   29 1
  47   28   32 1
  48   28   49 1
  49   29   50 1
  50   30   32 1
  51   30   31 1
  52   30   51 1
  53   31   52 1
  54   32   33 1
  55   32   53 1
  56   33   54 1

#	End of record

