#	Name: ASD04882411
#	Creating user name:	WinNT
#	Creation time:	15. 06. 2019 20:54

#	Modifying user name:	WinNT
#	Modification time:	15. 06. 2019 20:54

#	Program:	/corina/corina34_cracker 3.40 0067  02.08.2006

@<TRIPOS>MOLECULE
ASD04882411
  82   87    0    0    0
SMALL
NO_CHARGES


@<TRIPOS>ATOM
   1 C1            -0.0215     1.4012    -0.0092 C.ar    
   2 C2            -0.0115     0.0036    -0.0053 C.ar    
   3 C3            -1.2093    -0.7019    -0.0165 C.ar    
   4 C4            -2.4096    -0.0269    -0.0320 C.ar    
   5 C5            -2.4267     1.3707    -0.0364 C.ar    
   6 C6            -1.2239     2.0825    -0.0185 C.ar    
   7 N7             1.1998    -0.6830     0.0094 N.3     
   8 C8             1.3071    -1.5363     1.2011 C.3     
   9 C9             1.3723    -1.4731    -1.2176 C.3     
  10 C10            2.7461    -2.1473    -1.1982 C.3     
  11 N11            2.8534    -3.0005    -0.0065 N.3     
  12 C12            2.6809    -2.2105     1.2206 C.3     
  13 C13           -3.7126     2.0937    -0.0540 C.2     
  14 O14           -3.7265     3.3095    -0.0578 O.2     
  15 N15           -4.8719     1.4064    -0.0657 N.am    
  16 C16           -6.1489     2.1243    -0.0830 C.3     
  17 C17           -7.3003     1.1168    -0.0937 C.3     
  18 C18           -8.6338     1.8666    -0.1118 C.3     
  19 N19            1.1866     2.1110     0.0021 N.am    
  20 C20            1.2296     3.3600     0.5068 C.2     
  21 O21            0.2069     3.8985     0.8853 O.2     
  22 C22            2.5162     4.0733     0.5999 C.2     
  23 N23            3.7329     3.5991     0.2178 N.2     
  24 C24            4.6245     4.5142     0.4546 C.2     
  25 O25            4.0246     5.5882     0.9871 O.3     
  26 C26            2.7098     5.3324     1.0790 C.2     
  27 N27           -9.7393     0.8992    -0.1220 N.3     
  28 C28          -11.0286     1.5702     0.0989 C.3     
  29 C29            6.1000     4.3876     0.1756 C.3     
  30 C30            6.7251     5.3953    -0.7913 C.3     
  31 C31            7.0167     5.4910     0.7076 C.3     
  32 C32            4.0684    -3.6893     0.0082 C.ar    
  33 C33            4.0812    -5.0781     0.0122 C.ar    
  34 C34            5.2670    -2.9867     0.0133 C.ar    
  35 C35            6.4664    -3.6707     0.0279 C.ar    
  36 C36            6.4755    -5.0537     0.0371 C.ar    
  37 C37            5.2845    -5.7561     0.0268 C.ar    
  38 C38            2.7837    -5.8445     0.0010 C.3     
  39 C39           -9.7586     0.1343    -1.3774 C.3     
  40 C40          -10.8858    -0.9001    -1.3212 C.3     
  41 O41          -12.1265    -0.2328    -1.0747 O.3     
  42 C42          -12.1432     0.5214     0.1403 C.3     
  43 H43           -1.1986    -1.7819    -0.0134 H       
  44 H44           -3.3385    -0.5778    -0.0410 H       
  45 H45           -1.2340     3.1624    -0.0215 H       
  46 H46            1.1885    -0.9265     2.0968 H       
  47 H47            0.5283    -2.2984     1.1740 H       
  48 H48            0.5942    -2.2345    -1.2722 H       
  49 H49            1.3013    -0.8173    -2.0854 H       
  50 H50            2.8647    -2.7571    -2.0939 H       
  51 H51            3.5249    -1.3851    -1.1711 H       
  52 H52            3.4590    -1.4490     1.2752 H       
  53 H53            2.7519    -2.8663     2.0883 H       
  54 H54           -4.8608     0.4365    -0.0626 H       
  55 H55           -6.2244     2.7530     0.8042 H       
  56 H56           -6.2032     2.7476    -0.9756 H       
  57 H57           -7.2248     0.4881    -0.9809 H       
  58 H58           -7.2460     0.4936     0.7989 H       
  59 H59           -8.7093     2.4952     0.7754 H       
  60 H60           -8.6882     2.4898    -1.0044 H       
  61 H61            1.9919     1.7035    -0.3534 H       
  62 H62            1.9512     5.9967     1.4659 H       
  63 H63          -11.0008     2.1093     1.0459 H       
  64 H64          -11.2183     2.2710    -0.7141 H       
  65 H65            6.4908     3.3702     0.1643 H       
  66 H66            7.5274     5.0408    -1.4384 H       
  67 H67            6.0691     6.1497    -1.2255 H       
  68 H68            6.5526     6.3085     1.2595 H       
  69 H69            8.0109     5.1996     1.0466 H       
  70 H70            5.2606    -1.9067     0.0054 H       
  71 H71            7.3985    -3.1252     0.0318 H       
  72 H72            7.4150    -5.5863     0.0479 H       
  73 H73            5.2951    -6.8360     0.0341 H       
  74 H74            2.4814    -6.0321    -1.0293 H       
  75 H75            2.9181    -6.7941     0.5188 H       
  76 H76            2.0130    -5.2615     0.5054 H       
  77 H77           -9.9279     0.8122    -2.2140 H       
  78 H78           -8.8036    -0.3747    -1.5081 H       
  79 H79          -10.9405    -1.4307    -2.2717 H       
  80 H80          -10.6886    -1.6101    -0.5180 H       
  81 H81          -11.9825    -0.1473     0.9860 H       
  82 H82          -13.1072     1.0188     0.2468 H       
@<TRIPOS>BOND
   1    1    2 ar
   2    1   19 1
   3    1    6 ar
   4    2    3 ar
   5    2    7 1
   6    3    4 ar
   7    3   43 1
   8    4    5 ar
   9    4   44 1
  10    5    6 ar
  11    5   13 1
  12    6   45 1
  13    7    8 1
  14    7    9 1
  15    8   12 1
  16    8   46 1
  17    8   47 1
  18    9   10 1
  19    9   48 1
  20    9   49 1
  21   10   11 1
  22   10   50 1
  23   10   51 1
  24   11   12 1
  25   11   32 1
  26   12   52 1
  27   12   53 1
  28   13   14 2
  29   13   15 am
  30   15   16 1
  31   15   54 1
  32   16   17 1
  33   16   55 1
  34   16   56 1
  35   17   18 1
  36   17   57 1
  37   17   58 1
  38   18   27 1
  39   18   59 1
  40   18   60 1
  41   19   20 am
  42   19   61 1
  43   20   21 2
  44   20   22 1
  45   22   23 1
  46   22   26 2
  47   23   24 2
  48   24   25 1
  49   24   29 1
  50   25   26 1
  51   26   62 1
  52   27   28 1
  53   27   39 1
  54   28   42 1
  55   28   63 1
  56   28   64 1
  57   29   30 1
  58   29   31 1
  59   29   65 1
  60   30   31 1
  61   30   66 1
  62   30   67 1
  63   31   68 1
  64   31   69 1
  65   32   33 ar
  66   32   34 ar
  67   33   38 1
  68   33   37 ar
  69   34   35 ar
  70   34   70 1
  71   35   36 ar
  72   35   71 1
  73   36   37 ar
  74   36   72 1
  75   37   73 1
  76   38   74 1
  77   38   75 1
  78   38   76 1
  79   39   40 1
  80   39   77 1
  81   39   78 1
  82   40   41 1
  83   40   79 1
  84   40   80 1
  85   41   42 1
  86   42   81 1
  87   42   82 1

#	End of record

