#	Name: ASD03092249
#	Creating user name:	WinNT
#	Creation time:	15. 06. 2019 20:32

#	Modifying user name:	WinNT
#	Modification time:	15. 06. 2019 20:32

#	Program:	/corina/corina34_cracker 3.40 0067  02.08.2006

@<TRIPOS>MOLECULE
ASD03092249
  55   57    0    0    0
SMALL
NO_CHARGES


@<TRIPOS>ATOM
   1 C1            -0.0178     1.4608     0.0101 C.3     
   2 N2             0.0021    -0.0041     0.0020 N.am    
   3 S3             0.7421    -0.8289     1.2326 S.o2    
   4 O4             0.5613    -2.2107     0.9551 O.2     
   5 O5             2.0199    -0.2314     1.4046 O.2     
   6 C6            -0.1659    -0.4941     2.7050 C.ar    
   7 C7             0.1729     0.5886     3.4949 C.ar    
   8 C8            -0.5395     0.8513     4.6500 C.ar    
   9 C9            -1.5910     0.0316     5.0151 C.ar    
  10 C10           -1.9304    -1.0506     4.2247 C.ar    
  11 C11           -1.2208    -1.3107     3.0673 C.ar    
  12 C12           -2.3670     0.3174     6.2749 C.3     
  13 H13           -2.3613     1.3561     6.6051 H       
  14 C14           -3.6403    -0.4948     6.5199 C.3     
  15 H15           -3.9167    -1.2359     5.7699 H       
  16 N16           -4.7585     0.1831     7.1804 N.am    
  17 C17           -6.0144     0.0152     6.7211 C.2     
  18 O18           -6.2195    -0.6992     5.7585 O.2     
  19 C19           -7.1387     0.6969     7.3852 C.ar    
  20 C20           -6.9054     1.5235     8.4888 C.ar    
  21 C21           -7.9589     2.1587     9.1066 C.ar    
  22 Cl22          -7.6675     3.1849    10.4762 Cl      
  23 C23           -9.2574     1.9812     8.6364 C.ar    
  24 O24          -10.2908     2.6110     9.2510 O.3     
  25 C25          -11.5973     2.3855     8.7178 C.3     
  26 C26           -9.4990     1.1638     7.5423 C.ar    
  27 C27           -8.4473     0.5240     6.9094 C.ar    
  28 O28           -8.6816    -0.2715     5.8356 O.3     
  29 C29          -10.0388    -0.4003     5.4074 C.3     
  30 C30           -2.3860    -0.7669     7.3542 C.3     
  31 C31           -1.6158    -2.0583     7.0718 C.3     
  32 C32           -2.3962    -0.3101     8.8144 C.3     
  33 H33            1.0048     1.8381     0.0023 H       
  34 H34           -0.5450     1.8219    -0.8730 H       
  35 H35           -0.5280     1.8123     0.9069 H       
  36 H36           -0.4183    -0.4908    -0.7241 H       
  37 H37            0.9945     1.2290     3.2097 H       
  38 H38           -0.2743     1.6967     5.2675 H       
  39 H39           -2.7518    -1.6912     4.5101 H       
  40 H40           -1.4883    -2.1540     2.4478 H       
  41 H41           -4.5949     0.7529     7.9482 H       
  42 H42           -5.8995     1.6631     8.8564 H       
  43 H43          -11.8314     1.3221     8.7672 H       
  44 H44          -12.3289     2.9460     9.2999 H       
  45 H45          -11.6282     2.7166     7.6798 H       
  46 H46          -10.5080     1.0294     7.1814 H       
  47 H47          -10.6372    -0.8178     6.2172 H       
  48 H48          -10.4288     0.5807     5.1359 H       
  49 H49          -10.0857    -1.0621     4.5426 H       
  50 H50           -0.5623    -1.8262     6.9153 H       
  51 H51           -1.7166    -2.7345     7.9208 H       
  52 H52           -2.0196    -2.5343     6.1783 H       
  53 H53           -3.2831     0.2960     8.9993 H       
  54 H54           -2.4094    -1.1824     9.4679 H       
  55 H55           -1.5032     0.2815     9.0162 H       
@<TRIPOS>BOND
   1    1    2 1
   2    1   33 1
   3    1   34 1
   4    1   35 1
   5    2    3 am
   6    2   36 1
   7    3    4 2
   8    3    5 2
   9    3    6 1
  10    6   11 ar
  11    6    7 ar
  12    7    8 ar
  13    7   37 1
  14    8    9 ar
  15    8   38 1
  16    9   10 ar
  17    9   12 1
  18   10   11 ar
  19   10   39 1
  20   11   40 1
  21   12   13 1
  22   12   30 1
  23   12   14 1
  24   14   15 1
  25   14   16 1
  26   14   30 1
  27   16   17 am
  28   16   41 1
  29   17   18 2
  30   17   19 1
  31   19   27 ar
  32   19   20 ar
  33   20   21 ar
  34   20   42 1
  35   21   22 1
  36   21   23 ar
  37   23   24 1
  38   23   26 ar
  39   24   25 1
  40   25   43 1
  41   25   44 1
  42   25   45 1
  43   26   27 ar
  44   26   46 1
  45   27   28 1
  46   28   29 1
  47   29   47 1
  48   29   48 1
  49   29   49 1
  50   30   31 1
  51   30   32 1
  52   31   50 1
  53   31   51 1
  54   31   52 1
  55   32   53 1
  56   32   54 1
  57   32   55 1

#	End of record

