#	Name: ASD04842005
#	Creating user name:	WinNT
#	Creation time:	15. 06. 2019 20:52

#	Modifying user name:	WinNT
#	Modification time:	15. 06. 2019 20:52

#	Program:	/corina/corina34_cracker 3.40 0067  02.08.2006

@<TRIPOS>MOLECULE
ASD04842005
  25   26    0    0    0
SMALL
NO_CHARGES


@<TRIPOS>ATOM
   1 N1            -0.0167     1.3775     0.0096 N.pl3   
   2 C2             0.0021    -0.0041     0.0020 C.2     
   3 C3             1.2926    -0.4317    -0.0126 C.2     
   4 C4             2.1260     0.7124    -0.0144 C.ar    
   5 C5             3.5162     0.8899    -0.0274 C.ar    
   6 C6             4.0401     2.1506    -0.0263 C.ar    
   7 C7             3.2067     3.2635    -0.0124 C.ar    
   8 C8             1.8373     3.1145     0.0010 C.ar    
   9 C9             1.2795     1.8377    -0.0003 C.ar    
  10 C10           -1.1829    -0.8721     0.0091 C.2     
  11 O11           -1.0512    -2.0806     0.0018 O.2     
  12 O12           -2.4169    -0.3284     0.0237 O.3     
  13 Cl13           0.8096     4.5135     0.0194 Cl      
  14 Cl14           5.7626     2.3661    -0.0418 Cl      
  15 C15            1.7531    -1.8666    -0.0242 C.3     
  16 C16            1.8935    -2.3375    -1.4489 C.2     
  17 O17            1.6451    -1.5852    -2.3611 O.2     
  18 O18            2.2946    -3.5928    -1.7043 O.3     
  19 H19           -0.8128     1.9316     0.0166 H       
  20 H20            4.1715     0.0315    -0.0378 H       
  21 H21            3.6371     4.2540    -0.0117 H       
  22 H22           -3.1660    -0.9399     0.0279 H       
  23 H23            2.7163    -1.9431     0.4803 H       
  24 H24            1.0216    -2.4872     0.4932 H       
  25 H25            2.3698    -3.8491    -2.6337 H       
@<TRIPOS>BOND
   1    1    2 1
   2    1    9 1
   3    1   19 1
   4    2    3 2
   5    2   10 1
   6    3    4 1
   7    3   15 1
   8    4    5 ar
   9    4    9 ar
  10    5    6 ar
  11    5   20 1
  12    6    7 ar
  13    6   14 1
  14    7    8 ar
  15    7   21 1
  16    8    9 ar
  17    8   13 1
  18   10   11 2
  19   10   12 1
  20   12   22 1
  21   15   16 1
  22   15   23 1
  23   15   24 1
  24   16   17 2
  25   16   18 1
  26   18   25 1

#	End of record

