#	Name: ASD01670022
#	Creating user name:	WinNT
#	Creation time:	15. 06. 2019 19:22

#	Modifying user name:	WinNT
#	Modification time:	15. 06. 2019 19:22

#	Program:	/corina/corina34_cracker 3.40 0067  02.08.2006

@<TRIPOS>MOLECULE
ASD01670022
  52   54    0    0    0
SMALL
NO_CHARGES


@<TRIPOS>ATOM
   1 C1            -0.6047     2.1112     0.4444 C.ar    
   2 C2            -0.8712     0.7541     0.5182 C.ar    
   3 C3             2.3633     9.2672    -4.9045 C.ar    
   4 C4             2.1717     6.9572    -5.5225 C.ar    
   5 C5             2.6061     9.5546    -6.2337 C.ar    
   6 C6             2.4220     7.3338    -6.8279 C.ar    
   7 C7             2.1392     7.9394    -4.5280 C.ar    
   8 C8             1.7334     1.6403     0.1446 C.ar    
   9 C9             0.6851     2.5586     0.2591 C.ar    
  10 C10            0.1554    -0.1685     0.4068 C.ar    
  11 C11            1.4642     0.2682     0.2194 C.ar    
  12 C12            1.8752     7.5831    -3.1144 C.2     
  13 C13            3.1150     2.1144    -0.0542 C.2     
  14 C14            1.4119    -1.9351    -0.1273 C.3     
  15 C15            0.5765     3.5285    -4.0693 C.3     
  16 C16           -1.7381     4.4667    -3.9998 C.3     
  17 C17            0.9660     4.0370     0.1793 C.3     
  18 C18           -0.3976     4.2912    -1.8987 C.3     
  19 C19            1.4006     5.9447    -1.3744 C.3     
  20 C20           -0.3326     4.5631    -3.4029 C.3     
  21 C21            0.9930     4.4726    -1.2871 C.3     
  22 N22            2.6276     8.5978    -7.1401 N.ar    
  23 N23            1.6617     6.2971    -2.7722 N.am    
  24 O24            3.8242     2.3395     0.9064 O.2     
  25 O25            1.8511     8.4503    -2.2636 O.2     
  26 O26            3.5913     2.2981    -1.3012 O.3     
  27 O27            0.1533    -1.5333     0.4454 O.3     
  28 O28            2.2811    -0.8188     0.1417 O.3     
  29 H29           -1.4130     2.8226     0.5281 H       
  30 H30           -1.8857     0.4134     0.6640 H       
  31 H31            2.3511    10.0556    -4.1665 H       
  32 H32            2.0034     5.9197    -5.2740 H       
  33 H33            2.7803    10.5772    -6.5344 H       
  34 H34            2.4494     6.5824    -7.6032 H       
  35 H35            1.7842    -2.8362     0.3599 H       
  36 H36            1.3111    -2.0928    -1.2011 H       
  37 H37            0.6228     3.7222    -5.1410 H       
  38 H38            1.5778     3.5971    -3.6441 H       
  39 H39            0.1766     2.5292    -3.8977 H       
  40 H40           -2.1380     3.4674    -3.8281 H       
  41 H41           -2.3857     5.2038    -3.5251 H       
  42 H42           -1.6918     4.6604    -5.0715 H       
  43 H43            0.1846     4.5843     0.7066 H       
  44 H44            1.9314     4.2487     0.6391 H       
  45 H45           -1.0932     4.9894    -1.4330 H       
  46 H46           -0.7391     3.2702    -1.7284 H       
  47 H47            0.5949     6.5683    -0.9869 H       
  48 H48            2.3023     6.1078    -0.7841 H       
  49 H49            0.0673     5.5624    -3.5746 H       
  50 H50            1.7127     3.8633    -1.8339 H       
  51 H51            1.6809     5.6049    -3.4514 H       
  52 H52            4.5031     2.6101    -1.3813 H       
@<TRIPOS>BOND
   1    1    2 ar
   2    1    9 ar
   3    1   29 1
   4    2   10 ar
   5    2   30 1
   6    3    5 ar
   7    3    7 ar
   8    3   31 1
   9    4    6 ar
  10    4    7 ar
  11    4   32 1
  12    5   22 ar
  13    5   33 1
  14    6   22 ar
  15    6   34 1
  16    7   12 1
  17    8    9 ar
  18    8   11 ar
  19    8   13 1
  20    9   17 1
  21   10   11 ar
  22   10   27 1
  23   11   28 1
  24   12   23 am
  25   12   25 2
  26   13   24 2
  27   13   26 1
  28   14   27 1
  29   14   28 1
  30   14   35 1
  31   14   36 1
  32   15   20 1
  33   15   37 1
  34   15   38 1
  35   15   39 1
  36   16   20 1
  37   16   40 1
  38   16   41 1
  39   16   42 1
  40   17   21 1
  41   17   43 1
  42   17   44 1
  43   18   20 1
  44   18   21 1
  45   18   45 1
  46   18   46 1
  47   19   21 1
  48   19   23 1
  49   19   47 1
  50   19   48 1
  51   20   49 1
  52   21   50 1
  53   23   51 1
  54   26   52 1

#	End of record

