#	Name: ASD01912856
#	Creating user name:	WinNT
#	Creation time:	15. 06. 2019 20:00

#	Modifying user name:	WinNT
#	Modification time:	15. 06. 2019 20:00

#	Program:	/corina/corina34_cracker 3.40 0067  02.08.2006

@<TRIPOS>MOLECULE
ASD01912856
  43   46    0    0    0
SMALL
NO_CHARGES


@<TRIPOS>ATOM
   1 C1            -0.0175     1.3661    -0.0400 C.2     
   2 N2             0.0021    -0.0041     0.0057 N.pl3   
   3 C3            -1.2012    -0.6912     0.0639 C.2     
   4 C4            -2.3620    -0.0487     0.0760 C.2     
   5 N5            -2.4358     1.3307     0.0312 N.am    
   6 C6            -1.3028     2.0662    -0.0204 C.2     
   7 C7             1.2997     1.7822    -0.0928 C.2     
   8 C8             2.0538     0.6101    -0.0755 C.2     
   9 N9             1.2242    -0.4047    -0.0168 N.2     
  10 O10           -1.3506     3.2825    -0.0603 O.2     
  11 C11           -3.6826     1.9657     0.0452 C.ar    
  12 C12            3.5578     0.5235    -0.1169 C.3     
  13 O13            4.1092     1.8405    -0.1776 O.3     
  14 C14            5.4638     1.9408    -0.2209 C.ar    
  15 C15            6.0665     3.1889    -0.2807 C.ar    
  16 C16            7.4437     3.2881    -0.3247 C.ar    
  17 C17            8.2212     2.1449    -0.3091 C.ar    
  18 C18            7.6229     0.8999    -0.2499 C.ar    
  19 C19            6.2463     0.7954    -0.1996 C.ar    
  20 C20           -4.0620     2.7286     1.1424 C.ar    
  21 C21           -4.5391     1.8386    -1.0395 C.ar    
  22 C22           -5.7739     2.4688    -1.0232 C.ar    
  23 C23           -6.1519     3.2252     0.0766 C.ar    
  24 C24           -5.2949     3.3559     1.1561 C.ar    
  25 F25           -5.6653     4.0926     2.2262 F       
  26 O26           -6.6137     2.3459    -2.0845 O.3     
  27 C27           -7.8698     3.0220    -1.9996 C.3     
  28 H28           -1.1932    -1.7705     0.0997 H       
  29 H29           -3.2768    -0.6210     0.1219 H       
  30 H30            1.6658     2.7973    -0.1379 H       
  31 H31            3.9175     0.0200     0.7804 H       
  32 H32            3.8652    -0.0400    -0.9978 H       
  33 H33            5.4596     4.0821    -0.2933 H       
  34 H34            7.9134     4.2595    -0.3717 H       
  35 H35            9.2977     2.2247    -0.3435 H       
  36 H36            8.2324     0.0083    -0.2386 H       
  37 H37            5.7794    -0.1773    -0.1533 H       
  38 H38           -3.3944     2.8317     1.9851 H       
  39 H39           -4.2439     1.2499    -1.8954 H       
  40 H40           -7.1139     3.7159     0.0890 H       
  41 H41           -7.6992     4.0923    -1.8835 H       
  42 H42           -8.4416     2.8418    -2.9099 H       
  43 H43           -8.4266     2.6475    -1.1407 H       
@<TRIPOS>BOND
   1    1    2 1
   2    1    7 2
   3    1    6 1
   4    2    3 1
   5    2    9 1
   6    3    4 2
   7    3   28 1
   8    4    5 1
   9    4   29 1
  10    5    6 am
  11    5   11 1
  12    6   10 2
  13    7    8 1
  14    7   30 1
  15    8    9 2
  16    8   12 1
  17   11   20 ar
  18   11   21 ar
  19   12   13 1
  20   12   31 1
  21   12   32 1
  22   13   14 1
  23   14   15 ar
  24   14   19 ar
  25   15   16 ar
  26   15   33 1
  27   16   17 ar
  28   16   34 1
  29   17   18 ar
  30   17   35 1
  31   18   19 ar
  32   18   36 1
  33   19   37 1
  34   20   24 ar
  35   20   38 1
  36   21   22 ar
  37   21   39 1
  38   22   23 ar
  39   22   26 1
  40   23   24 ar
  41   23   40 1
  42   24   25 1
  43   26   27 1
  44   27   41 1
  45   27   42 1
  46   27   43 1

#	End of record

