#	Name: ASD01916571
#	Creating user name:	WinNT
#	Creation time:	15. 06. 2019 20:07

#	Modifying user name:	WinNT
#	Modification time:	15. 06. 2019 20:07

#	Program:	/corina/corina34_cracker 3.40 0067  02.08.2006

@<TRIPOS>MOLECULE
ASD01916571
  44   48    0    0    0
SMALL
NO_CHARGES


@<TRIPOS>ATOM
   1 C1            -0.0171     1.4099     0.0098 C.ar    
   2 C2             0.0021    -0.0041     0.0020 C.ar    
   3 C3            -1.1917    -0.7255     0.0253 C.ar    
   4 C4            -2.3845    -0.0640     0.0500 C.ar    
   5 C5            -2.4220     1.3387     0.0502 C.ar    
   6 C6            -1.2408     2.0764     0.0311 C.ar    
   7 N7             1.1596     2.0778     0.0021 N.2     
   8 C8             2.3170     1.4702    -0.0242 C.2     
   9 N9             2.4209     0.1159    -0.0850 N.am    
  10 C10            1.3111    -0.6650    -0.0377 C.2     
  11 C11           -3.6833     2.0163     0.0701 C.1     
  12 O12            1.3999    -1.8792    -0.0280 O.2     
  13 C13           -4.7175     2.5718     0.0864 C.1     
  14 C14           -5.9788     3.2494     0.1063 C.ar    
  15 C15            3.5459     2.3584     0.0434 C.3     
  16 N16            4.6840     1.6240    -0.5004 N.3     
  17 C17            4.8186     0.3511     0.2656 C.3     
  18 C18            3.7136    -0.5734    -0.2287 C.3     
  19 N19           -6.0141     4.5785     0.1065 N.ar    
  20 C20           -7.1538     5.2381     0.1240 C.ar    
  21 C21           -8.3634     4.5673     0.1430 C.ar    
  22 C22           -8.3737     3.1790     0.1436 C.ar    
  23 C23           -7.1638     2.5091     0.1196 C.ar    
  24 C24            5.9897     2.2837    -0.3130 C.3     
  25 C25            7.0131     1.1291    -0.4553 C.3     
  26 C26            6.2213    -0.1527    -0.1016 C.3     
  27 H27           -1.1716    -1.8053     0.0236 H       
  28 H28           -3.3075    -0.6245     0.0691 H       
  29 H29           -1.2729     3.1559     0.0326 H       
  30 H30            3.3779     3.2605    -0.5449 H       
  31 H31            3.7461     2.6274     1.0806 H       
  32 H32            4.7269     0.5280     1.3373 H       
  33 H33            3.7085    -1.4872     0.3654 H       
  34 H34            3.8831    -0.8175    -1.2774 H       
  35 H35           -7.1439     6.3181     0.1239 H       
  36 H36           -9.2918     5.1189     0.1577 H       
  37 H37           -9.3060     2.6340     0.1582 H       
  38 H38           -7.1353     1.4295     0.1193 H       
  39 H39            6.1523     3.0363    -1.0845 H       
  40 H40            6.0533     2.7312     0.6789 H       
  41 H41            7.3837     1.0752    -1.4790 H       
  42 H42            7.8401     1.2678     0.2411 H       
  43 H43            6.6780    -0.6598     0.7483 H       
  44 H44            6.1727    -0.8196    -0.9624 H       
@<TRIPOS>BOND
   1    1    2 ar
   2    1    7 1
   3    1    6 ar
   4    2    3 ar
   5    2   10 1
   6    3    4 ar
   7    3   27 1
   8    4    5 ar
   9    4   28 1
  10    5    6 ar
  11    5   11 1
  12    6   29 1
  13    7    8 2
  14    8    9 1
  15    8   15 1
  16    9   10 am
  17    9   18 1
  18   10   12 2
  19   11   13 3
  20   13   14 1
  21   14   19 ar
  22   14   23 ar
  23   15   16 1
  24   15   30 1
  25   15   31 1
  26   16   24 1
  27   16   17 1
  28   17   18 1
  29   17   26 1
  30   17   32 1
  31   18   33 1
  32   18   34 1
  33   19   20 ar
  34   20   21 ar
  35   20   35 1
  36   21   22 ar
  37   21   36 1
  38   22   23 ar
  39   22   37 1
  40   23   38 1
  41   24   25 1
  42   24   39 1
  43   24   40 1
  44   25   26 1
  45   25   41 1
  46   25   42 1
  47   26   43 1
  48   26   44 1

#	End of record

