#	Name: ASD03270001
#	Creating user name:	WinNT
#	Creation time:	15. 06. 2019 20:35

#	Modifying user name:	WinNT
#	Modification time:	15. 06. 2019 20:35

#	Program:	/corina/corina34_cracker 3.40 0067  02.08.2006

@<TRIPOS>MOLECULE
ASD03270001
  56   59    0    0    0
SMALL
NO_CHARGES


@<TRIPOS>ATOM
   1 C1            -0.0167     1.3782     0.0096 C.ar    
   2 C2             0.0021    -0.0041     0.0020 C.ar    
   3 C3             1.2070    -0.6769    -0.0114 C.ar    
   4 C4             2.4042     0.0314    -0.0179 C.ar    
   5 C5             1.1704     2.0849     0.0021 C.ar    
   6 C6             2.3823     1.4154    -0.0135 C.ar    
   7 O7             3.5699    -0.6660    -0.0255 O.3     
   8 C8             4.7595     0.0270    -0.4058 C.3     
   9 C9             4.8321     1.3362     0.3904 C.3     
  10 C10            3.6564     2.2212    -0.0312 C.3     
  11 N11            3.5347     3.3460     0.8995 N.am    
  12 C12            2.9548     4.4941     0.4968 C.2     
  13 C13            2.8297     5.6512     1.4541 C.3     
  14 O14            2.5338     4.5960    -0.6360 O.2     
  15 N15            2.1691     6.7725     0.7813 N.am    
  16 C16            1.9485     7.9229     1.4477 C.2     
  17 O17            2.3415    12.2750     2.0751 O.3     
  18 O18            2.2977     8.0303     2.6074 O.2     
  19 N19            1.3409     8.9545     0.8287 N.am    
  20 C20            1.1011    10.2050     1.5532 C.3     
  21 C21            2.3310    11.0727     1.4783 C.2     
  22 O22            3.3076    10.6861     0.8811 O.2     
  23 C23           -0.0819    10.9416     0.9215 C.3     
  24 C24           -1.3366    10.1274     1.1053 C.2     
  25 C25           -1.8634     9.2622     0.2244 C.2     
  26 N26           -3.0048     8.7100     0.7386 N.pl3   
  27 C27           -3.2466     9.2194     1.9947 C.ar    
  28 C28           -2.1909    10.7980     3.5053 C.ar    
  29 C29           -2.2095    10.1253     2.2818 C.ar    
  30 C30           -4.2456     9.0055     2.9390 C.ar    
  31 C31           -4.2111     9.6842     4.1372 C.ar    
  32 C32           -3.1886    10.5817     4.4134 C.ar    
  33 H33           -0.9591     1.9056     0.0169 H       
  34 H34           -0.9256    -0.5571     0.0069 H       
  35 H35            1.2205    -1.7568    -0.0164 H       
  36 H36            1.1530     3.1648     0.0087 H       
  37 H37            5.6307    -0.5883    -0.1809 H       
  38 H38            4.7308     0.2474    -1.4729 H       
  39 H39            4.7663     1.1216     1.4570 H       
  40 H40            5.7712     1.8457     0.1748 H       
  41 H41            3.8312     2.6013    -1.0377 H       
  42 H42            3.8715     3.2645     1.8055 H       
  43 H43            2.2383     5.3462     2.3174 H       
  44 H44            3.8220     5.9589     1.7839 H       
  45 H45            1.8906     6.6868    -0.1439 H       
  46 H46            3.1530    12.7954     1.9997 H       
  47 H47            1.0623     8.8688    -0.0965 H       
  48 H48            0.8759     9.9832     2.5963 H       
  49 H49           -0.2046    11.9119     1.4027 H       
  50 H50            0.1056    11.0848    -0.1427 H       
  51 H51           -1.4477     9.0356    -0.7463 H       
  52 H52           -3.5609     8.0570     0.2856 H       
  53 H53           -1.3974    11.4960     3.7279 H       
  54 H54           -5.0457     8.3099     2.7332 H       
  55 H55           -4.9876     9.5168     4.8689 H       
  56 H56           -3.1738    11.1022     5.3596 H       
@<TRIPOS>BOND
   1    1    2 ar
   2    1    5 ar
   3    1   33 1
   4    2    3 ar
   5    2   34 1
   6    3    4 ar
   7    3   35 1
   8    4    7 1
   9    4    6 ar
  10    5    6 ar
  11    5   36 1
  12    6   10 1
  13    7    8 1
  14    8    9 1
  15    8   37 1
  16    8   38 1
  17    9   10 1
  18    9   39 1
  19    9   40 1
  20   10   11 1
  21   10   41 1
  22   11   12 am
  23   11   42 1
  24   12   13 1
  25   12   14 2
  26   13   15 1
  27   13   43 1
  28   13   44 1
  29   15   16 am
  30   15   45 1
  31   16   19 am
  32   16   18 2
  33   17   21 1
  34   17   46 1
  35   19   20 1
  36   19   47 1
  37   20   21 1
  38   20   23 1
  39   20   48 1
  40   21   22 2
  41   23   24 1
  42   23   49 1
  43   23   50 1
  44   24   25 2
  45   24   29 1
  46   25   26 1
  47   25   51 1
  48   26   27 1
  49   26   52 1
  50   27   30 ar
  51   27   29 ar
  52   28   29 ar
  53   28   32 ar
  54   28   53 1
  55   30   31 ar
  56   30   54 1
  57   31   32 ar
  58   31   55 1
  59   32   56 1

#	End of record

