#	Name: ASD04910106
#	Creating user name:	WinNT
#	Creation time:	15. 06. 2019 20:55

#	Modifying user name:	WinNT
#	Modification time:	15. 06. 2019 20:55

#	Program:	/corina/corina34_cracker 3.40 0067  02.08.2006

@<TRIPOS>MOLECULE
ASD04910106
  23   24    0    0    0
SMALL
NO_CHARGES


@<TRIPOS>ATOM
   1 N1            -0.0169     1.3935     0.0097 N.pl3   
   2 C2             0.0021    -0.0041     0.0020 C.ar    
   3 C3             1.2143    -0.6824    -0.0132 C.ar    
   4 C4             1.2325    -2.0626    -0.0208 C.ar    
   5 C5             0.0396    -2.7729    -0.0138 C.ar    
   6 C6            -1.1721    -2.0953     0.0010 C.ar    
   7 C7            -1.1912    -0.7152     0.0153 C.ar    
   8 N8             0.0587    -4.1762    -0.0220 N.pl3   
   9 N9             1.1110    -4.9175    -0.0356 N.2     
  10 N10            0.7797    -6.1602    -0.0398 N.2     
  11 C11           -0.5543    -6.2567    -0.0285 C.2     
  12 C12           -1.0321    -4.9899    -0.0110 C.2     
  13 C13           -1.3662    -7.5262    -0.0293 C.3     
  14 H14            0.8165     1.8899     0.0044 H       
  15 H15           -0.8634     1.8670     0.0163 H       
  16 H16            2.1423    -0.1300    -0.0194 H       
  17 H17            2.1749    -2.5900    -0.0327 H       
  18 H18           -2.0998    -2.6482     0.0058 H       
  19 H19           -2.1338    -0.1883     0.0320 H       
  20 H20           -2.0685    -4.6867     0.0060 H       
  21 H21           -1.5531    -7.8387     0.9981 H       
  22 H22           -2.3161    -7.3497    -0.5340 H       
  23 H23           -0.8166    -8.3086    -0.5527 H       
@<TRIPOS>BOND
   1    1    2 1
   2    1   14 1
   3    1   15 1
   4    2    3 ar
   5    2    7 ar
   6    3    4 ar
   7    3   16 1
   8    4    5 ar
   9    4   17 1
  10    5    6 ar
  11    5    8 1
  12    6    7 ar
  13    6   18 1
  14    7   19 1
  15    8    9 1
  16    8   12 1
  17    9   10 2
  18   10   11 1
  19   11   12 2
  20   11   13 1
  21   12   20 1
  22   13   21 1
  23   13   22 1
  24   13   23 1

#	End of record

