#	Name: ASD03490020
#	Creating user name:	WinNT
#	Creation time:	15. 06. 2019 20:42

#	Modifying user name:	WinNT
#	Modification time:	15. 06. 2019 20:42

#	Program:	/corina/corina34_cracker 3.40 0067  02.08.2006

@<TRIPOS>MOLECULE
ASD03490020
  50   52    0    0    0
SMALL
NO_CHARGES


@<TRIPOS>ATOM
   1 C1            -0.0167     1.3436     0.0040 C.2     
   2 N2             0.0021    -0.0041     0.0020 N.am    
   3 C3             1.2181    -0.6869    -0.1189 C.ar    
   4 C4             1.4105    -1.8885     0.5500 C.ar    
   5 C5             2.6112    -2.5602     0.4290 C.ar    
   6 C6             3.6220    -2.0368    -0.3579 C.ar    
   7 C7             3.4329    -0.8393    -1.0252 C.ar    
   8 C8             2.2319    -0.1667    -0.9125 C.ar    
   9 Cl9            5.1300    -2.8835    -0.5079 Cl      
  10 O10            1.0277     1.9662    -0.0003 O.2     
  11 N11           -1.1932     2.0011     0.0053 N.am    
  12 C12           -1.2127     3.3955     0.0073 C.2     
  13 C13           -0.1267     4.2162     0.0079 C.2     
  14 C14           -0.5864     5.5362     0.0101 C.2     
  15 N15           -1.8950     5.5199     0.0109 N.2     
  16 N16           -2.3209     4.1854     0.0033 N.pl3   
  17 C17           -3.6507     3.7427     0.0016 C.ar    
  18 C18            0.2788     6.7701     0.0118 C.3     
  19 C19            0.8769     6.9755    -1.3814 C.3     
  20 C20           -0.5690     7.9870     0.3874 C.3     
  21 C21            1.4071     6.6003     1.0312 C.3     
  22 C22           -4.6211     4.4526     0.6961 C.ar    
  23 C23           -4.0015     2.5967    -0.6994 C.ar    
  24 C24           -5.3128     2.1629    -0.6991 C.ar    
  25 C25           -6.2760     2.8691    -0.0021 C.ar    
  26 C26           -5.9307     4.0138     0.6926 C.ar    
  27 C27           -7.7059     2.3934    -0.0044 C.3     
  28 H28           -0.8270    -0.5008     0.0844 H       
  29 H29            0.6221    -2.2972     1.1646 H       
  30 H30            2.7615    -3.4946     0.9493 H       
  31 H31            4.2236    -0.4325    -1.6382 H       
  32 H32            2.0847     0.7676    -1.4338 H       
  33 H33           -2.0264     1.5044     0.0047 H       
  34 H34            0.9068     3.9029     0.0073 H       
  35 H35            0.0731     7.0964    -2.1076 H       
  36 H36            1.5028     7.8679    -1.3801 H       
  37 H37            1.4809     6.1085    -1.6489 H       
  38 H38           -0.9951     7.8407     1.3799 H       
  39 H39            0.0569     8.8794     0.3886 H       
  40 H40           -1.3728     8.1080    -0.3388 H       
  41 H41            2.0111     5.7333     0.7637 H       
  42 H42            2.0329     7.4927     1.0325 H       
  43 H43            0.9810     6.4540     2.0238 H       
  44 H44           -4.3520     5.3467     1.2389 H       
  45 H45           -3.2498     2.0451    -1.2445 H       
  46 H46           -5.5862     1.2716    -1.2442 H       
  47 H47           -6.6851     4.5632     1.2360 H       
  48 H48           -7.8629     1.7103     0.8304 H       
  49 H49           -8.3736     3.2491     0.0958 H       
  50 H50           -7.9155     1.8767    -0.9409 H       
@<TRIPOS>BOND
   1    1    2 am
   2    1   10 2
   3    1   11 am
   4    2    3 1
   5    2   28 1
   6    3    4 ar
   7    3    8 ar
   8    4    5 ar
   9    4   29 1
  10    5    6 ar
  11    5   30 1
  12    6    7 ar
  13    6    9 1
  14    7    8 ar
  15    7   31 1
  16    8   32 1
  17   11   12 1
  18   11   33 1
  19   12   13 2
  20   12   16 1
  21   13   14 1
  22   13   34 1
  23   14   15 2
  24   14   18 1
  25   15   16 1
  26   16   17 1
  27   17   22 ar
  28   17   23 ar
  29   18   19 1
  30   18   20 1
  31   18   21 1
  32   19   35 1
  33   19   36 1
  34   19   37 1
  35   20   38 1
  36   20   39 1
  37   20   40 1
  38   21   41 1
  39   21   42 1
  40   21   43 1
  41   22   26 ar
  42   22   44 1
  43   23   24 ar
  44   23   45 1
  45   24   25 ar
  46   24   46 1
  47   25   26 ar
  48   25   27 1
  49   26   47 1
  50   27   48 1
  51   27   49 1
  52   27   50 1

#	End of record

