#	Name: ASD02039094
#	Creating user name:	WinNT
#	Creation time:	15. 06. 2019 20:17

#	Modifying user name:	WinNT
#	Modification time:	15. 06. 2019 20:17

#	Program:	/corina/corina34_cracker 3.40 0067  02.08.2006

@<TRIPOS>MOLECULE
ASD02039094
  34   36    0    0    0
SMALL
NO_CHARGES


@<TRIPOS>ATOM
   1 N1             0.0234     1.2846    -0.3607 N.2     
   2 N2             0.0398    -0.0019    -0.3619 N.2     
   3 C3             1.2243     1.7332    -0.0875 C.2     
   4 O4             2.0203     0.6621     0.0883 O.3     
   5 C5             1.2410    -0.4221    -0.0920 C.2     
   6 N6             1.6034     3.0607     0.0028 N.pl3   
   7 C7             0.6404     4.0705    -0.0881 C.ar    
   8 C8             1.6809    -1.8604     0.0024 C.3     
   9 O9             2.1174    -2.3102    -1.2818 O.3     
  10 C10            2.5502    -3.5963    -1.3711 C.ar    
  11 C11            2.9879    -4.0977    -2.5879 C.ar    
  12 C12            2.5593    -4.4048    -0.2442 C.ar    
  13 C13            2.9989    -5.7111    -0.3349 C.ar    
  14 C14            3.4309    -6.2144    -1.5530 C.ar    
  15 C15            3.4275    -5.4041    -2.6787 C.ar    
  16 C16           -0.6619     3.8293     0.3296 C.ar    
  17 C17            0.9861     5.3185    -0.5910 C.ar    
  18 C18            0.0337     6.3145    -0.6795 C.ar    
  19 C19           -1.2648     6.0708    -0.2678 C.ar    
  20 C20           -1.6116     4.8296     0.2389 C.ar    
  21 Cl21          -2.4594     7.3254    -0.3805 Cl      
  22 Cl22          -3.2415     4.5276     0.7546 Cl      
  23 O23            3.8641    -7.5003    -1.6422 O.3     
  24 H24            2.5371     3.2910     0.1292 H       
  25 H25            2.5017    -1.9433     0.7148 H       
  26 H26            0.8453    -2.4746     0.3379 H       
  27 H27            2.9847    -3.4669    -3.4645 H       
  28 H28            2.2229    -4.0128     0.7043 H       
  29 H29            3.0067    -6.3404     0.5427 H       
  30 H30            3.7635    -5.7961    -3.6272 H       
  31 H31           -0.9324     2.8611     0.7244 H       
  32 H32            1.9994     5.5098    -0.9123 H       
  33 H33            0.3026     7.2848    -1.0701 H       
  34 H34            3.1665    -8.1368    -1.8505 H       
@<TRIPOS>BOND
   1    1    2 1
   2    1    3 2
   3    2    5 2
   4    3    4 1
   5    3    6 1
   6    4    5 1
   7    5    8 1
   8    6    7 1
   9    6   24 1
  10    7   16 ar
  11    7   17 ar
  12    8    9 1
  13    8   25 1
  14    8   26 1
  15    9   10 1
  16   10   11 ar
  17   10   12 ar
  18   11   15 ar
  19   11   27 1
  20   12   13 ar
  21   12   28 1
  22   13   14 ar
  23   13   29 1
  24   14   15 ar
  25   14   23 1
  26   15   30 1
  27   16   20 ar
  28   16   31 1
  29   17   18 ar
  30   17   32 1
  31   18   19 ar
  32   18   33 1
  33   19   20 ar
  34   19   21 1
  35   20   22 1
  36   23   34 1

#	End of record

