#	Name: ASD02038579
#	Creating user name:	WinNT
#	Creation time:	15. 06. 2019 20:17

#	Modifying user name:	WinNT
#	Modification time:	15. 06. 2019 20:17

#	Program:	/corina/corina34_cracker 3.40 0067  02.08.2006

@<TRIPOS>MOLECULE
ASD02038579
  58   61    0    0    0
SMALL
NO_CHARGES


@<TRIPOS>ATOM
   1 N1             0.0681     1.4281     0.1801 N.3     
   2 C2             0.1837    -0.0364     0.1789 C.3     
   3 C3             1.3321     2.0315     0.1561 C.3     
   4 C4            -1.1475    -0.6535     0.6124 C.3     
   5 C5            -1.0591    -2.1777     0.5140 C.3     
   6 O6            -2.3360    -2.7488     0.8064 O.3     
   7 C7            -2.4306    -4.1045     0.7625 C.ar    
   8 C8            -1.3166    -4.8671     0.4445 C.ar    
   9 C9            -1.4116    -6.2443     0.3996 C.ar    
  10 C10           -2.6227    -6.8650     0.6731 C.ar    
  11 C11           -3.7376    -6.1005     0.9915 C.ar    
  12 C12           -3.6402    -4.7246     1.0414 C.ar    
  13 N13           -2.7228    -8.2611     0.6293 N.am    
  14 O14           -1.4291    -0.2787     1.9623 O.3     
  15 C15           -3.9254    -8.8552     0.5224 C.2     
  16 O16           -3.9962   -10.0659     0.5012 O.2     
  17 C17           -5.1837    -8.0348     0.4293 C.3     
  18 C18            1.2342     3.5599     0.3608 C.3     
  19 C19            0.7503     4.1948    -0.9179 C.3     
  20 N20           -0.7209     4.3561    -0.9614 N.3     
  21 C21           -1.4638     3.1918    -0.4366 C.3     
  22 C22           -0.8518     1.8872    -0.8802 C.3     
  23 C23           -1.1149     5.5327    -0.3187 C.ar    
  24 C24           -0.5239     6.7428    -0.6588 C.ar    
  25 C25           -0.9153     7.9041    -0.0220 C.ar    
  26 C26           -1.8952     7.8629     0.9542 C.ar    
  27 C27           -2.4854     6.6587     1.2954 C.ar    
  28 C28           -2.1023     5.4952     0.6574 C.ar    
  29 Cl29          -2.3847     9.3246     1.7526 Cl      
  30 C30           -5.0506    -6.7773     1.2883 C.3     
  31 H31            0.4339    -0.3803    -0.8247 H       
  32 H32            0.9678    -0.3395     0.8728 H       
  33 H33            1.9457     1.6045     0.9494 H       
  34 H34            1.8046     1.8304    -0.8053 H       
  35 H35           -1.9441    -0.2930    -0.0385 H       
  36 H36           -0.7573    -2.4599    -0.4946 H       
  37 H37           -0.3240    -2.5460     1.2297 H       
  38 H38           -0.3745    -4.3839     0.2315 H       
  39 H39           -0.5442    -6.8379     0.1514 H       
  40 H40           -4.5073    -4.1304     1.2891 H       
  41 H41           -1.9199    -8.8034     0.6760 H       
  42 H42           -0.7603    -0.5674     2.5983 H       
  43 H43           -5.3527    -7.7478    -0.6085 H       
  44 H44           -6.0285    -8.6265     0.7821 H       
  45 H45            0.5305     3.7761     1.1646 H       
  46 H46            2.2163     3.9574     0.6167 H       
  47 H47            1.2142     5.1758    -1.0202 H       
  48 H48            1.0603     3.5731    -1.7578 H       
  49 H49           -1.4627     3.2319     0.6527 H       
  50 H50           -2.4936     3.2391    -0.7907 H       
  51 H51           -0.2991     2.0364    -1.8078 H       
  52 H52           -1.6361     1.1459    -1.0335 H       
  53 H53            0.2412     6.7754    -1.4204 H       
  54 H54           -0.4558     8.8452    -0.2858 H       
  55 H55           -3.2495     6.6293     2.0581 H       
  56 H56           -2.5636     4.5557     0.9239 H       
  57 H57           -5.0869    -7.0520     2.3424 H       
  58 H58           -5.8703    -6.0951     1.0627 H       
@<TRIPOS>BOND
   1    1    2 1
   2    1    3 1
   3    1   22 1
   4    2    4 1
   5    2   31 1
   6    2   32 1
   7    3   18 1
   8    3   33 1
   9    3   34 1
  10    4    5 1
  11    4   14 1
  12    4   35 1
  13    5    6 1
  14    5   36 1
  15    5   37 1
  16    6    7 1
  17    7    8 ar
  18    7   12 ar
  19    8    9 ar
  20    8   38 1
  21    9   10 ar
  22    9   39 1
  23   10   11 ar
  24   10   13 1
  25   11   12 ar
  26   11   30 1
  27   12   40 1
  28   13   15 am
  29   13   41 1
  30   14   42 1
  31   15   16 2
  32   15   17 1
  33   17   30 1
  34   17   43 1
  35   17   44 1
  36   18   19 1
  37   18   45 1
  38   18   46 1
  39   19   20 1
  40   19   47 1
  41   19   48 1
  42   20   21 1
  43   20   23 1
  44   21   22 1
  45   21   49 1
  46   21   50 1
  47   22   51 1
  48   22   52 1
  49   23   24 ar
  50   23   28 ar
  51   24   25 ar
  52   24   53 1
  53   25   26 ar
  54   25   54 1
  55   26   27 ar
  56   26   29 1
  57   27   28 ar
  58   27   55 1
  59   28   56 1
  60   30   57 1
  61   30   58 1

#	End of record

