#	Name: ASD01812971
#	Creating user name:	WinNT
#	Creation time:	15. 06. 2019 19:29

#	Modifying user name:	WinNT
#	Modification time:	15. 06. 2019 19:29

#	Program:	/corina/corina34_cracker 3.40 0067  02.08.2006

@<TRIPOS>MOLECULE
ASD01812971
  55   59    0    0    0
SMALL
NO_CHARGES


@<TRIPOS>ATOM
   1 C1            -0.0166     1.3763     0.0096 C.ar    
   2 C2             0.0021    -0.0041     0.0020 C.ar    
   3 C3             1.2089    -0.6873    -0.0132 C.ar    
   4 C4             2.3943     0.0073    -0.0207 C.ar    
   5 C5             2.3945     1.4054    -0.0132 C.ar    
   6 C6             1.1722     2.0915     0.0021 C.ar    
   7 C7             3.8414    -0.4181    -0.0373 C.3     
   8 N8             4.6316     0.8184    -0.0384 N.am    
   9 C9             3.7920     1.8679    -0.0245 C.2     
  10 C10            6.0945     0.8961    -0.0529 C.3     
  11 C11            6.5816     0.9306    -1.4786 C.ar    
  12 O12            1.1518     3.4477     0.0091 O.3     
  13 O13            4.1376     3.0337    -0.0217 O.2     
  14 C14            6.7407     2.1439    -2.1228 C.ar    
  15 C15            7.1867     2.1826    -3.4290 C.ar    
  16 C16            7.4773     0.9971    -4.0987 C.ar    
  17 C17            7.3158    -0.2248    -3.4449 C.ar    
  18 C18            6.8733    -0.2510    -2.1357 C.ar    
  19 C19           -0.0561     4.0669     0.0235 C.ar    
  20 C20           -0.6712     4.3819     1.2424 C.ar    
  21 C21           -1.9148     5.0193     1.2445 C.ar    
  22 C22           -2.5285     5.3341     0.0514 C.ar    
  23 C23           -1.9185     5.0217    -1.1524 C.ar    
  24 C24           -0.6856     4.3963    -1.1698 C.ar    
  25 C25           -0.0292     4.0520     2.4791 C.1     
  26 N26            0.4801     3.7903     3.4603 N.1     
  27 F27           -0.0951     4.1007    -2.3484 F       
  28 C28            9.1346     1.5651    -5.9400 C.2     
  29 C29            7.9567     1.0330    -5.5036 C.2     
  30 C30            7.2783     0.5234    -6.6277 C.2     
  31 N31            8.0182     0.7425    -7.6824 N.2     
  32 N32            9.1886     1.3951    -7.2768 N.pl3   
  33 C33           10.2830     1.8200    -8.1532 C.3     
  34 C34            5.9334    -0.1565    -6.6163 C.3     
  35 F35            7.5958    -1.3793    -4.0883 F       
  36 H36           -0.9603     1.9015     0.0169 H       
  37 H37           -0.9272    -0.5544     0.0083 H       
  38 H38            1.2168    -1.7673    -0.0187 H       
  39 H39            4.0689    -1.0074     0.8510 H       
  40 H40            4.0513    -0.9978    -0.9361 H       
  41 H41            6.4154     1.8012     0.4628 H       
  42 H42            6.5097     0.0238     0.4519 H       
  43 H43            6.5153     3.0634    -1.6031 H       
  44 H44            7.3096     3.1312    -3.9306 H       
  45 H45            6.7512    -1.1955    -1.6265 H       
  46 H46           -2.3948     5.2647     2.1803 H       
  47 H47           -3.4898     5.8263     0.0550 H       
  48 H48           -2.4068     5.2721    -2.0827 H       
  49 H49            9.8858     2.0406    -5.3267 H       
  50 H50           11.0147     1.0164    -8.2364 H       
  51 H51            9.8870     2.0545    -9.1413 H       
  52 H52           10.7615     2.7051    -7.7341 H       
  53 H53            5.1486     0.5884    -6.7475 H       
  54 H54            5.8859    -0.8814    -7.4289 H       
  55 H55            5.7931    -0.6683    -5.6642 H       
@<TRIPOS>BOND
   1    1    2 ar
   2    1    6 ar
   3    1   36 1
   4    2    3 ar
   5    2   37 1
   6    3    4 ar
   7    3   38 1
   8    4    7 1
   9    4    5 ar
  10    5    6 ar
  11    5    9 1
  12    6   12 1
  13    7    8 1
  14    7   39 1
  15    7   40 1
  16    8    9 am
  17    8   10 1
  18    9   13 2
  19   10   11 1
  20   10   41 1
  21   10   42 1
  22   11   14 ar
  23   11   18 ar
  24   12   19 1
  25   14   15 ar
  26   14   43 1
  27   15   16 ar
  28   15   44 1
  29   16   17 ar
  30   16   29 1
  31   17   18 ar
  32   17   35 1
  33   18   45 1
  34   19   20 ar
  35   19   24 ar
  36   20   21 ar
  37   20   25 1
  38   21   22 ar
  39   21   46 1
  40   22   23 ar
  41   22   47 1
  42   23   24 ar
  43   23   48 1
  44   24   27 1
  45   25   26 3
  46   28   29 2
  47   28   32 1
  48   28   49 1
  49   29   30 1
  50   30   31 2
  51   30   34 1
  52   31   32 1
  53   32   33 1
  54   33   50 1
  55   33   51 1
  56   33   52 1
  57   34   53 1
  58   34   54 1
  59   34   55 1

#	End of record

