#	Name: ASD03091838
#	Creating user name:	WinNT
#	Creation time:	15. 06. 2019 20:31

#	Modifying user name:	WinNT
#	Modification time:	15. 06. 2019 20:31

#	Program:	/corina/corina34_cracker 3.40 0067  02.08.2006

@<TRIPOS>MOLECULE
ASD03091838
  47   51    0    0    0
SMALL
NO_CHARGES


@<TRIPOS>ATOM
   1 C1             0.2897     1.7517     1.1943 C.ar    
   2 C2             1.4321     2.4628     0.7761 C.ar    
   3 C3             2.6269     1.7782     0.5559 C.ar    
   4 C4             2.6378     0.3995     0.7626 C.ar    
   5 C5             1.4644    -0.2356     1.1777 C.ar    
   6 N6             0.3540     0.4387     1.3765 N.ar    
   7 N7            -0.7264     2.6675     1.3251 N.pl3   
   8 C8             1.0252     3.8659     0.6732 C.2     
   9 C9            -0.2733     3.9200     1.0080 C.2     
  10 C10            3.8787    -0.3830     0.5442 C.ar    
  11 C11            3.8718    -1.7606     0.7556 C.ar    
  12 C12            5.0349    -2.4793     0.5486 C.ar    
  13 C13            6.1741    -1.7937     0.1347 C.ar    
  14 C14            6.1076    -0.4209    -0.0560 C.ar    
  15 N15            4.9825     0.2345     0.1445 N.ar    
  16 O16            7.3381    -2.4616    -0.0798 O.3     
  17 C17            8.4599    -6.0095    -0.5853 C.3     
  18 C18            8.4209    -4.4913    -0.8220 C.3     
  19 C19            7.2973    -3.8862     0.0244 C.3     
  20 C20            7.4761    -4.2952     1.4893 C.3     
  21 C21            7.5791    -5.8267     1.5694 C.3     
  22 C22            6.4317    -6.4228     0.7217 C.3     
  23 C23            7.0137    -6.5436    -0.7021 C.3     
  24 N24            8.8145    -6.2240     0.8429 N.3     
  25 C25            9.1450    -7.6325     1.0976 C.3     
  26 H26            3.5163     2.2999     0.2348 H       
  27 H27            1.4700    -1.3036     1.3381 H       
  28 H28           -1.6321     2.4573     1.6013 H       
  29 H29            1.6487     4.6967     0.3776 H       
  30 H30           -0.8712     4.8192     1.0285 H       
  31 H31            2.9699    -2.2602     1.0771 H       
  32 H32            5.0593    -3.5477     0.7048 H       
  33 H33            6.9879     0.1163    -0.3770 H       
  34 H34            9.1422    -6.5143    -1.2693 H       
  35 H35            9.3748    -4.0517    -0.5304 H       
  36 H36            8.2319    -4.2909    -1.8766 H       
  37 H37            6.3352    -4.2488    -0.3376 H       
  38 H38            8.3875    -3.8468     1.8849 H       
  39 H39            6.6185    -3.9561     2.0703 H       
  40 H40            7.5611    -6.1862     2.5982 H       
  41 H41            6.1505    -7.4051     1.1012 H       
  42 H42            5.5712    -5.7537     0.7242 H       
  43 H43            6.4394    -5.9340    -1.3996 H       
  44 H44            7.0188    -7.5854    -1.0226 H       
  45 H45            9.9939    -7.9240     0.4792 H       
  46 H46            9.4004    -7.7613     2.1494 H       
  47 H47            8.2859    -8.2572     0.8531 H       
@<TRIPOS>BOND
   1    1    2 ar
   2    1    6 ar
   3    1    7 1
   4    2    3 ar
   5    2    8 1
   6    3    4 ar
   7    3   26 1
   8    4    5 ar
   9    4   10 1
  10    5    6 ar
  11    5   27 1
  12    7    9 1
  13    7   28 1
  14    8    9 2
  15    8   29 1
  16    9   30 1
  17   10   11 ar
  18   10   15 ar
  19   11   12 ar
  20   11   31 1
  21   12   13 ar
  22   12   32 1
  23   13   14 ar
  24   13   16 1
  25   14   15 ar
  26   14   33 1
  27   16   19 1
  28   17   18 1
  29   17   23 1
  30   17   24 1
  31   17   34 1
  32   18   19 1
  33   18   35 1
  34   18   36 1
  35   19   20 1
  36   19   37 1
  37   20   21 1
  38   20   38 1
  39   20   39 1
  40   21   22 1
  41   21   24 1
  42   21   40 1
  43   22   23 1
  44   22   41 1
  45   22   42 1
  46   23   43 1
  47   23   44 1
  48   24   25 1
  49   25   45 1
  50   25   46 1
  51   25   47 1

#	End of record

