#	Name: ASD08830232
#	Creating user name:	WinNT
#	Creation time:	15. 06. 2019 21:20

#	Modifying user name:	WinNT
#	Modification time:	15. 06. 2019 21:20

#	Program:	/corina/corina34_cracker 3.40 0067  02.08.2006

@<TRIPOS>MOLECULE
ASD08830232
  41   43    0    0    0
SMALL
NO_CHARGES


@<TRIPOS>ATOM
   1 C1            -0.0479     1.4632    -0.2871 C.ar    
   2 C2            -0.0235    -0.0068    -0.2512 C.2     
   3 C3            -1.2921    -0.7752     0.0159 C.3     
   4 O4             1.0175    -0.6007    -0.4366 O.2     
   5 C5            -1.2589     2.1486    -0.0653 C.ar    
   6 C6             1.1233     2.1663    -0.5336 C.ar    
   7 C7             1.0916     3.5679    -0.5657 C.ar    
   8 C8            -0.1356     4.2447    -0.3460 C.ar    
   9 C9            -1.3056     3.5037    -0.0931 C.ar    
  10 C10            2.2572     4.3156    -0.8117 C.ar    
  11 C11            2.1928     5.6752    -0.8359 C.ar    
  12 C12            0.9874     6.3393    -0.6197 C.ar    
  13 C13           -0.1612     5.6482    -0.3789 C.ar    
  14 C14           -0.9927    -2.2755    -0.0007 C.3     
  15 N15           -2.2484    -3.0269     0.1280 N.3     
  16 C16           -3.1181    -2.8113    -1.0488 C.3     
  17 C17           -3.0308    -2.5592     1.3008 C.3     
  18 C18           -4.4685    -3.0416     0.9831 C.3     
  19 C19           -4.5732    -2.8333    -0.5452 C.3     
  20 C20           -2.5232    -3.1981     2.5678 C.2     
  21 O21           -3.0992    -2.9055     3.7443 O.3     
  22 O22           -1.5977    -3.9737     2.5245 O.2     
  23 H23           -1.6882    -0.4945     0.9918 H       
  24 H24           -2.0268    -0.5428    -0.7550 H       
  25 H25           -2.1612     1.5878     0.1289 H       
  26 H26            2.0510     1.6385    -0.6988 H       
  27 H27           -2.2422     4.0148     0.0744 H       
  28 H28            3.1985     3.8137    -0.9803 H       
  29 H29            3.0892     6.2472    -1.0251 H       
  30 H30            0.9634     7.4188    -0.6438 H       
  31 H31           -1.0879     6.1776    -0.2131 H       
  32 H32           -0.5065    -2.5386    -0.9401 H       
  33 H33           -0.3338    -2.5238     0.8314 H       
  34 H34           -2.8966    -1.8451    -1.5021 H       
  35 H35           -2.9644    -3.6093    -1.7752 H       
  36 H36           -2.9976    -1.4724     1.3767 H       
  37 H37           -4.5871    -4.0947     1.2378 H       
  38 H38           -5.2045    -2.4317     1.5068 H       
  39 H39           -5.0640    -1.8852    -0.7651 H       
  40 H40           -5.1195    -3.6580    -1.0029 H       
  41 H41           -2.7391    -3.3401     4.5295 H       
@<TRIPOS>BOND
   1    1    2 1
   2    1    6 ar
   3    1    5 ar
   4    2    3 1
   5    2    4 2
   6    3   14 1
   7    3   23 1
   8    3   24 1
   9    5    9 ar
  10    5   25 1
  11    6    7 ar
  12    6   26 1
  13    7    8 ar
  14    7   10 ar
  15    8    9 ar
  16    8   13 ar
  17    9   27 1
  18   10   11 ar
  19   10   28 1
  20   11   12 ar
  21   11   29 1
  22   12   13 ar
  23   12   30 1
  24   13   31 1
  25   14   15 1
  26   14   32 1
  27   14   33 1
  28   15   16 1
  29   15   17 1
  30   16   19 1
  31   16   34 1
  32   16   35 1
  33   17   18 1
  34   17   20 1
  35   17   36 1
  36   18   19 1
  37   18   37 1
  38   18   38 1
  39   19   39 1
  40   19   40 1
  41   20   21 1
  42   20   22 2
  43   21   41 1

#	End of record

