#	Name: ASD05660008
#	Creating user name:	WinNT
#	Creation time:	15. 06. 2019 21:01

#	Modifying user name:	WinNT
#	Modification time:	15. 06. 2019 21:01

#	Program:	/corina/corina34_cracker 3.40 0067  02.08.2006

@<TRIPOS>MOLECULE
ASD05660008
  52   54    0    0    0
SMALL
NO_CHARGES


@<TRIPOS>ATOM
   1 C1             0.0021     1.3914    -0.3125 C.ar    
   2 C2             0.0270     0.0151    -0.4258 C.ar    
   3 C3             1.2265    -0.6663    -0.3296 C.ar    
   4 C4             2.4036     0.0278    -0.1198 C.ar    
   5 C5             2.3843     1.4045    -0.0058 C.ar    
   6 C6             1.1823     2.0905    -0.1024 C.ar    
   7 C7             3.0144     4.5034    -1.0414 C.ar    
   8 C8             4.2224     5.1656    -0.9397 C.ar    
   9 C9             4.7690     5.4224     0.3041 C.ar    
  10 C10            4.1085     5.0170     1.4493 C.ar    
  11 C11            2.9000     4.3549     1.3532 C.ar    
  12 C12            2.3493     4.0958     0.1062 C.ar    
  13 O13            1.1607     3.4446     0.0090 O.3     
  14 C14           -1.2543    -0.7447    -0.6540 C.3     
  15 C15           -1.3755    -1.0849    -2.0810 C.1     
  16 O16           -1.2411    -1.9638     0.1348 O.3     
  17 C17           -2.4272    -2.4298     0.5562 C.2     
  18 O18           -3.4429    -1.8387     0.2753 O.2     
  19 C19           -2.4921    -3.6903     1.3796 C.3     
  20 N20           -1.4691    -1.3475    -3.1823 N.1     
  21 C21           -1.6909    -3.4989     2.6690 C.3     
  22 C22           -3.9282    -3.9940     1.7210 C.ar    
  23 C23           -1.7568    -4.7786     3.5050 C.3     
  24 C24           -0.2329    -3.1906     2.3225 C.3     
  25 C25           -4.4995    -5.1836     1.3094 C.ar    
  26 C26           -5.8165    -5.4627     1.6221 C.ar    
  27 C27           -6.5632    -4.5511     2.3472 C.ar    
  28 C28           -5.9909    -3.3607     2.7588 C.ar    
  29 C29           -4.6720    -3.0852     2.4503 C.ar    
  30 Cl30          -8.2177    -4.9007     2.7399 Cl      
  31 H31           -0.9344     1.9234    -0.3918 H       
  32 H32            1.2437    -1.7425    -0.4181 H       
  33 H33            3.3391    -0.5068    -0.0447 H       
  34 H34            3.3041     1.9462     0.1584 H       
  35 H35            2.5858     4.3069    -2.0130 H       
  36 H36            4.7407     5.4827    -1.8327 H       
  37 H37            5.7135     5.9403     0.3814 H       
  38 H38            4.5378     5.2183     2.4196 H       
  39 H39            2.3845     4.0384     2.2480 H       
  40 H40           -2.1012    -0.1273    -0.3544 H       
  41 H41           -2.0711    -4.5186     0.8098 H       
  42 H42           -2.1120    -2.6706     3.2388 H       
  43 H43           -1.3358    -5.6070     2.9352 H       
  44 H44           -1.1861    -4.6423     4.4236 H       
  45 H45           -2.7955    -4.9983     3.7519 H       
  46 H46           -0.1860    -2.2789     1.7269 H       
  47 H47            0.3378    -3.0543     3.2410 H       
  48 H48            0.1881    -4.0190     1.7526 H       
  49 H49           -3.9167    -5.8950     0.7431 H       
  50 H50           -6.2629    -6.3920     1.3002 H       
  51 H51           -6.5732    -2.6488     3.3249 H       
  52 H52           -4.2252    -2.1560     2.7716 H       
@<TRIPOS>BOND
   1    1    2 ar
   2    1    6 ar
   3    1   31 1
   4    2    3 ar
   5    2   14 1
   6    3    4 ar
   7    3   32 1
   8    4    5 ar
   9    4   33 1
  10    5    6 ar
  11    5   34 1
  12    6   13 1
  13    7    8 ar
  14    7   12 ar
  15    7   35 1
  16    8    9 ar
  17    8   36 1
  18    9   10 ar
  19    9   37 1
  20   10   11 ar
  21   10   38 1
  22   11   12 ar
  23   11   39 1
  24   12   13 1
  25   14   15 1
  26   14   16 1
  27   14   40 1
  28   15   20 3
  29   16   17 1
  30   17   18 2
  31   17   19 1
  32   19   21 1
  33   19   22 1
  34   19   41 1
  35   21   23 1
  36   21   24 1
  37   21   42 1
  38   22   25 ar
  39   22   29 ar
  40   23   43 1
  41   23   44 1
  42   23   45 1
  43   24   46 1
  44   24   47 1
  45   24   48 1
  46   25   26 ar
  47   25   49 1
  48   26   27 ar
  49   26   50 1
  50   27   28 ar
  51   27   30 1
  52   28   29 ar
  53   28   51 1
  54   29   52 1

#	End of record

