#	Name: ASD01948096
#	Creating user name:	WinNT
#	Creation time:	15. 06. 2019 20:13

#	Modifying user name:	WinNT
#	Modification time:	15. 06. 2019 20:13

#	Program:	/corina/corina34_cracker 3.40 0067  02.08.2006

@<TRIPOS>MOLECULE
ASD01948096
  26   27    0    0    0
SMALL
NO_CHARGES


@<TRIPOS>ATOM
   1 C1             0.0681     1.7860    -0.0787 C.3     
   2 S2            -0.0068    -0.0247     0.0014 S.o2    
   3 O3            -1.3355    -0.4579     0.2588 O.2     
   4 O4             0.7624    -0.6024    -1.0444 O.2     
   5 O5             0.7562    -0.3806     1.2693 O.3     
   6 F6             1.4045     2.1951    -0.1412 F       
   7 F7            -0.6096     2.2308    -1.2190 F       
   8 F8            -0.5328     2.3285     1.0622 F       
   9 C9            -0.1161    -0.2387     4.8125 C.2     
  10 C10            0.5884    -0.5075     3.6542 C.2     
  11 C11            0.0758    -0.1237     2.4126 C.2     
  12 C12           -1.1490     0.5284     2.3817 C.2     
  13 C13           -1.8218     0.7780     3.5676 C.2     
  14 N14           -1.3141     0.3995     4.7788 N.am    
  15 S15            0.3180    -0.6281     6.4841 S.3     
  16 C16           -1.9698     0.6310     6.0652 C.3     
  17 C17           -1.1647     0.0950     7.2459 C.3     
  18 O18           -2.8991     1.3530     3.5291 O.2     
  19 N19            1.8919    -1.2053     3.7296 N.pl3   
  20 O20            2.3413    -1.5412     4.8107 O.2     
  21 O21            2.5150    -1.4436     2.7105 O.2     
  22 H22           -1.5752     0.8398     1.4395 H       
  23 H23           -2.1177     1.7028     6.1966 H       
  24 H24           -2.9446     0.1433     6.0558 H       
  25 H25           -1.7331    -0.6698     7.7752 H       
  26 H26           -0.8897     0.9040     7.9228 H       
@<TRIPOS>BOND
   1    1    2 1
   2    1    6 1
   3    1    7 1
   4    1    8 1
   5    2    3 2
   6    2    4 2
   7    2    5 1
   8    5   11 1
   9    9   10 2
  10    9   14 1
  11    9   15 1
  12   10   11 1
  13   10   19 1
  14   11   12 2
  15   12   13 1
  16   12   22 1
  17   13   14 am
  18   13   18 2
  19   14   16 1
  20   15   17 1
  21   16   17 1
  22   16   23 1
  23   16   24 1
  24   17   25 1
  25   17   26 1
  26   19   20 2
  27   19   21 2

#	End of record

