#	Name: ASD06350002
#	Creating user name:	WinNT
#	Creation time:	15. 06. 2019 21:06

#	Modifying user name:	WinNT
#	Modification time:	15. 06. 2019 21:06

#	Program:	/corina/corina34_cracker 3.40 0067  02.08.2006

@<TRIPOS>MOLECULE
ASD06350002
  23   24    0    0    0
SMALL
NO_CHARGES


@<TRIPOS>ATOM
   1 Cl1           -2.6403     0.1656    -2.5823 Cl      
   2 C2            -2.5203     1.8922    -2.4475 C.ar    
   3 N3            -2.4642     2.6484    -3.5353 N.ar    
   4 C4            -2.3730     3.9601    -3.4448 C.ar    
   5 N5            -2.3337     4.5752    -2.2804 N.ar    
   6 C6            -2.3853     3.8856    -1.1456 C.ar    
   7 C7            -2.4878     2.4976    -1.2031 C.ar    
   8 O8            -2.3440     4.5235     0.0494 O.3     
   9 C9            -2.1496     5.8690     0.0483 C.ar    
  10 C10           -0.8711     6.3862     0.1889 C.ar    
  11 C11           -0.6757     7.7545     0.1876 C.ar    
  12 C12           -1.7535     8.6083     0.0466 C.ar    
  13 C13           -3.0307     8.0968    -0.0939 C.ar    
  14 C14           -3.2315     6.7285    -0.0995 C.ar    
  15 F15           -4.4790     6.2284    -0.2369 F       
  16 N16           -1.5404    10.0731     0.0467 N.pl3   
  17 O17           -0.4161    10.5249     0.1708 O.2     
  18 O18           -2.4892    10.8266    -0.0774 O.2     
  19 H19           -2.3289     4.5470    -4.3504 H       
  20 H20           -2.5319     1.9080    -0.2993 H       
  21 H21           -0.0281     5.7202     0.2998 H       
  22 H22            0.3204     8.1570     0.2972 H       
  23 H23           -3.8712     8.7662    -0.2036 H       
@<TRIPOS>BOND
   1    1    2 1
   2    2    3 ar
   3    2    7 ar
   4    3    4 ar
   5    4    5 ar
   6    4   19 1
   7    5    6 ar
   8    6    7 ar
   9    6    8 1
  10    7   20 1
  11    8    9 1
  12    9   10 ar
  13    9   14 ar
  14   10   11 ar
  15   10   21 1
  16   11   12 ar
  17   11   22 1
  18   12   13 ar
  19   12   16 1
  20   13   14 ar
  21   13   23 1
  22   14   15 1
  23   16   17 2
  24   16   18 2

#	End of record

