#	Name: ASD01900434
#	Creating user name:	WinNT
#	Creation time:	15. 06. 2019 19:51

#	Modifying user name:	WinNT
#	Modification time:	15. 06. 2019 19:51

#	Program:	/corina/corina34_cracker 3.40 0067  02.08.2006

@<TRIPOS>MOLECULE
ASD01900434
  32   34    0    0    0
SMALL
NO_CHARGES


@<TRIPOS>ATOM
   1 C1            -0.0151     1.5257    -0.5806 C.ar    
   2 C2             0.0530     0.4084    -1.4345 C.ar    
   3 C3             1.2659    -0.2660    -1.5716 C.ar    
   4 C4             2.3544     0.1957    -0.8581 C.ar    
   5 C5             2.2150     1.3047    -0.0337 C.ar    
   6 N6             1.0652     1.9287     0.0843 N.ar    
   7 N7            -2.0488     1.2263    -1.4711 N.2     
   8 N8            -1.1956     0.2372    -1.9713 N.pl3   
   9 C9            -1.3985     2.0027    -0.6457 C.2     
  10 N10           -1.9266     3.0976     0.0457 N.pl3   
  11 C11           -3.2939     3.3743    -0.0243 C.ar    
  12 C12           -3.7472     4.6815     0.1028 C.ar    
  13 C13           -5.0997     4.9514     0.0332 C.ar    
  14 C14           -6.0027     3.9223    -0.1623 C.ar    
  15 C15           -5.5550     2.6200    -0.2892 C.ar    
  16 C16           -4.2034     2.3436    -0.2268 C.ar    
  17 C17           -6.5428     1.5020    -0.5022 C.3     
  18 F18           -6.7495     1.3173    -1.8734 F       
  19 F19           -6.0395     0.3223     0.0567 F       
  20 F20           -7.7563     1.8285     0.1126 F       
  21 C21           -5.5923     6.3689     0.1709 C.3     
  22 F22           -4.5022     7.2252     0.3598 F       
  23 F23           -6.2800     6.7385    -0.9900 F       
  24 F24           -6.4521     6.4590     1.2709 F       
  25 H25            1.3515    -1.1267    -2.2182 H       
  26 H26            3.3088    -0.3031    -0.9405 H       
  27 H27            3.0696     1.6611     0.5222 H       
  28 H28           -1.4477    -0.4585    -2.5984 H       
  29 H29           -1.3434     3.6649     0.5738 H       
  30 H30           -3.0426     5.4855     0.2562 H       
  31 H31           -7.0599     4.1362    -0.2157 H       
  32 H32           -3.8541     1.3270    -0.3308 H       
@<TRIPOS>BOND
   1    1    2 ar
   2    1    6 ar
   3    1    9 1
   4    2    3 ar
   5    2    8 1
   6    3    4 ar
   7    3   25 1
   8    4    5 ar
   9    4   26 1
  10    5    6 ar
  11    5   27 1
  12    7    8 1
  13    7    9 2
  14    8   28 1
  15    9   10 1
  16   10   11 1
  17   10   29 1
  18   11   12 ar
  19   11   16 ar
  20   12   13 ar
  21   12   30 1
  22   13   14 ar
  23   13   21 1
  24   14   15 ar
  25   14   31 1
  26   15   16 ar
  27   15   17 1
  28   16   32 1
  29   17   18 1
  30   17   19 1
  31   17   20 1
  32   21   22 1
  33   21   23 1
  34   21   24 1

#	End of record

