#	Name: ASD02039339
#	Creating user name:	WinNT
#	Creation time:	15. 06. 2019 20:18

#	Modifying user name:	WinNT
#	Modification time:	15. 06. 2019 20:18

#	Program:	/corina/corina34_cracker 3.40 0067  02.08.2006

@<TRIPOS>MOLECULE
ASD02039339
  51   53    0    0    0
SMALL
NO_CHARGES


@<TRIPOS>ATOM
   1 C1             0.1356     1.1847    -0.3169 C.ar    
   2 C2             0.5172    -0.0933     0.0493 C.ar    
   3 C3            -0.3871    -1.1373    -0.0189 C.ar    
   4 C4            -2.0717     0.3821    -0.8138 C.ar    
   5 C5            -1.1533     1.4273    -0.7478 C.ar    
   6 C6            -3.4583     0.6370    -1.2761 C.ar    
   7 C7             1.1276     2.3165    -0.2395 C.3     
   8 N8             1.9438     2.3346    -1.4559 N.am    
   9 C9             1.4504     3.0090    -2.6592 C.3     
  10 C10            3.1487     1.7307    -1.4680 C.2     
  11 C11            3.6001     0.9640    -0.2938 C.2     
  12 C12            4.7330     0.2084    -0.2109 C.2     
  13 N13            2.9677     0.8854     0.9049 N.2     
  14 C14            3.6604     0.1189     1.6969 C.2     
  15 N15            4.7633    -0.3189     1.0356 N.pl3   
  16 O16            3.8632     1.8188    -2.4482 O.2     
  17 C17            5.7993    -1.2035     1.5744 C.3     
  18 C18           -4.0332    -0.1613    -2.2678 C.ar    
  19 C19           -1.6790    -0.9081    -0.4542 C.ar    
  20 C20            2.4334     4.1081    -3.0672 C.3     
  21 C21            1.3203     1.9933    -3.7960 C.3     
  22 C22           -4.2090     1.6727    -0.7237 C.ar    
  23 N23           -5.4408     1.9021    -1.1304 N.ar    
  24 C24           -6.0127     1.1719    -2.0674 C.ar    
  25 C25           -5.3343     0.1184    -2.6651 C.ar    
  26 F26           -2.5622    -1.9282    -0.5211 F       
  27 O27           -5.9342    -0.6270    -3.6304 O.3     
  28 C28           -7.2719    -0.2723    -3.9864 C.3     
  29 H29            1.5257    -0.2766     0.3895 H       
  30 H30           -0.0835    -2.1333     0.2680 H       
  31 H31           -1.4516     2.4276    -1.0249 H       
  32 H32            0.5934     3.2621    -0.1463 H       
  33 H33            1.7719     2.1762     0.6284 H       
  34 H34            0.4756     3.4513    -2.4539 H       
  35 H35            5.4652     0.0591    -0.9907 H       
  36 H36            3.4016    -0.1268     2.7162 H       
  37 H37            5.5311    -2.2410     1.3745 H       
  38 H38            6.7537    -0.9770     1.0992 H       
  39 H39            5.8838    -1.0509     2.6503 H       
  40 H40           -3.4802    -0.9745    -2.7142 H       
  41 H41            3.4241     3.6756    -3.2077 H       
  42 H42            2.1010     4.5652    -3.9993 H       
  43 H43            2.4756     4.8664    -2.2854 H       
  44 H44            0.5860     1.2352    -3.5237 H       
  45 H45            0.9969     2.5031    -4.7035 H       
  46 H46            2.2856     1.5179    -3.9708 H       
  47 H47           -3.7764     2.2939     0.0467 H       
  48 H48           -7.0249     1.3941    -2.3716 H       
  49 H49           -7.9152    -0.3551    -3.1103 H       
  50 H50           -7.2900     0.7534    -4.3548 H       
  51 H51           -7.6310    -0.9446    -4.7656 H       
@<TRIPOS>BOND
   1    1    2 ar
   2    1    7 1
   3    1    5 ar
   4    2    3 ar
   5    2   29 1
   6    3   19 ar
   7    3   30 1
   8    4    5 ar
   9    4    6 1
  10    4   19 ar
  11    5   31 1
  12    6   18 ar
  13    6   22 ar
  14    7    8 1
  15    7   32 1
  16    7   33 1
  17    8    9 1
  18    8   10 am
  19    9   21 1
  20    9   20 1
  21    9   34 1
  22   10   11 1
  23   10   16 2
  24   11   12 2
  25   11   13 1
  26   12   15 1
  27   12   35 1
  28   13   14 2
  29   14   15 1
  30   14   36 1
  31   15   17 1
  32   17   37 1
  33   17   38 1
  34   17   39 1
  35   18   25 ar
  36   18   40 1
  37   19   26 1
  38   20   41 1
  39   20   42 1
  40   20   43 1
  41   21   44 1
  42   21   45 1
  43   21   46 1
  44   22   23 ar
  45   22   47 1
  46   23   24 ar
  47   24   25 ar
  48   24   48 1
  49   25   27 1
  50   27   28 1
  51   28   49 1
  52   28   50 1
  53   28   51 1

#	End of record

