#	Name: ASD00450048
#	Creating user name:	WinNT
#	Creation time:	15. 06. 2019 18:36

#	Modifying user name:	WinNT
#	Modification time:	15. 06. 2019 18:36

#	Program:	/corina/corina34_cracker 3.40 0067  02.08.2006

@<TRIPOS>MOLECULE
ASD00450048
  47   49    0    0    0
SMALL
NO_CHARGES


@<TRIPOS>ATOM
   1 C1            -0.1973     1.4562     0.2879 C.ar    
   2 C2            -0.3571     0.0621     0.3148 C.ar    
   3 C3             0.7495    -0.7542     0.4748 C.ar    
   4 C4             2.0126    -0.2002     0.6088 C.ar    
   5 C5             2.1827     1.1737     0.5844 C.ar    
   6 C6             1.0877     2.0093     0.4242 C.ar    
   7 C7            -1.3652     2.3318     0.1124 C.2     
   8 O8            -1.9791     2.7291     1.0846 O.2     
   9 N9            -1.7558     2.6942    -1.1256 N.am    
  10 N10            1.2599     3.3877     0.3994 N.pl3   
  11 C11            2.3394     3.9700     1.0723 C.ar    
  12 C12            2.7565     5.2547     0.7406 C.ar    
  13 C13            2.9932     3.2689     2.0767 C.ar    
  14 C14            4.0585     3.8464     2.7399 C.ar    
  15 C15            4.4752     5.1223     2.4049 C.ar    
  16 C16            3.8237     5.8268     1.4084 C.ar    
  17 F17            3.0855    -1.0063     0.7649 F       
  18 F18            2.1204     5.9424    -0.2329 F       
  19 I19            6.0915     5.9926     3.4143 I       
  20 O20           -1.5921    -0.4837     0.1848 O.3     
  21 C21           -1.7140    -1.8288     0.3344 C.ar    
  22 C22           -1.7009    -2.3911     1.6031 C.ar    
  23 C23           -1.8250    -3.7585     1.7525 C.ar    
  24 C24           -1.8576    -2.6419    -0.7805 C.ar    
  25 C25           -1.9813    -4.0091    -0.6256 C.ar    
  26 C26           -1.8113    -4.3697     3.1299 C.3     
  27 C27           -1.9622    -4.5673     0.6391 C.ar    
  28 S28           -3.5059    -4.4509     3.7722 S.o2    
  29 N29           -3.3468    -5.1338     5.2724 N.am    
  30 O30           -4.0036    -3.1455     4.0324 O.2     
  31 O31           -4.2731    -5.3944     3.0372 O.2     
  32 H32            0.6278    -1.8272     0.4956 H       
  33 H33            3.1712     1.5958     0.6904 H       
  34 H34           -1.2663     2.3774    -1.9007 H       
  35 H35           -2.5263     3.2719    -1.2414 H       
  36 H36            0.6317     3.9463    -0.0845 H       
  37 H37            2.6688     2.2729     2.3396 H       
  38 H38            4.5667     3.3011     3.5214 H       
  39 H39            4.1487     6.8243     1.1520 H       
  40 H40           -1.5934    -1.7599     2.4729 H       
  41 H41           -1.8729    -2.2063    -1.7687 H       
  42 H42           -2.0931    -4.6425    -1.4932 H       
  43 H43           -1.3943    -5.3753     3.0770 H       
  44 H44           -1.2003    -3.7573     3.7931 H       
  45 H45           -2.0588    -5.6363     0.7580 H       
  46 H46           -2.4691    -5.3843     5.6007 H       
  47 H47           -4.1314    -5.2834     5.8229 H       
@<TRIPOS>BOND
   1    1    2 ar
   2    1    6 ar
   3    1    7 1
   4    2    3 ar
   5    2   20 1
   6    3    4 ar
   7    3   32 1
   8    4    5 ar
   9    4   17 1
  10    5    6 ar
  11    5   33 1
  12    6   10 1
  13    7    8 2
  14    7    9 am
  15    9   34 1
  16    9   35 1
  17   10   11 1
  18   10   36 1
  19   11   13 ar
  20   11   12 ar
  21   12   16 ar
  22   12   18 1
  23   13   14 ar
  24   13   37 1
  25   14   15 ar
  26   14   38 1
  27   15   16 ar
  28   15   19 1
  29   16   39 1
  30   20   21 1
  31   21   22 ar
  32   21   24 ar
  33   22   23 ar
  34   22   40 1
  35   23   27 ar
  36   23   26 1
  37   24   25 ar
  38   24   41 1
  39   25   27 ar
  40   25   42 1
  41   26   28 1
  42   26   43 1
  43   26   44 1
  44   27   45 1
  45   28   29 am
  46   28   30 2
  47   28   31 2
  48   29   46 1
  49   29   47 1

#	End of record

