#	Name: ASD01320031
#	Creating user name:	WinNT
#	Creation time:	15. 06. 2019 19:15

#	Modifying user name:	WinNT
#	Modification time:	15. 06. 2019 19:15

#	Program:	/corina/corina34_cracker 3.40 0067  02.08.2006

@<TRIPOS>MOLECULE
ASD01320031
  48   51    0    0    0
SMALL
NO_CHARGES


@<TRIPOS>ATOM
   1 C1             0.0362     1.3182     0.0334 C.ar    
   2 C2             0.1344    -0.0652     0.1325 C.ar    
   3 C3             1.3737    -0.6818     0.2137 C.ar    
   4 C4             2.5305     0.0812     0.1966 C.ar    
   5 C5             2.4342     1.4802     0.0960 C.ar    
   6 C6             1.1793     2.0962     0.0143 C.ar    
   7 O7             3.7449    -0.5030     0.2757 O.3     
   8 C8             4.8843     0.2066     0.2622 C.2     
   9 C9             4.8999     1.5625     0.1686 C.2     
  10 C10            3.6766     2.2703     0.0796 C.2     
  11 C11            1.4627    -2.1823     0.3211 C.3     
  12 C12            2.3585    -2.5583     1.5046 C.3     
  13 C13            2.4943    -4.0812     1.5717 C.3     
  14 N14            3.0753    -4.5778     0.3178 N.3     
  15 C15            2.2092    -4.2698    -0.8273 C.3     
  16 C16            2.0649    -2.7526    -0.9660 C.3     
  17 O17           -0.9940    -0.8196     0.1503 O.3     
  18 O18            1.0856     3.4466    -0.0832 O.3     
  19 C19            6.1698    -0.5133     0.3531 C.ar    
  20 O20            3.6530     3.4874    -0.0055 O.2     
  21 O21            3.3501    -2.1697    -1.1906 O.3     
  22 C22            3.3486    -6.0189     0.3987 C.3     
  23 C23            6.5008    -1.2145     1.5145 C.ar    
  24 C24            7.7034    -1.8854     1.5925 C.ar    
  25 C25            8.5822    -1.8650     0.5237 C.ar    
  26 C26            8.2623    -1.1725    -0.6304 C.ar    
  27 C27            7.0594    -0.5013    -0.7254 C.ar    
  28 Cl28           6.6589     0.3668    -2.1744 Cl      
  29 H29           -0.9350     1.7859    -0.0333 H       
  30 H30            5.8387     2.0963     0.1613 H       
  31 H31            0.4659    -2.5964     0.4727 H       
  32 H32            3.3435    -2.1106     1.3722 H       
  33 H33            1.9128    -2.1916     2.4293 H       
  34 H34            3.1431    -4.3516     2.4048 H       
  35 H35            1.5106    -4.5274     1.7180 H       
  36 H36            2.6509    -4.6773    -1.7367 H       
  37 H37            1.2268    -4.7152    -0.6698 H       
  38 H38            1.4094    -2.5247    -1.8066 H       
  39 H39           -1.2940    -1.0993    -0.7254 H       
  40 H40            1.0855     3.7762    -0.9923 H       
  41 H41            3.7923    -2.4882    -1.9894 H       
  42 H42            2.4321    -6.5485     0.6588 H       
  43 H43            3.7125    -6.3743    -0.5653 H       
  44 H44            4.1040    -6.2031     1.1626 H       
  45 H45            5.8167    -1.2311     2.3501 H       
  46 H46            7.9602    -2.4279     2.4904 H       
  47 H47            9.5225    -2.3920     0.5909 H       
  48 H48            8.9530    -1.1605    -1.4606 H       
@<TRIPOS>BOND
   1    1    2 ar
   2    1    6 ar
   3    1   29 1
   4    2    3 ar
   5    2   17 1
   6    3    4 ar
   7    3   11 1
   8    4    5 ar
   9    4    7 1
  10    5    6 ar
  11    5   10 1
  12    6   18 1
  13    7    8 1
  14    8    9 2
  15    8   19 1
  16    9   10 1
  17    9   30 1
  18   10   20 2
  19   11   12 1
  20   11   16 1
  21   11   31 1
  22   12   13 1
  23   12   32 1
  24   12   33 1
  25   13   14 1
  26   13   34 1
  27   13   35 1
  28   14   15 1
  29   14   22 1
  30   15   16 1
  31   15   36 1
  32   15   37 1
  33   16   21 1
  34   16   38 1
  35   17   39 1
  36   18   40 1
  37   19   23 ar
  38   19   27 ar
  39   21   41 1
  40   22   42 1
  41   22   43 1
  42   22   44 1
  43   23   24 ar
  44   23   45 1
  45   24   25 ar
  46   24   46 1
  47   25   26 ar
  48   25   47 1
  49   26   27 ar
  50   26   48 1
  51   27   28 1

#	End of record

