#	Name: ASD09740669
#	Creating user name:	WinNT
#	Creation time:	15. 06. 2019 21:23

#	Modifying user name:	WinNT
#	Modification time:	15. 06. 2019 21:23

#	Program:	/corina/corina34_cracker 3.40 0067  02.08.2006

@<TRIPOS>MOLECULE
ASD09740669
  51   54    0    0    0
SMALL
NO_CHARGES


@<TRIPOS>ATOM
   1 C1            -0.2254     1.3235    -0.0464 C.2     
   2 N2             0.0021    -0.0041     0.0020 N.am    
   3 O3             0.7151     2.1054    -0.0479 O.co2   
   4 O4            -1.3722     1.7461    -0.0939 O.co2   
   5 C5            -1.1214    -0.9356     0.1297 C.3     
   6 C6            -1.7949    -0.7765     1.5094 C.3     
   7 C7            -2.9113     0.2481     1.2156 C.3     
   8 C8            -3.2259     0.0794    -0.2552 C.ar    
   9 C9            -4.3361     0.4930    -0.9977 C.ar    
  10 C10           -4.4012     0.2179    -2.3632 C.ar    
  11 C11           -3.3682    -0.4620    -2.9751 C.ar    
  12 C12           -2.2729    -0.8688    -2.2367 C.ar    
  13 C13           -2.1997    -0.5995    -0.8785 C.ar    
  14 S14           -6.9078     1.8134    -1.1151 S.3     
  15 C15           -5.4396     1.2206    -0.3359 C.2     
  16 N16           -5.5014     1.5383     0.9292 N.2     
  17 N17           -6.5224     2.1626     1.3268 N.2     
  18 C18           -7.4423     2.4449     0.4436 C.2     
  19 C19           -8.7066     3.1655     0.7036 C.ar    
  20 C20           -9.0035     3.6111     1.9894 C.ar    
  21 C21          -10.1973     4.2903     2.2271 C.ar    
  22 C22          -11.0890     4.5197     1.1725 C.ar    
  23 C23          -10.7857     4.0734    -0.1015 C.ar    
  24 C24           -9.6024     3.4054    -0.3413 C.ar    
  25 F25          -12.2472     5.1773     1.3992 F       
  26 C26          -10.5109     4.7515     3.5460 C.1     
  27 N27          -10.7596     5.1174     4.5923 N.1     
  28 C28            1.3728    -0.5156    -0.0730 C.3     
  29 C29            2.3404     0.6490    -0.2932 C.3     
  30 C30            1.7230    -1.2296     1.2340 C.3     
  31 C31            1.4866    -1.5004    -1.2384 C.3     
  32 H32           -0.7807    -1.9616    -0.0087 H       
  33 H33           -2.2167    -1.7234     1.8463 H       
  34 H34           -1.0901    -0.3824     2.2416 H       
  35 H35           -3.7929     0.0302     1.8184 H       
  36 H36           -2.5576     1.2600     1.4131 H       
  37 H37           -5.2574     0.5356    -2.9398 H       
  38 H38           -3.4157    -0.6770    -4.0324 H       
  39 H39           -1.4678    -1.4010    -2.7215 H       
  40 H40           -8.3117     3.4308     2.7990 H       
  41 H41          -11.4761     4.2523    -0.9125 H       
  42 H42           -9.3699     3.0634    -1.3390 H       
  43 H43            2.2594     1.3505     0.5371 H       
  44 H44            3.3603     0.2684    -0.3490 H       
  45 H45            2.0909     1.1576    -1.2244 H       
  46 H46            1.0337    -2.0592     1.3909 H       
  47 H47            2.7429    -1.6102     1.1782 H       
  48 H48            1.6420    -0.5280     2.0643 H       
  49 H49            1.2371    -0.9918    -2.1696 H       
  50 H50            2.5064    -1.8810    -1.2943 H       
  51 H51            0.7972    -2.3301    -1.0816 H       
@<TRIPOS>BOND
   1    1    2 am
   2    1    3 ar
   3    1    4 ar
   4    2   28 1
   5    2    5 1
   6    5    6 1
   7    5   13 1
   8    5   32 1
   9    6    7 1
  10    6   33 1
  11    6   34 1
  12    7    8 1
  13    7   35 1
  14    7   36 1
  15    8    9 ar
  16    8   13 ar
  17    9   10 ar
  18    9   15 1
  19   10   11 ar
  20   10   37 1
  21   11   12 ar
  22   11   38 1
  23   12   13 ar
  24   12   39 1
  25   14   15 1
  26   14   18 1
  27   15   16 2
  28   16   17 1
  29   17   18 2
  30   18   19 1
  31   19   20 ar
  32   19   24 ar
  33   20   21 ar
  34   20   40 1
  35   21   22 ar
  36   21   26 1
  37   22   23 ar
  38   22   25 1
  39   23   24 ar
  40   23   41 1
  41   24   42 1
  42   26   27 3
  43   28   29 1
  44   28   31 1
  45   28   30 1
  46   29   43 1
  47   29   44 1
  48   29   45 1
  49   30   46 1
  50   30   47 1
  51   30   48 1
  52   31   49 1
  53   31   50 1
  54   31   51 1

#	End of record

