#	Name: ASD01911061
#	Creating user name:	WinNT
#	Creation time:	15. 06. 2019 19:57

#	Modifying user name:	WinNT
#	Modification time:	15. 06. 2019 19:57

#	Program:	/corina/corina34_cracker 3.40 0067  02.08.2006

@<TRIPOS>MOLECULE
ASD01911061
  55   58    0    0    0
SMALL
NO_CHARGES


@<TRIPOS>ATOM
   1 N1             0.1424     1.3738    -0.1997 N.3     
   2 C2             0.0810    -0.0919    -0.1232 C.3     
   3 C3            -1.3650    -0.5263     0.1387 C.3     
   4 N4            -2.2279     0.0797    -0.8868 N.am    
   5 C5            -2.1229     1.5285    -1.1170 C.3     
   6 C6            -0.6471     1.8820    -1.3294 C.3     
   7 C7            -3.0915    -0.6728    -1.5969 C.2     
   8 C8            -4.0350    -0.0292    -2.5325 C.ar    
   9 C9            -4.3090    -0.6233    -3.7685 C.ar    
  10 C10           -5.1887    -0.0270    -4.6457 C.ar    
  11 C11           -5.8092     1.1675    -4.3097 C.ar    
  12 C12           -5.5417     1.7740    -3.0712 C.ar    
  13 C13           -4.6574     1.1679    -2.1814 C.ar    
  14 C14           -6.1803     3.0072    -2.7218 C.1     
  15 O15           -3.0936    -1.8817    -1.4672 O.2     
  16 C16           -6.7039     4.0182    -2.4354 C.1     
  17 C17           -7.3425     5.2513    -2.0861 C.ar    
  18 N18           -7.0840     5.8192    -0.9119 N.ar    
  19 C19           -7.6513     6.9530    -0.5543 C.ar    
  20 C20           -8.5423     7.5974    -1.3926 C.ar    
  21 C21           -8.8416     7.0400    -2.6289 C.ar    
  22 C22           -8.2288     5.8526    -2.9842 C.ar    
  23 C23            1.4534     1.8123    -0.2735 C.ar    
  24 O24           -6.6738     1.7500    -5.1771 O.3     
  25 N25            2.4335     0.9215    -0.2671 N.ar    
  26 C26            3.7002     1.3033    -0.3367 C.ar    
  27 C27            3.9962     2.6514    -0.4170 C.ar    
  28 C28            2.9419     3.5650    -0.4216 C.ar    
  29 N29            1.6962     3.1122    -0.3542 N.ar    
  30 C30           -6.8984     1.0784    -6.4183 C.3     
  31 F31           -5.6891     0.9645    -7.1124 F       
  32 F32           -7.4163    -0.1975    -6.1712 F       
  33 Br33           5.7893     3.2434    -0.5176 Br      
  34 O34            3.1862     4.8958    -0.4985 O.3     
  35 C35            2.0518     5.7648    -0.4977 C.3     
  36 H36            0.4245    -0.5200    -1.0649 H       
  37 H37            0.7184    -0.4407     0.6893 H       
  38 H38           -1.4369    -1.6124     0.0825 H       
  39 H39           -1.6762    -0.1865     1.1265 H       
  40 H40           -2.6959     1.8009    -2.0034 H       
  41 H41           -2.5070     2.0659    -0.2499 H       
  42 H42           -0.5377     2.9647    -1.3918 H       
  43 H43           -0.2934     1.4265    -2.2544 H       
  44 H44           -3.8289    -1.5528    -4.0368 H       
  45 H45           -5.3958    -0.4912    -5.5986 H       
  46 H46           -4.4472     1.6288    -1.2276 H       
  47 H47           -7.4175     7.3852     0.4074 H       
  48 H48           -9.0018     8.5262    -1.0884 H       
  49 H49           -9.5346     7.5257    -3.3000 H       
  50 H50           -8.4385     5.3918    -3.9382 H       
  51 H51            4.4928     0.5696    -0.3306 H       
  52 H52           -7.6085     1.6491    -7.0168 H       
  53 H53            2.3869     6.7999    -0.5632 H       
  54 H54            1.4165     5.5337    -1.3527 H       
  55 H55            1.4866     5.6235     0.4236 H       
@<TRIPOS>BOND
   1    1    2 1
   2    1   23 1
   3    1    6 1
   4    2    3 1
   5    2   36 1
   6    2   37 1
   7    3    4 1
   8    3   38 1
   9    3   39 1
  10    4    5 1
  11    4    7 am
  12    5    6 1
  13    5   40 1
  14    5   41 1
  15    6   42 1
  16    6   43 1
  17    7    8 1
  18    7   15 2
  19    8    9 ar
  20    8   13 ar
  21    9   10 ar
  22    9   44 1
  23   10   11 ar
  24   10   45 1
  25   11   12 ar
  26   11   24 1
  27   12   13 ar
  28   12   14 1
  29   13   46 1
  30   14   16 3
  31   16   17 1
  32   17   18 ar
  33   17   22 ar
  34   18   19 ar
  35   19   20 ar
  36   19   47 1
  37   20   21 ar
  38   20   48 1
  39   21   22 ar
  40   21   49 1
  41   22   50 1
  42   23   25 ar
  43   23   29 ar
  44   24   30 1
  45   25   26 ar
  46   26   27 ar
  47   26   51 1
  48   27   28 ar
  49   27   33 1
  50   28   29 ar
  51   28   34 1
  52   30   31 1
  53   30   32 1
  54   30   52 1
  55   34   35 1
  56   35   53 1
  57   35   54 1
  58   35   55 1

#	End of record

