#	Name: ASD07030024
#	Creating user name:	WinNT
#	Creation time:	15. 06. 2019 21:08

#	Modifying user name:	WinNT
#	Modification time:	15. 06. 2019 21:08

#	Program:	/corina/corina34_cracker 3.40 0067  02.08.2006

@<TRIPOS>MOLECULE
ASD07030024
  65   69    0    0    0
SMALL
NO_CHARGES


@<TRIPOS>ATOM
   1 N1            -0.0179     1.4702     0.0101 N.3     
   2 C2             0.0021    -0.0041     0.0020 C.3     
   3 C3             1.4820    -0.4413     0.0110 C.3     
   4 C4             2.2089     0.7978     0.5967 C.3     
   5 C5             1.3770     1.9600    -0.0006 C.3     
   6 N6             1.6723    -1.6126     0.8769 N.3     
   7 C7            -0.7682     1.9929    -1.1396 C.3     
   8 C8            -0.9813     3.4982    -0.9679 C.3     
   9 N9            -1.7316     4.0208    -2.1176 N.3     
  10 C10           -1.9554     5.4668    -1.9869 C.3     
  11 C11           -2.1713     6.2673    -3.2727 C.3     
  12 C12           -3.3474     6.0001    -2.3313 C.3     
  13 C13           -1.6222     7.6700    -3.3196 C.ar    
  14 C14           -0.6837     8.0122    -4.2755 C.ar    
  15 C15           -0.1789     9.2973    -4.3205 C.ar    
  16 C16           -0.6144    10.2448    -3.4055 C.ar    
  17 C17           -1.5561     9.8989    -2.4474 C.ar    
  18 C18           -2.0621     8.6140    -2.4101 C.ar    
  19 O19           -0.1189    11.5096    -3.4475 O.3     
  20 C20           -0.6128    12.4324    -2.4746 C.3     
  21 C21            1.2540    16.2366    -3.0427 C.ar    
  22 C22            0.0647    15.9357    -3.7034 C.ar    
  23 C23           -0.5338    14.7062    -3.5161 C.ar    
  24 C24            0.0451    13.7734    -2.6747 C.ar    
  25 C25            1.2255    14.0669    -2.0160 C.ar    
  26 C26            1.8326    15.2933    -2.1960 C.ar    
  27 C27            1.9054    17.5545    -3.2449 C.ar    
  28 C28            3.0947    17.8554    -2.5842 C.ar    
  29 C29            3.6962    19.0827    -2.7759 C.ar    
  30 C30            3.1202    20.0135    -3.6216 C.ar    
  31 C31            1.9394    19.7202    -4.2797 C.ar    
  32 C32            1.3329    18.4935    -4.1005 C.ar    
  33 H33           -0.5030    -0.3866     0.8889 H       
  34 H34           -0.4892    -0.3766    -0.8968 H       
  35 H35            1.8287    -0.6487    -1.0014 H       
  36 H36            2.1590     0.8012     1.6856 H       
  37 H37            3.2429     0.8417     0.2547 H       
  38 H38            1.6974     2.1707    -1.0209 H       
  39 H39            1.4709     2.8516     0.6194 H       
  40 H40            2.6388    -1.9023     0.8860 H       
  41 H41            1.3411    -1.4285     1.8121 H       
  42 H42           -0.2061     1.8076    -2.0549 H       
  43 H43           -1.7352     1.4935    -1.1997 H       
  44 H44           -1.5434     3.6835    -0.0526 H       
  45 H45           -0.0143     3.9975    -0.9077 H       
  46 H46           -1.2623     3.8045    -2.9842 H       
  47 H47           -1.4163     5.9546    -1.1748 H       
  48 H48           -2.1472     5.7211    -4.2157 H       
  49 H49           -4.0972     5.2781    -2.6550 H       
  50 H50           -3.7241     6.8389    -1.7459 H       
  51 H51           -0.3448     7.2741    -4.9873 H       
  52 H52            0.5544     9.5640    -5.0672 H       
  53 H53           -1.8967    10.6348    -1.7340 H       
  54 H54           -2.7988     8.3455    -1.6674 H       
  55 H55           -1.6919    12.5367    -2.5876 H       
  56 H56           -0.3862    12.0622    -1.4748 H       
  57 H57           -0.3881    16.6634    -4.3605 H       
  58 H58           -1.4556    14.4720    -4.0276 H       
  59 H59            1.6731    13.3350    -1.3600 H       
  60 H60            2.7546    15.5212    -1.6817 H       
  61 H61            3.5449    17.1296    -1.9231 H       
  62 H62            4.6180    19.3170    -2.2643 H       
  63 H63            3.5940    20.9728    -3.7685 H       
  64 H64            1.4938    20.4507    -4.9386 H       
  65 H65            0.4136    18.2636    -4.6187 H       
@<TRIPOS>BOND
   1    1    2 1
   2    1    5 1
   3    1    7 1
   4    2    3 1
   5    2   33 1
   6    2   34 1
   7    3    4 1
   8    3    6 1
   9    3   35 1
  10    4    5 1
  11    4   36 1
  12    4   37 1
  13    5   38 1
  14    5   39 1
  15    6   40 1
  16    6   41 1
  17    7    8 1
  18    7   42 1
  19    7   43 1
  20    8    9 1
  21    8   44 1
  22    8   45 1
  23    9   10 1
  24    9   46 1
  25   10   11 1
  26   10   12 1
  27   10   47 1
  28   11   12 1
  29   11   13 1
  30   11   48 1
  31   12   49 1
  32   12   50 1
  33   13   14 ar
  34   13   18 ar
  35   14   15 ar
  36   14   51 1
  37   15   16 ar
  38   15   52 1
  39   16   17 ar
  40   16   19 1
  41   17   18 ar
  42   17   53 1
  43   18   54 1
  44   19   20 1
  45   20   24 1
  46   20   55 1
  47   20   56 1
  48   21   22 ar
  49   21   26 ar
  50   21   27 1
  51   22   23 ar
  52   22   57 1
  53   23   24 ar
  54   23   58 1
  55   24   25 ar
  56   25   26 ar
  57   25   59 1
  58   26   60 1
  59   27   28 ar
  60   27   32 ar
  61   28   29 ar
  62   28   61 1
  63   29   30 ar
  64   29   62 1
  65   30   31 ar
  66   30   63 1
  67   31   32 ar
  68   31   64 1
  69   32   65 1

#	End of record

