#	Name: ASD01915895
#	Creating user name:	WinNT
#	Creation time:	15. 06. 2019 20:06

#	Modifying user name:	WinNT
#	Modification time:	15. 06. 2019 20:06

#	Program:	/corina/corina34_cracker 3.40 0067  02.08.2006

@<TRIPOS>MOLECULE
ASD01915895
  28   30    0    0    0
SMALL
NO_CHARGES


@<TRIPOS>ATOM
   1 C1             0.0145     1.2667    -0.7526 C.2     
   2 C2             0.0158    -0.0535    -0.3413 C.2     
   3 C3            -1.2988    -0.8067    -0.2273 C.3     
   4 C4            -2.4038     0.1863     0.1271 C.3     
   5 N5            -2.3817     1.3781    -0.7106 N.am    
   6 C6            -1.2243     1.9697    -1.0925 C.2     
   7 O7            -1.2149     3.0347    -1.6821 O.2     
   8 S8             1.6658     1.8440    -0.7790 S.3     
   9 C9             2.2184     0.3130    -0.2520 C.2     
  10 N10            1.2181    -0.5032    -0.0906 N.2     
  11 H11           -3.2231     1.7590    -1.0073 H       
  12 O12            3.5150    -0.0045    -0.0330 O.3     
  13 C13            4.4410     0.9844    -0.1401 C.ar    
  14 C14            4.5769     1.9179     0.8734 C.ar    
  15 C15            5.5295     2.9315     0.7593 C.ar    
  16 C16            6.3390     2.9971    -0.3765 C.ar    
  17 C17            6.1949     2.0613    -1.3805 C.ar    
  18 C18            5.2545     1.0548    -1.2636 C.ar    
  19 C19            5.6758     3.9010     1.8031 C.1     
  20 N20            5.7919     4.6701     2.6310 N.1     
  21 H21           -1.5293    -1.2859    -1.1788 H       
  22 H22           -1.2209    -1.5615     0.5552 H       
  23 H23           -3.3693    -0.3064     0.0123 H       
  24 H24           -2.2863     0.4862     1.1684 H       
  25 H25            3.9475     1.8620     1.7493 H       
  26 H26            7.0773     3.7798    -0.4693 H       
  27 H27            6.8214     2.1133    -2.2587 H       
  28 H28            5.1463     0.3254    -2.0527 H       
@<TRIPOS>BOND
   1    1    2 2
   2    1    8 1
   3    1    6 1
   4    2    3 1
   5    2   10 1
   6    3    4 1
   7    3   21 1
   8    3   22 1
   9    4    5 1
  10    4   23 1
  11    4   24 1
  12    5    6 am
  13    5   11 1
  14    6    7 2
  15    8    9 1
  16    9   10 2
  17    9   12 1
  18   12   13 1
  19   13   14 ar
  20   13   18 ar
  21   14   15 ar
  22   14   25 1
  23   15   16 ar
  24   15   19 1
  25   16   17 ar
  26   16   26 1
  27   17   18 ar
  28   17   27 1
  29   18   28 1
  30   19   20 3

#	End of record

