#	Name: ASD08070551
#	Creating user name:	WinNT
#	Creation time:	15. 06. 2019 21:15

#	Modifying user name:	WinNT
#	Modification time:	15. 06. 2019 21:15

#	Program:	/corina/corina34_cracker 3.40 0067  02.08.2006

@<TRIPOS>MOLECULE
ASD08070551
  44   44    0    0    0
SMALL
NO_CHARGES


@<TRIPOS>ATOM
   1 C1             0.4527     0.8746    -0.5126 C.ar    
   2 C2             0.6261    -0.4963    -0.5563 C.ar    
   3 C3             1.9007    -1.0425    -0.4854 C.ar    
   4 C4             3.0041    -0.2142    -0.3705 C.ar    
   5 C5             2.8307     1.1696    -0.3267 C.ar    
   6 C6             1.5457     1.7094    -0.3986 C.ar    
   7 C7             4.0041     2.0608    -0.2036 C.2     
   8 O8             5.1222     1.5884    -0.1403 O.2     
   9 N9             3.8338     3.3972    -0.1615 N.am    
  10 C10            4.9963     4.2802    -0.0395 C.3     
  11 C11            4.6562     5.6543    -0.6202 C.3     
  12 C12            5.3656     4.4266     1.4143 C.2     
  13 C13           -0.5726    -1.4011    -0.6809 C.3     
  14 O14            6.4077     5.1951     1.7679 O.3     
  15 C15            6.7056     5.2900     3.1858 C.3     
  16 C16            4.3846     5.5211    -2.1200 C.3     
  17 C17            3.9043     6.8645    -2.6726 C.3     
  18 O18            2.0651    -2.3909    -0.5285 O.3     
  19 C19            3.4041    -2.8840    -0.4507 C.3     
  20 C20            5.6711     5.1055    -2.8363 C.3     
  21 O21            4.7235     3.8523     2.2615 O.2     
  22 H22           -0.5408     1.2937    -0.5723 H       
  23 H23            3.9960    -0.6378    -0.3145 H       
  24 H24            1.4068     2.7799    -0.3655 H       
  25 H25            2.9415     3.7742    -0.2120 H       
  26 H26            5.8365     3.8525    -0.5864 H       
  27 H27            3.7696     6.0491    -0.1240 H       
  28 H28            5.4940     6.3332    -0.4616 H       
  29 H29           -0.7870    -1.5771    -1.7350 H       
  30 H30           -0.3634    -2.3511    -0.1891 H       
  31 H31           -1.4344    -0.9295    -0.2087 H       
  32 H32            6.9274     4.2974     3.5778 H       
  33 H33            7.5682     5.9399     3.3332 H       
  34 H34            5.8449     5.7041     3.7110 H       
  35 H35            3.6167     4.7651    -2.2844 H       
  36 H36            3.7953     6.7942    -3.7548 H       
  37 H37            2.9428     7.1181    -2.2263 H       
  38 H38            4.6328     7.6384    -2.4303 H       
  39 H39            3.9850    -2.4913    -1.2853 H       
  40 H40            3.8553    -2.5637     0.4885 H       
  41 H41            3.3935    -3.9730    -0.4959 H       
  42 H42            6.0132     4.1484    -2.4426 H       
  43 H43            5.4776     5.0106    -3.9048 H       
  44 H44            6.4390     5.8614    -2.6719 H       
@<TRIPOS>BOND
   1    1    2 ar
   2    1    6 ar
   3    1   22 1
   4    2    3 ar
   5    2   13 1
   6    3    4 ar
   7    3   18 1
   8    4    5 ar
   9    4   23 1
  10    5    6 ar
  11    5    7 1
  12    6   24 1
  13    7    8 2
  14    7    9 am
  15    9   10 1
  16    9   25 1
  17   10   11 1
  18   10   12 1
  19   10   26 1
  20   11   16 1
  21   11   27 1
  22   11   28 1
  23   12   21 2
  24   12   14 1
  25   13   29 1
  26   13   30 1
  27   13   31 1
  28   14   15 1
  29   15   32 1
  30   15   33 1
  31   15   34 1
  32   16   17 1
  33   16   20 1
  34   16   35 1
  35   17   36 1
  36   17   37 1
  37   17   38 1
  38   18   19 1
  39   19   39 1
  40   19   40 1
  41   19   41 1
  42   20   42 1
  43   20   43 1
  44   20   44 1

#	End of record

