#	Name: ASD00071062
#	Creating user name:	WinNT
#	Creation time:	15. 06. 2019 18:30

#	Modifying user name:	WinNT
#	Modification time:	15. 06. 2019 18:30

#	Program:	/corina/corina34_cracker 3.40 0067  02.08.2006

@<TRIPOS>MOLECULE
ASD00071062
  42   44    0    0    0
SMALL
NO_CHARGES


@<TRIPOS>ATOM
   1 N1             1.4367     1.2655    -1.2754 N.ar    
   2 C2             1.4049    -0.0507    -1.2412 C.ar    
   3 C3             1.2046    -0.7490    -0.0414 C.ar    
   4 C4             1.0380    -0.0629     1.1234 C.ar    
   5 C5             1.0735     1.3462     1.0800 C.ar    
   6 C6             0.9094     2.1146     2.2424 C.ar    
   7 C7             0.9501     3.4741     2.1627 C.ar    
   8 C8             1.1521     4.1120     0.9415 C.ar    
   9 C9             1.3145     3.3966    -0.2057 C.ar    
  10 C10            1.2791     1.9927    -0.1632 C.ar    
  11 N11            1.5730    -0.7629    -2.4191 N.pl3   
  12 C12            1.1732    -2.2557    -0.0411 C.3     
  13 C13            1.0658    -2.7556     1.3765 C.ar    
  14 C14           -0.1751    -2.8728     1.9776 C.ar    
  15 C15           -0.2729    -3.3318     3.2804 C.ar    
  16 C16            0.8681    -3.6734     3.9824 C.ar    
  17 C17            2.1085    -3.5583     3.3856 C.ar    
  18 C18            2.2100    -3.1041     2.0783 C.ar    
  19 O19            3.4295    -2.9953     1.4885 O.3     
  20 C20            5.6746    -3.8593     1.2577 C.3     
  21 C21            4.5527    -3.4806     2.2266 C.3     
  22 C22            5.0474    -2.3897     3.1784 C.3     
  23 F23           -1.2912    -2.5390     1.2935 F       
  24 H24            0.8823    -0.5846     2.0562 H       
  25 H25            0.7514     1.6311     3.1951 H       
  26 H26            0.8236     4.0646     3.0581 H       
  27 H27            1.1801     5.1909     0.9036 H       
  28 H28            1.4696     3.9066    -1.1450 H       
  29 H29            1.6389    -0.2927    -3.2650 H       
  30 H30            1.6246    -1.7313    -2.3973 H       
  31 H31            0.3130    -2.6013    -0.6144 H       
  32 H32            2.0885    -2.6382    -0.4929 H       
  33 H33           -1.2418    -3.4226     3.7489 H       
  34 H34            0.7895    -4.0305     4.9986 H       
  35 H35            2.9991    -3.8252     3.9352 H       
  36 H36            5.9696    -2.9816     0.6825 H       
  37 H37            6.5314    -4.2295     1.8207 H       
  38 H38            5.3222    -4.6365     0.5796 H       
  39 H39            4.2577    -4.3583     2.8018 H       
  40 H40            4.2481    -2.1199     3.8687 H       
  41 H41            5.9042    -2.7599     3.7414 H       
  42 H42            5.3423    -1.5120     2.6032 H       
@<TRIPOS>BOND
   1    1    2 ar
   2    1   10 ar
   3    2    3 ar
   4    2   11 1
   5    3    4 ar
   6    3   12 1
   7    4    5 ar
   8    4   24 1
   9    5    6 ar
  10    5   10 ar
  11    6    7 ar
  12    6   25 1
  13    7    8 ar
  14    7   26 1
  15    8    9 ar
  16    8   27 1
  17    9   10 ar
  18    9   28 1
  19   11   29 1
  20   11   30 1
  21   12   13 1
  22   12   31 1
  23   12   32 1
  24   13   14 ar
  25   13   18 ar
  26   14   15 ar
  27   14   23 1
  28   15   16 ar
  29   15   33 1
  30   16   17 ar
  31   16   34 1
  32   17   18 ar
  33   17   35 1
  34   18   19 1
  35   19   21 1
  36   20   21 1
  37   20   36 1
  38   20   37 1
  39   20   38 1
  40   21   22 1
  41   21   39 1
  42   22   40 1
  43   22   41 1
  44   22   42 1

#	End of record

