#	Name: ASD01882681
#	Creating user name:	WinNT
#	Creation time:	15. 06. 2019 19:45

#	Modifying user name:	WinNT
#	Modification time:	15. 06. 2019 19:45

#	Program:	/corina/corina34_cracker 3.40 0067  02.08.2006

@<TRIPOS>MOLECULE
ASD01882681
  47   50    0    0    0
SMALL
NO_CHARGES


@<TRIPOS>ATOM
   1 C1             1.5484     1.4579    -1.0838 C.2     
   2 C2             1.6032     0.0534    -1.1156 C.2     
   3 C3             1.2066    -0.6546    -0.0130 C.2     
   4 C4             0.7515     0.0354     1.1313 C.2     
   5 C5             0.7072     1.3822     1.1399 C.2     
   6 N6             1.1002     2.0975     0.0463 N.pl3   
   7 N7             1.6255     3.5578    -1.4478 N.2     
   8 N8             1.8579     2.4009    -1.9607 N.2     
   9 C9             1.1652     3.4314    -0.2310 C.2     
  10 C10            0.7792     4.5543     0.6970 C.3     
  11 C11            1.9966     4.9750     1.5226 C.3     
  12 C12            1.6047     6.1150     2.4647 C.3     
  13 N13            1.2514    -2.0467    -0.0204 N.pl3   
  14 C14            2.5313    -2.7602    -0.1465 C.3     
  15 C15            2.6246    -3.7953     0.9796 C.3     
  16 N16            1.4311    -4.6513     0.9536 N.3     
  17 C17            0.2121    -3.8741     1.2140 C.3     
  18 C18            0.0205    -2.8422     0.1037 C.3     
  19 C19            1.5539    -5.7108     1.8603 C.ar    
  20 C20            0.6343    -5.8530     2.8942 C.ar    
  21 C21            0.7580    -6.9007     3.7876 C.ar    
  22 C22            1.7964    -7.8074     3.6531 C.ar    
  23 C23            2.7120    -7.6669     2.6246 C.ar    
  24 C24            2.5896    -6.6242     1.7257 C.ar    
  25 F25            1.9160    -8.8304     4.5274 F       
  26 F26           -0.3781    -4.9682     3.0253 F       
  27 Cl27           2.1662    -0.7725    -2.5350 Cl      
  28 H28            0.4372    -0.5184     2.0036 H       
  29 H29            0.3571     1.9003     2.0204 H       
  30 H30            0.4256     5.4035     0.1123 H       
  31 H31           -0.0139     4.2175     1.3646 H       
  32 H32            2.3501     4.1257     2.1073 H       
  33 H33            2.7897     5.3117     0.8550 H       
  34 H34            0.8117     5.7783     3.1324 H       
  35 H35            2.4720     6.4147     3.0529 H       
  36 H36            1.2512     6.9643     1.8800 H       
  37 H37            2.5760    -3.2643    -1.1119 H       
  38 H38            3.3553    -2.0517    -0.0618 H       
  39 H39            3.5149    -4.4080     0.8376 H       
  40 H40            2.6843    -3.2834     1.9401 H       
  41 H41           -0.6473    -4.5440     1.2420 H       
  42 H42            0.3053    -3.3612     2.1713 H       
  43 H43           -0.8147    -2.1880     0.3537 H       
  44 H44           -0.1808    -3.3544    -0.8372 H       
  45 H45            0.0449    -7.0120     4.5911 H       
  46 H46            3.5207    -8.3754     2.5220 H       
  47 H47            3.3024    -6.5181     0.9212 H       
@<TRIPOS>BOND
   1    1    2 1
   2    1    6 1
   3    1    8 2
   4    2    3 2
   5    2   27 1
   6    3    4 1
   7    3   13 1
   8    4    5 2
   9    4   28 1
  10    5    6 1
  11    5   29 1
  12    6    9 1
  13    7    8 1
  14    7    9 2
  15    9   10 1
  16   10   11 1
  17   10   30 1
  18   10   31 1
  19   11   12 1
  20   11   32 1
  21   11   33 1
  22   12   34 1
  23   12   35 1
  24   12   36 1
  25   13   14 1
  26   13   18 1
  27   14   15 1
  28   14   37 1
  29   14   38 1
  30   15   16 1
  31   15   39 1
  32   15   40 1
  33   16   17 1
  34   16   19 1
  35   17   18 1
  36   17   41 1
  37   17   42 1
  38   18   43 1
  39   18   44 1
  40   19   20 ar
  41   19   24 ar
  42   20   21 ar
  43   20   26 1
  44   21   22 ar
  45   21   45 1
  46   22   23 ar
  47   22   25 1
  48   23   24 ar
  49   23   46 1
  50   24   47 1

#	End of record

