#	Name: ASD06020001
#	Creating user name:	WinNT
#	Creation time:	15. 06. 2019 21:04

#	Modifying user name:	WinNT
#	Modification time:	15. 06. 2019 21:04

#	Program:	/corina/corina34_cracker 3.40 0067  02.08.2006

@<TRIPOS>MOLECULE
ASD06020001
  37   40    0    0    0
SMALL
NO_CHARGES


@<TRIPOS>ATOM
   1 C1             0.0072    -0.0031     0.0583 C.1     
   2 C2            -0.0129     1.4287     0.0557 C.ar    
   3 C3             1.1871     2.1442     0.0338 C.ar    
   4 C4             1.1679     3.5219     0.0313 C.ar    
   5 C5            -0.0521     4.2038     0.0507 C.ar    
   6 C6            -1.2524     3.4878     0.0727 C.ar    
   7 C7            -1.2327     2.1101     0.0693 C.ar    
   8 N8             0.0233    -1.1390     0.0603 N.1     
   9 C9            -0.8915     9.4871     0.0564 C.ar    
  10 C10           -0.5507     8.1300     0.0531 C.ar    
  11 C11            0.7984     7.7572     0.0312 C.ar    
  12 C12            1.7564     8.8033     0.0133 C.ar    
  13 C13            1.3374    10.0960     0.0181 C.ar    
  14 N14            0.0520    10.4125     0.0391 N.ar    
  15 S15           -1.5294     6.6673     0.0714 S.3     
  16 C16           -0.0729     5.6812     0.0486 C.2     
  17 N17            0.9772     6.4362     0.0300 N.2     
  18 N18           -2.2308     9.8645     0.0724 N.pl3   
  19 C19           -2.5737    11.2077     0.1882 C.ar    
  20 C20           -3.9075    11.5990     0.0927 C.ar    
  21 N21           -1.6322    12.1191     0.3953 N.ar    
  22 N22           -4.2282    12.8738     0.2035 N.ar    
  23 C23           -3.2856    13.7797     0.4049 C.ar    
  24 C24           -1.9622    13.3949     0.5052 C.ar    
  25 C25           -3.6566    15.2348     0.5309 C.3     
  26 Cl26          -2.7678     4.3343     0.0967 Cl      
  27 Cl27           2.6589     4.4107     0.0047 Cl      
  28 H28            2.1297     1.6172     0.0192 H       
  29 H29           -2.1602     1.5568     0.0814 H       
  30 H30            2.8116     8.5739    -0.0036 H       
  31 H31            2.0729    10.8867     0.0048 H       
  32 H32           -2.9253     9.1909     0.0028 H       
  33 H33           -4.6775    10.8599    -0.0722 H       
  34 H34           -1.1962    14.1373     0.6738 H       
  35 H35           -3.8525    15.4706     1.5769 H       
  36 H36           -2.8351    15.8520     0.1671 H       
  37 H37           -4.5504    15.4344    -0.0601 H       
@<TRIPOS>BOND
   1    1    2 1
   2    1    8 3
   3    2    3 ar
   4    2    7 ar
   5    3    4 ar
   6    3   28 1
   7    4    5 ar
   8    4   27 1
   9    5    6 ar
  10    5   16 1
  11    6    7 ar
  12    6   26 1
  13    7   29 1
  14    9   10 ar
  15    9   14 ar
  16    9   18 1
  17   10   11 ar
  18   10   15 1
  19   11   12 ar
  20   11   17 1
  21   12   13 ar
  22   12   30 1
  23   13   14 ar
  24   13   31 1
  25   15   16 1
  26   16   17 2
  27   18   19 1
  28   18   32 1
  29   19   20 ar
  30   19   21 ar
  31   20   22 ar
  32   20   33 1
  33   21   24 ar
  34   22   23 ar
  35   23   24 ar
  36   23   25 1
  37   24   34 1
  38   25   35 1
  39   25   36 1
  40   25   37 1

#	End of record

