#	Name: ASD03430825
#	Creating user name:	WinNT
#	Creation time:	15. 06. 2019 20:41

#	Modifying user name:	WinNT
#	Modification time:	15. 06. 2019 20:41

#	Program:	/corina/corina34_cracker 3.40 0067  02.08.2006

@<TRIPOS>MOLECULE
ASD03430825
  61   66    0    0    0
SMALL
NO_CHARGES


@<TRIPOS>ATOM
   1 O1            -0.2111     0.9349     0.4436 O.3     
   2 C2            -0.1018    -0.4149     0.2849 C.ar    
   3 C3             1.1618    -0.7656    -0.1847 C.ar    
   4 C4             1.9411     0.5145    -0.3185 C.3     
   5 C5             1.1046     1.5195     0.4856 C.3     
   6 O6            -1.4864    -3.8650     0.4529 O.3     
   7 C7            -0.7246    -2.7485     0.2849 C.ar    
   8 C8             0.5383    -3.0709    -0.1961 C.ar    
   9 C9             0.5785    -4.5766    -0.3689 C.3     
  10 C10           -0.9232    -4.9442    -0.3116 C.3     
  11 C11            1.4746    -2.0863    -0.4256 C.ar    
  12 C12           -1.0378    -1.4144     0.5193 C.ar    
  13 N13            4.1688     0.7084    -0.7920 N.am    
  14 C14            3.3372     0.3914     0.2204 C.2     
  15 C15            2.1027     0.9391    -1.7481 C.ar    
  16 C16            1.2156     1.2169    -2.7641 C.ar    
  17 C17            1.6848     1.5945    -4.0096 C.ar    
  18 C18            3.0463     1.6925    -4.2316 C.ar    
  19 C19            3.9389     1.4153    -3.2172 C.ar    
  20 C20            3.4756     1.0350    -1.9600 C.ar    
  21 O21            3.6544     0.0702     1.3462 O.2     
  22 C22            5.6296     0.7103    -0.6803 C.3     
  23 C23            6.1600    -0.7071    -0.9050 C.3     
  24 C24            5.8164    -1.1612    -2.3250 C.3     
  25 O25            5.5580    -1.5960     0.0382 O.3     
  26 C26            6.3419    -2.7556     0.3263 C.3     
  27 O27            7.4292    -2.3952     1.1808 O.3     
  28 C28            7.0497    -2.1669     2.5394 C.3     
  29 C29            8.2819    -1.9154     3.3697 C.ar    
  30 C30            8.6987    -0.6201     3.6133 C.ar    
  31 C31            9.8290    -0.3894     4.3748 C.ar    
  32 C32           10.5424    -1.4540     4.8932 C.ar    
  33 C33           10.1251    -2.7493     4.6504 C.ar    
  34 C34            8.9923    -2.9799     3.8924 C.ar    
  35 H35            1.1087     2.4982     0.0057 H       
  36 H36            1.4646     1.5891     1.5121 H       
  37 H37            1.0093    -4.8468    -1.3330 H       
  38 H38            1.1264    -5.0480     0.4470 H       
  39 H39           -1.0685    -5.8961     0.1990 H       
  40 H40           -1.3522    -4.9727    -1.3133 H       
  41 H41            2.4546    -2.3497    -0.7952 H       
  42 H42           -2.0187    -1.1525     0.8877 H       
  43 H43            0.1528     1.1396    -2.5886 H       
  44 H44            0.9894     1.8119    -4.8068 H       
  45 H45            3.4125     1.9870    -5.2040 H       
  46 H46            5.0007     1.4932    -3.3985 H       
  47 H47            6.0505     1.3790    -1.4312 H       
  48 H48            5.9176     1.0528     0.3136 H       
  49 H49            7.2419    -0.7154    -0.7726 H       
  50 H50            6.2756    -0.4832    -3.0444 H       
  51 H51            6.1943    -2.1710    -2.4851 H       
  52 H52            4.7345    -1.1529    -2.4573 H       
  53 H53            5.7202    -3.5000     0.8237 H       
  54 H54            6.7322    -3.1704    -0.6030 H       
  55 H55            6.3926    -1.2989     2.5922 H       
  56 H56            6.5260    -3.0428     2.9225 H       
  57 H57            8.1414     0.2117     3.2083 H       
  58 H58           10.1550     0.6226     4.5645 H       
  59 H59           11.4259    -1.2737     5.4876 H       
  60 H60           10.6826    -3.5810     5.0551 H       
  61 H61            8.6641    -3.9917     3.7058 H       
@<TRIPOS>BOND
   1    1    2 1
   2    1    5 1
   3    2    3 ar
   4    2   12 ar
   5    3    4 1
   6    3   11 ar
   7    4    5 1
   8    4   14 1
   9    4   15 1
  10    5   35 1
  11    5   36 1
  12    6    7 1
  13    6   10 1
  14    7    8 ar
  15    7   12 ar
  16    8    9 1
  17    8   11 ar
  18    9   10 1
  19    9   37 1
  20    9   38 1
  21   10   39 1
  22   10   40 1
  23   11   41 1
  24   12   42 1
  25   13   14 am
  26   13   20 1
  27   13   22 1
  28   14   21 2
  29   15   16 ar
  30   15   20 ar
  31   16   17 ar
  32   16   43 1
  33   17   18 ar
  34   17   44 1
  35   18   19 ar
  36   18   45 1
  37   19   20 ar
  38   19   46 1
  39   22   23 1
  40   22   47 1
  41   22   48 1
  42   23   24 1
  43   23   25 1
  44   23   49 1
  45   24   50 1
  46   24   51 1
  47   24   52 1
  48   25   26 1
  49   26   27 1
  50   26   53 1
  51   26   54 1
  52   27   28 1
  53   28   29 1
  54   28   55 1
  55   28   56 1
  56   29   30 ar
  57   29   34 ar
  58   30   31 ar
  59   30   57 1
  60   31   32 ar
  61   31   58 1
  62   32   33 ar
  63   32   59 1
  64   33   34 ar
  65   33   60 1
  66   34   61 1

#	End of record

