#	Name: ASD05430242
#	Creating user name:	WinNT
#	Creation time:	15. 06. 2019 21:00

#	Modifying user name:	WinNT
#	Modification time:	15. 06. 2019 21:00

#	Program:	/corina/corina34_cracker 3.40 0067  02.08.2006

@<TRIPOS>MOLECULE
ASD05430242
  67   73    0    0    0
SMALL
NO_CHARGES


@<TRIPOS>ATOM
   1 C1            -0.0163     1.3969     0.0998 C.ar    
   2 C2             0.0037     0.0179     0.3152 C.ar    
   3 C3             1.2272    -0.6364     0.4241 C.ar    
   4 C4             2.3874     0.1081     0.3144 C.ar    
   5 C5             2.2961     1.4858     0.0988 C.ar    
   6 N6             1.1085     2.0802    -0.0005 N.ar    
   7 C7             2.1273     4.3494     0.0714 C.3     
   8 C8             3.4455     3.6301    -0.1133 C.2     
   9 C9             3.5235     2.2871    -0.0194 C.2     
  10 C10            2.3937     5.8114     0.4421 C.3     
  11 C11            3.7075     6.0889     1.1815 C.3     
  12 N12            4.8198     5.6074     0.3598 N.pl3   
  13 C13            4.6384     4.4401    -0.3986 C.2     
  14 N14            5.4787     4.1165    -1.3315 N.2     
  15 N15           -1.1962    -0.7005     0.4211 N.pl3   
  16 C16           -1.5221    -1.8466    -0.2563 C.2     
  17 C17           -2.7595    -2.1976     0.1435 C.2     
  18 N18           -3.1818    -1.2940     1.0400 N.2     
  19 C19           -2.2522    -0.3950     1.2186 C.2     
  20 C20           -3.5353    -3.3981    -0.3341 C.3     
  21 C21            1.8948     6.8844    -0.5283 C.3     
  22 C22            1.1853     6.6747     0.8109 C.3     
  23 C23           -1.1599     3.4526    -0.2329 C.3     
  24 O24           -1.2052     2.0413    -0.0132 O.3     
  25 C25            6.1103     6.2870     0.3315 C.3     
  26 C26            6.6542     6.3004    -1.0975 C.3     
  27 N27            6.5447     4.9563    -1.6718 N.pl3   
  28 C28            6.0061     7.6772     0.8764 C.ar    
  29 C29            6.8391     7.7778     1.9945 C.ar    
  30 N30            7.4943     6.5866     2.2548 N.pl3   
  31 C31            7.1055     5.5743     1.2621 C.3     
  32 C32            5.2510     8.7461     0.4285 C.ar    
  33 C33            5.3518     9.9366     1.1372 C.ar    
  34 C34            6.9327     8.9813     2.7002 C.ar    
  35 C35            6.1721    10.0483     2.2436 C.ar    
  36 F36            6.2352    11.2283     2.8985 F       
  37 C37            5.8432     7.2844    -1.9432 C.3     
  38 H38            1.2696    -1.7026     0.5912 H       
  39 H39            3.3527    -0.3695     0.3947 H       
  40 H40            1.5572     4.3077    -0.8567 H       
  41 H41            1.5599     3.8697     0.8689 H       
  42 H42            4.4874     1.8001    -0.0311 H       
  43 H43            3.8136     7.1608     1.3486 H       
  44 H44            3.7063     5.5659     2.1378 H       
  45 H45           -0.9051    -2.3682    -0.9730 H       
  46 H46           -2.3148     0.4530     1.8844 H       
  47 H47           -3.3175    -4.2507     0.3090 H       
  48 H48           -4.6024    -3.1789    -0.2981 H       
  49 H49           -3.2469    -3.6328    -1.3588 H       
  50 H50            2.5019     7.7826    -0.6409 H       
  51 H51            1.3801     6.5487    -1.4285 H       
  52 H52            0.2037     6.2010     0.7916 H       
  53 H53            1.3256     7.4349     1.5793 H       
  54 H54           -0.6441     3.9334     0.5983 H       
  55 H55           -0.6256     3.6590    -1.1603 H       
  56 H56           -2.1755     3.8420    -0.3043 H       
  57 H57            7.7002     6.6068    -1.0857 H       
  58 H58            7.2197     4.6452    -2.2951 H       
  59 H59            8.1174     6.4414     2.9839 H       
  60 H60            6.6250     4.7279     1.7529 H       
  61 H61            7.9777     5.2413     0.6996 H       
  62 H62            4.6100     8.6588    -0.4364 H       
  63 H63            4.7772    10.7930     0.8165 H       
  64 H64            7.5710     9.0765     3.5662 H       
  65 H65            5.9232     8.2834    -1.5147 H       
  66 H66            6.2311     7.2937    -2.9617 H       
  67 H67            4.7975     6.9769    -1.9554 H       
@<TRIPOS>BOND
   1    1    2 ar
   2    1    6 ar
   3    1   24 1
   4    2    3 ar
   5    2   15 1
   6    3    4 ar
   7    3   38 1
   8    4    5 ar
   9    4   39 1
  10    5    6 ar
  11    5    9 1
  12    7    8 1
  13    7   10 1
  14    7   40 1
  15    7   41 1
  16    8    9 2
  17    8   13 1
  18    9   42 1
  19   10   11 1
  20   10   21 1
  21   10   22 1
  22   11   12 1
  23   11   43 1
  24   11   44 1
  25   12   13 1
  26   12   25 1
  27   13   14 2
  28   14   27 1
  29   15   16 1
  30   15   19 1
  31   16   17 2
  32   16   45 1
  33   17   18 1
  34   17   20 1
  35   18   19 2
  36   19   46 1
  37   20   47 1
  38   20   48 1
  39   20   49 1
  40   21   22 1
  41   21   50 1
  42   21   51 1
  43   22   52 1
  44   22   53 1
  45   23   24 1
  46   23   54 1
  47   23   55 1
  48   23   56 1
  49   25   26 1
  50   25   28 1
  51   25   31 1
  52   26   27 1
  53   26   37 1
  54   26   57 1
  55   27   58 1
  56   28   29 ar
  57   28   32 ar
  58   29   30 1
  59   29   34 ar
  60   30   31 1
  61   30   59 1
  62   31   60 1
  63   31   61 1
  64   32   33 ar
  65   32   62 1
  66   33   35 ar
  67   33   63 1
  68   34   35 ar
  69   34   64 1
  70   35   36 1
  71   37   65 1
  72   37   66 1
  73   37   67 1

#	End of record

