#	Name: ASD05740098
#	Creating user name:	WinNT
#	Creation time:	15. 06. 2019 21:02

#	Modifying user name:	WinNT
#	Modification time:	15. 06. 2019 21:02

#	Program:	/corina/corina34_cracker 3.40 0067  02.08.2006

@<TRIPOS>MOLECULE
ASD05740098
  51   52    0    0    0
SMALL
NO_CHARGES


@<TRIPOS>ATOM
   1 C1            -0.0167     1.3788     0.0096 C.ar    
   2 C2            -3.1525     0.9600     1.3211 C.3     
   3 C3            -2.9593    -0.5267     3.4258 C.2     
   4 C4            -2.3661    -1.7058     4.0785 C.2     
   5 C5            -2.5801    -0.2315     2.0447 C.2     
   6 C6            -1.6973    -1.0628     1.4328 C.2     
   7 C7            -1.1658    -2.1751     2.1132 C.2     
   8 O8            -1.4936    -2.4731     3.3807 O.3     
   9 C9            -1.2825    -0.7921     0.0096 C.3     
  10 C10            0.0021    -0.0041     0.0020 C.ar    
  11 C11            1.2313    -0.6502    -0.0132 C.ar    
  12 O12           -0.3775    -2.8958     1.5286 O.2     
  13 C13            1.1898     2.0719     0.0018 C.ar    
  14 N14            2.3416     1.4192    -0.0122 N.ar    
  15 C15            2.3896     0.1004    -0.0202 C.ar    
  16 N16            1.1857     3.4618     0.0098 N.am    
  17 S17            2.6173     4.2941     0.0017 S.o2    
  18 O18            2.2791     5.6741    -0.0221 O.2     
  19 O19            3.4269     3.7096     1.0128 O.2     
  20 C20           -2.8786    -1.7450     5.3271 C.2     
  21 N21           -3.7332    -0.6907     5.4907 N.pl3   
  22 C22           -3.7952     0.0487     4.3518 C.2     
  23 O23           -2.5910    -2.6822     6.2699 O.3     
  24 C24           -3.2394    -2.5489     7.5363 C.3     
  25 N25            3.3642     3.9707    -1.4405 N.am    
  26 C26            2.7562     4.4169    -2.6965 C.3     
  27 H27           -0.9550     1.9134     0.0170 H       
  28 H28           -3.8356     1.4930     1.9825 H       
  29 H29           -2.3435     1.6260     1.0211 H       
  30 H30           -3.6926     0.6229     0.4364 H       
  31 H31           -1.1317    -1.7377    -0.5111 H       
  32 H32           -2.0623    -0.2205    -0.4937 H       
  33 H33            1.2805    -1.7291    -0.0191 H       
  34 H34            3.3477    -0.3980    -0.0317 H       
  35 H35            0.3443     3.9443     0.0201 H       
  36 H36           -4.2277    -0.4994     6.3029 H       
  37 H37           -4.3916     0.9367     4.2033 H       
  38 H38           -2.9228    -3.3586     8.1937 H       
  39 H39           -2.9705    -1.5917     7.9832 H       
  40 H40           -4.3197    -2.5945     7.3979 H       
  41 H41            4.2043     3.4859    -1.4536 H       
  42 H42            1.7701     3.9649    -2.8034 H       
  43 H43            2.6592     5.5025    -2.6877 H       
  44 H44            3.3868     4.1151    -3.5327 H       
  45 C45            9.7314    13.3434    15.0620 C.3     
  46 N46            9.7513    11.8785    15.0539 N.2     
  47 C47           10.2920    11.2660    14.1079 C.1     
  48 O48           10.8146    10.6741    13.1937 O.2     
  49 H49           10.7540    13.7207    15.0542 H       
  50 H50            9.2043    13.7045    14.1789 H       
  51 H51            9.2213    13.6949    15.9588 H       
@<TRIPOS>BOND
   1    1   10 ar
   2    1   13 ar
   3    1   27 1
   4    2    5 1
   5    2   28 1
   6    2   29 1
   7    2   30 1
   8    3    4 1
   9    3    5 1
  10    3   22 2
  11    4   20 2
  12    4    8 1
  13    5    6 2
  14    6    7 1
  15    6    9 1
  16    7    8 1
  17    7   12 2
  18    9   10 1
  19    9   31 1
  20    9   32 1
  21   10   11 ar
  22   11   15 ar
  23   11   33 1
  24   13   14 ar
  25   13   16 1
  26   14   15 ar
  27   15   34 1
  28   16   17 am
  29   16   35 1
  30   17   18 2
  31   17   19 2
  32   17   25 am
  33   20   21 1
  34   20   23 1
  35   21   22 1
  36   21   36 1
  37   22   37 1
  38   23   24 1
  39   24   38 1
  40   24   39 1
  41   24   40 1
  42   25   26 1
  43   25   41 1
  44   26   42 1
  45   26   43 1
  46   26   44 1
  47   45   46 1
  48   45   49 1
  49   45   50 1
  50   45   51 1
  51   46   47 2
  52   47   48 2

#	End of record

