#	Name: ASD01870681
#	Creating user name:	WinNT
#	Creation time:	15. 06. 2019 19:39

#	Modifying user name:	WinNT
#	Modification time:	15. 06. 2019 19:39

#	Program:	/corina/corina34_cracker 3.40 0067  02.08.2006

@<TRIPOS>MOLECULE
ASD01870681
  38   41    0    0    0
SMALL
NO_CHARGES


@<TRIPOS>ATOM
   1 C1            -0.0175     1.4474     0.0142 C.2     
   2 C2             0.0020    -0.0040    -0.0009 C.2     
   3 C3             1.2279    -0.5353    -0.0718 C.2     
   4 S4             2.4386     0.6591    -0.1252 S.3     
   5 C5             1.2695     1.9672    -0.0498 C.2     
   6 C6            -1.2302    -0.8268     0.0573 C.ar    
   7 C7            -2.1539    -0.7807    -0.9886 C.ar    
   8 C8            -3.2999    -1.5505    -0.9280 C.ar    
   9 C9            -3.5316    -2.3648     0.1660 C.ar    
  10 C10           -2.6195    -2.4137     1.2045 C.ar    
  11 C11           -1.4683    -1.6535     1.1533 C.ar    
  12 N12           -1.0678     2.3087     0.0841 N.2     
  13 C13            1.4390     3.3733    -0.0444 C.2     
  14 N14            0.3428     4.1566     0.0229 N.am    
  15 C15           -0.8943     3.5946     0.0862 C.2     
  16 C16            0.4789     5.5517     0.0300 C.ar    
  17 C17            1.0628     6.1871     1.1179 C.ar    
  18 C18            1.1965     7.5612     1.1243 C.ar    
  19 C19            0.7477     8.3073     0.0440 C.ar    
  20 C20            0.1638     7.6730    -1.0431 C.ar    
  21 C21            0.0351     6.2984    -1.0534 C.ar    
  22 O22            2.5535     3.8660    -0.0990 O.2     
  23 O23            0.8796     9.6603     0.0509 O.3     
  24 C24            0.3957    10.3651    -1.0940 C.3     
  25 F25           -1.9281     0.0148    -2.0570 F       
  26 H26            1.4257    -1.5968    -0.0926 H       
  27 H27           -4.0159    -1.5161    -1.7358 H       
  28 H28           -4.4287    -2.9645     0.2096 H       
  29 H29           -2.8063    -3.0515     2.0558 H       
  30 H30           -0.7554    -1.6963     1.9634 H       
  31 H31           -1.7592     4.2389     0.1427 H       
  32 H32            1.4119     5.6065     1.9590 H       
  33 H33            1.6503     8.0555     1.9705 H       
  34 H34           -0.1861     8.2543    -1.8834 H       
  35 H35           -0.4148     5.8044    -1.9019 H       
  36 H36            0.5619    11.4340    -0.9598 H       
  37 H37            0.9271    10.0236    -1.9823 H       
  38 H38           -0.6710    10.1755    -1.2134 H       
@<TRIPOS>BOND
   1    1    2 1
   2    1    5 2
   3    1   12 1
   4    2    3 2
   5    2    6 1
   6    3    4 1
   7    3   26 1
   8    4    5 1
   9    5   13 1
  10    6    7 ar
  11    6   11 ar
  12    7    8 ar
  13    7   25 1
  14    8    9 ar
  15    8   27 1
  16    9   10 ar
  17    9   28 1
  18   10   11 ar
  19   10   29 1
  20   11   30 1
  21   12   15 2
  22   13   14 am
  23   13   22 2
  24   14   15 1
  25   14   16 1
  26   15   31 1
  27   16   17 ar
  28   16   21 ar
  29   17   18 ar
  30   17   32 1
  31   18   19 ar
  32   18   33 1
  33   19   20 ar
  34   19   23 1
  35   20   21 ar
  36   20   34 1
  37   21   35 1
  38   23   24 1
  39   24   36 1
  40   24   37 1
  41   24   38 1

#	End of record

