#	Name: ASD03110041
#	Creating user name:	WinNT
#	Creation time:	15. 06. 2019 20:33

#	Modifying user name:	WinNT
#	Modification time:	15. 06. 2019 20:33

#	Program:	/corina/corina34_cracker 3.40 0067  02.08.2006

@<TRIPOS>MOLECULE
ASD03110041
  20   20    0    0    0
SMALL
NO_CHARGES


@<TRIPOS>ATOM
   1 C1            -0.0162     1.3456     0.0094 C.2     
   2 C2             0.0021    -0.0041     0.0020 C.2     
   3 C3            -1.2747    -0.7646     0.0106 C.2     
   4 C4            -2.5539    -0.0490     0.0272 C.2     
   5 C5            -2.5722     1.3007     0.0346 C.2     
   6 C6            -1.2953     2.0611     0.0316 C.2     
   7 C7             1.2785     2.1168     0.0012 C.3     
   8 O8            -1.3118     3.2760     0.0387 O.2     
   9 O9             1.1825    -0.6644    -0.0137 O.3     
  10 O10           -1.2582    -1.9794     0.0036 O.2     
  11 O11           -3.7526     1.9610     0.0495 O.3     
  12 C12           -4.9404     1.1665     0.0566 C.3     
  13 H13           -3.4817    -0.6017     0.0331 H       
  14 H14            2.1165     1.4199    -0.0105 H       
  15 H15            1.3192     2.7490    -0.8858 H       
  16 H16            1.3362     2.7394     0.8940 H       
  17 H17            1.0945    -1.6274    -0.0180 H       
  18 H18           -4.9653     0.5422    -0.8365 H       
  19 H19           -4.9482     0.5326     0.9434 H       
  20 H20           -5.8137     1.8187     0.0685 H       
@<TRIPOS>BOND
   1    1    2 2
   2    1    7 1
   3    1    6 1
   4    2    3 1
   5    2    9 1
   6    3    4 1
   7    3   10 2
   8    4    5 2
   9    4   13 1
  10    5    6 1
  11    5   11 1
  12    6    8 2
  13    7   14 1
  14    7   15 1
  15    7   16 1
  16    9   17 1
  17   11   12 1
  18   12   18 1
  19   12   19 1
  20   12   20 1

#	End of record

