#	Name: ASD04880066
#	Creating user name:	WinNT
#	Creation time:	15. 06. 2019 20:52

#	Modifying user name:	WinNT
#	Modification time:	15. 06. 2019 20:52

#	Program:	/corina/corina34_cracker 3.40 0067  02.08.2006

@<TRIPOS>MOLECULE
ASD04880066
  49   51    0    0    0
SMALL
NO_CHARGES


@<TRIPOS>ATOM
   1 C1            -0.0144     1.2121     0.0087 C.2     
   2 O2             0.0525    -0.0022     0.0279 O.2     
   3 N3             1.1132     1.9484    -0.0448 N.am    
   4 N4             1.1708     3.3337    -0.1833 N.2     
   5 C5             2.3675     3.8107    -0.2094 C.2     
   6 C6             3.3643     2.6815    -0.0776 C.3     
   7 C7             2.4845     1.4212     0.0397 C.3     
   8 C8             2.7116     5.2375    -0.3473 C.ar    
   9 C9             1.6994     6.1945    -0.4620 C.ar    
  10 C10            2.0277     7.5306    -0.5905 C.ar    
  11 C11            3.3653     7.9214    -0.6054 C.ar    
  12 C12            4.3700     6.9721    -0.4916 C.ar    
  13 C13            4.0501     5.6371    -0.3577 C.ar    
  14 O14            3.6860     9.2363    -0.7323 O.3     
  15 C15            5.0762     9.5671    -0.7402 C.3     
  16 O16            1.0453     8.4643    -0.7028 O.3     
  17 C17           -0.3035     7.9928    -0.6804 C.3     
  18 C18           -1.3298     1.8788     0.0378 C.ar    
  19 C19           -2.5047     1.1214    -0.0470 C.ar    
  20 C20           -3.7398     1.7612    -0.0185 C.ar    
  21 C21           -3.8027     3.1401     0.0931 C.ar    
  22 C22           -2.6407     3.8890     0.1770 C.ar    
  23 C23           -1.4102     3.2693     0.1560 C.ar    
  24 O24           -4.8852     1.0325    -0.1009 O.3     
  25 C25           -6.1176     1.7550    -0.0656 C.3     
  26 O26           -2.4388    -0.2300    -0.1568 O.3     
  27 C27           -2.4316    -0.9802     1.0594 C.3     
  28 H28            4.0001     2.6276    -0.9613 H       
  29 H29            3.9676     2.8071     0.8215 H       
  30 H30            2.6465     0.9256     0.9969 H       
  31 H31            2.6843     0.7380    -0.7858 H       
  32 H32            0.6632     5.8903    -0.4507 H       
  33 H33            5.4053     7.2794    -0.5036 H       
  34 H34            4.8344     4.9004    -0.2651 H       
  35 H35            5.5320     9.2434     0.1955 H       
  36 H36            5.5645     9.0645    -1.5752 H       
  37 H37            5.1924    10.6456    -0.8470 H       
  38 H38           -0.4605     7.3014    -1.5084 H       
  39 H39           -0.4935     7.4798     0.2623 H       
  40 H40           -0.9854     8.8376    -0.7782 H       
  41 H41           -4.7629     3.6340     0.1146 H       
  42 H42           -2.6994     4.9639     0.2635 H       
  43 H43           -0.5076     3.8583     0.2266 H       
  44 H44           -6.1884     2.3071     0.8716 H       
  45 H45           -6.1537     2.4529    -0.9021 H       
  46 H46           -6.9507     1.0560    -0.1394 H       
  47 H47           -2.3764    -2.0443     0.8297 H       
  48 H48           -1.5677    -0.6926     1.6587 H       
  49 H49           -3.3453    -0.7759     1.6177 H       
@<TRIPOS>BOND
   1    1    2 2
   2    1    3 am
   3    1   18 1
   4    3    4 1
   5    3    7 1
   6    4    5 2
   7    5    6 1
   8    5    8 1
   9    6    7 1
  10    6   28 1
  11    6   29 1
  12    7   30 1
  13    7   31 1
  14    8    9 ar
  15    8   13 ar
  16    9   10 ar
  17    9   32 1
  18   10   11 ar
  19   10   16 1
  20   11   12 ar
  21   11   14 1
  22   12   13 ar
  23   12   33 1
  24   13   34 1
  25   14   15 1
  26   15   35 1
  27   15   36 1
  28   15   37 1
  29   16   17 1
  30   17   38 1
  31   17   39 1
  32   17   40 1
  33   18   19 ar
  34   18   23 ar
  35   19   20 ar
  36   19   26 1
  37   20   21 ar
  38   20   24 1
  39   21   22 ar
  40   21   41 1
  41   22   23 ar
  42   22   42 1
  43   23   43 1
  44   24   25 1
  45   25   44 1
  46   25   45 1
  47   25   46 1
  48   26   27 1
  49   27   47 1
  50   27   48 1
  51   27   49 1

#	End of record

