#	Name: ASD01209153
#	Creating user name:	WinNT
#	Creation time:	15. 06. 2019 19:11

#	Modifying user name:	WinNT
#	Modification time:	15. 06. 2019 19:11

#	Program:	/corina/corina34_cracker 3.40 0067  02.08.2006

@<TRIPOS>MOLECULE
ASD01209153
  72   74    0    0    0
SMALL
NO_CHARGES


@<TRIPOS>ATOM
   1 O1            -0.3802     4.0016     0.9064 O.3     
   2 O2             1.8142     4.8158     2.1038 O.3     
   3 C3             0.2733     6.3204    -9.5649 C.ar    
   4 C4             1.6528     6.3716    -9.6999 C.ar    
   5 C5             2.4629     6.4191    -8.5739 C.ar    
   6 C6             1.8962     6.4154    -7.3099 C.ar    
   7 C7             0.5087     6.3640    -7.1699 C.ar    
   8 C8            -0.3020     6.3217    -8.3047 C.ar    
   9 O9            -0.5155     6.2745   -10.6708 O.3     
  10 C10            0.1438     6.2821   -11.9386 C.3     
  11 O11            3.8138     6.4687    -8.7116 O.3     
  12 C12            4.5702     6.3933    -7.5910 C.2     
  13 C13            5.2995     7.4449    -7.2067 C.2     
  14 C14           -0.1006     6.3599    -5.8231 C.2     
  15 N15            0.6840     6.4059    -4.7283 N.am    
  16 O16           -1.3095     6.3150    -5.7031 O.2     
  17 C17            0.1115     6.4021    -3.4629 C.2     
  18 P18            1.0193     4.7715     0.7045 P.3     
  19 O19            1.8343     4.0572    -0.3035 O.2     
  20 C20            0.7000     6.4729     0.1329 C.3     
  21 N21            0.7727     6.4437    -2.3485 N.2     
  22 S22           -1.5682     6.3494    -3.1481 S.3     
  23 C23           -1.2551     6.3818    -1.4147 C.2     
  24 C24            0.0660     6.4330    -1.2337 C.2     
  25 C25           -0.4644     2.6169     1.2490 C.3     
  26 C26           -1.9344     2.2080     1.3624 C.3     
  27 C27            2.3027     3.6435     2.7589 C.3     
  28 C28            3.0061     4.0409     4.0582 C.3     
  29 C29           -0.8996     6.2263   -13.0563 C.3     
  30 O30           -1.6873     7.4183   -13.0326 O.3     
  31 C31           -2.6975     7.4676   -14.0421 C.3     
  32 C32            6.1392     7.3524    -6.0060 C.2     
  33 C33            6.4541     6.1620    -5.5065 C.2     
  34 C34            5.9771     4.9037    -6.1833 C.3     
  35 C35            4.5831     5.1259    -6.7765 C.3     
  36 S36            7.4345     6.0548    -4.0464 S.o2    
  37 C37            6.3314     5.3098    -2.8141 C.3     
  38 O38            8.4784     5.1541    -4.3905 O.2     
  39 O39            7.7144     7.4073    -3.7122 O.2     
  40 H40            2.0978     6.3743   -10.6840 H       
  41 H41            2.5271     6.4520    -6.4342 H       
  42 H42           -1.3762     6.2822    -8.2006 H       
  43 H43            0.7326     7.1942   -12.0365 H       
  44 H44            0.8011     5.4157   -12.0116 H       
  45 H45            5.2716     8.3607    -7.7783 H       
  46 H46            1.6486     6.4417    -4.8241 H       
  47 H47            0.0270     6.9705     0.8312 H       
  48 H48            1.6405     7.0214     0.0812 H       
  49 H49           -2.0021     6.3668    -0.6349 H       
  50 H50            0.0198     2.0211     0.4752 H       
  51 H51            0.0345     2.4477     2.2033 H       
  52 H52           -2.4186     2.8038     2.1362 H       
  53 H53           -2.4333     2.3772     0.4082 H       
  54 H54           -1.9986     1.1517     1.6238 H       
  55 H55            1.4684     2.9797     2.9857 H       
  56 H56            3.0085     3.1299     2.1060 H       
  57 H57            3.8404     4.7047     3.8314 H       
  58 H58            2.3003     4.5545     4.7110 H       
  59 H59            3.3787     3.1467     4.5578 H       
  60 H60           -0.3962     6.1425   -14.0194 H       
  61 H61           -1.5455     5.3610   -12.9075 H       
  62 H62           -2.2314     7.4096   -15.0257 H       
  63 H63           -3.3807     6.6281   -13.9137 H       
  64 H64           -3.2510     8.4028   -13.9569 H       
  65 H65            6.5011     8.2514    -5.5291 H       
  66 H66            6.6732     4.6343    -6.9777 H       
  67 H67            5.9334     4.0951    -5.4537 H       
  68 H68            3.8541     5.1995    -5.9695 H       
  69 H69            4.3251     4.2842    -7.4192 H       
  70 H70            6.0095     4.3279    -3.1611 H       
  71 H71            6.8619     5.2048    -1.8678 H       
  72 H72            5.4598     5.9490    -2.6730 H       
@<TRIPOS>BOND
   1    1   25 1
   2    1   18 1
   3    2   27 1
   4    2   18 1
   5    3    4 ar
   6    3    9 1
   7    3    8 ar
   8    4    5 ar
   9    4   40 1
  10    5    6 ar
  11    5   11 1
  12    6    7 ar
  13    6   41 1
  14    7    8 ar
  15    7   14 1
  16    8   42 1
  17    9   10 1
  18   10   29 1
  19   10   43 1
  20   10   44 1
  21   11   12 1
  22   12   13 2
  23   12   35 1
  24   13   32 1
  25   13   45 1
  26   14   15 am
  27   14   16 2
  28   15   17 1
  29   15   46 1
  30   17   21 2
  31   17   22 1
  32   18   19 2
  33   18   20 1
  34   20   24 1
  35   20   47 1
  36   20   48 1
  37   21   24 1
  38   22   23 1
  39   23   24 2
  40   23   49 1
  41   25   26 1
  42   25   50 1
  43   25   51 1
  44   26   52 1
  45   26   53 1
  46   26   54 1
  47   27   28 1
  48   27   55 1
  49   27   56 1
  50   28   57 1
  51   28   58 1
  52   28   59 1
  53   29   30 1
  54   29   60 1
  55   29   61 1
  56   30   31 1
  57   31   62 1
  58   31   63 1
  59   31   64 1
  60   32   33 2
  61   32   65 1
  62   33   34 1
  63   33   36 1
  64   34   35 1
  65   34   66 1
  66   34   67 1
  67   35   68 1
  68   35   69 1
  69   36   37 1
  70   36   38 2
  71   36   39 2
  72   37   70 1
  73   37   71 1
  74   37   72 1

#	End of record

