#	Name: ASD01915615
#	Creating user name:	WinNT
#	Creation time:	15. 06. 2019 20:05

#	Modifying user name:	WinNT
#	Modification time:	15. 06. 2019 20:05

#	Program:	/corina/corina34_cracker 3.40 0067  02.08.2006

@<TRIPOS>MOLECULE
ASD01915615
  46   49    0    0    0
SMALL
NO_CHARGES


@<TRIPOS>ATOM
   1 C1            -0.0166     1.3728     0.0096 C.2     
   2 N2             0.0021    -0.0041     0.0020 N.pl3   
   3 C3            -1.2434    -0.7807    -0.0179 C.3     
   4 C4            -2.3411     0.0067     0.6954 C.3     
   5 N5            -2.4044     1.3988     0.2637 N.am    
   6 C6            -1.2813     2.1228     0.0392 C.2     
   7 C7             1.2845     1.7904    -0.0006 C.2     
   8 C8             2.0437     0.6124    -0.0024 C.2     
   9 N9             1.2133    -0.4042     0.0045 N.2     
  10 C10            3.5482     0.5278    -0.0114 C.3     
  11 O11            4.0995     1.8462    -0.0181 O.3     
  12 C12            5.4546     1.9483    -0.0267 C.ar    
  13 O13           -1.3171     3.3271    -0.1285 O.2     
  14 C14            6.0572     3.1979    -0.0334 C.ar    
  15 C15            6.2377     0.8031    -0.0229 C.ar    
  16 C16            7.6150     0.9096    -0.0317 C.ar    
  17 C17            8.2132     2.1561    -0.0442 C.ar    
  18 C18            7.4349     3.2990    -0.0422 C.ar    
  19 C19           -3.6534     1.9998     0.0766 C.ar    
  20 C20           -4.2850     2.6589     1.1283 C.ar    
  21 C21           -5.5213     3.2386     0.8939 C.ar    
  22 C22           -6.0832     3.1447    -0.3655 C.ar    
  23 N23           -5.4593     2.5129    -1.3407 N.ar    
  24 C24           -4.2796     1.9531    -1.1624 C.ar    
  25 C25           -3.6095     1.2433    -2.3106 C.3     
  26 C26           -7.4277     3.7728    -0.6279 C.3     
  27 H27           -1.5404    -0.9656    -1.0502 H       
  28 H28           -1.0875    -1.7314     0.4921 H       
  29 H29           -3.3017    -0.4681     0.4955 H       
  30 H30           -2.1536    -0.0209     1.7688 H       
  31 H31            1.6485     2.8071    -0.0064 H       
  32 H32            3.8876    -0.0035     0.8778 H       
  33 H33            3.8767    -0.0079    -0.9021 H       
  34 H34            5.4498     4.0908    -0.0322 H       
  35 H35            5.7710    -0.1708    -0.0128 H       
  36 H36            8.2251     0.0184    -0.0285 H       
  37 H37            9.2901     2.2372    -0.0511 H       
  38 H38            7.9045     4.2715    -0.0524 H       
  39 H39           -3.8226     2.7165     2.1026 H       
  40 H40           -6.0403     3.7575     1.6863 H       
  41 H41           -2.9898     1.9500    -2.8626 H       
  42 H42           -2.9856     0.4370    -1.9250 H       
  43 H43           -4.3684     0.8297    -2.9747 H       
  44 H44           -7.2894     4.8008    -0.9628 H       
  45 H45           -7.9490     3.2063    -1.3995 H       
  46 H46           -8.0172     3.7656     0.2889 H       
@<TRIPOS>BOND
   1    1    2 1
   2    1    7 2
   3    1    6 1
   4    2    3 1
   5    2    9 1
   6    3    4 1
   7    3   27 1
   8    3   28 1
   9    4    5 1
  10    4   29 1
  11    4   30 1
  12    5    6 am
  13    5   19 1
  14    6   13 2
  15    7    8 1
  16    7   31 1
  17    8    9 2
  18    8   10 1
  19   10   11 1
  20   10   32 1
  21   10   33 1
  22   11   12 1
  23   12   14 ar
  24   12   15 ar
  25   14   18 ar
  26   14   34 1
  27   15   16 ar
  28   15   35 1
  29   16   17 ar
  30   16   36 1
  31   17   18 ar
  32   17   37 1
  33   18   38 1
  34   19   20 ar
  35   19   24 ar
  36   20   21 ar
  37   20   39 1
  38   21   22 ar
  39   21   40 1
  40   22   23 ar
  41   22   26 1
  42   23   24 ar
  43   24   25 1
  44   25   41 1
  45   25   42 1
  46   25   43 1
  47   26   44 1
  48   26   45 1
  49   26   46 1

#	End of record

