#	Name: ASD01140746
#	Creating user name:	WinNT
#	Creation time:	15. 06. 2019 19:01

#	Modifying user name:	WinNT
#	Modification time:	15. 06. 2019 19:01

#	Program:	/corina/corina34_cracker 3.40 0067  02.08.2006

@<TRIPOS>MOLECULE
ASD01140746
  33   35    0    0    0
SMALL
NO_CHARGES


@<TRIPOS>ATOM
   1 C1            -0.1018     1.7014     0.1726 C.3     
   2 C2            -0.0778     0.1988    -0.1146 C.3     
   3 H3             0.3620     0.0217    -1.0961 H       
   4 N4            -1.4420    -0.3270    -0.0871 N.2     
   5 C5            -2.2045    -0.1834     0.9385 C.2     
   6 C6            -3.5667    -0.7612     0.8659 C.ar    
   7 C7            -4.1662    -0.9875    -0.3729 C.ar    
   8 C8            -5.4350    -1.5263    -0.4340 C.ar    
   9 C9            -6.1124    -1.8419     0.7303 C.ar    
  10 C10           -5.5232    -1.6194     1.9621 C.ar    
  11 C11           -4.2526    -1.0864     2.0360 C.ar    
  12 C12           -1.8250     0.5113     2.1787 C.ar    
  13 C13           -2.7902     1.3265     2.7887 C.ar    
  14 C14           -2.4985     2.0062     3.9499 C.ar    
  15 Br15          -3.8107     3.1008     4.7596 Br      
  16 C16           -1.2437     1.8880     4.5256 C.ar    
  17 C17           -0.2864     1.0901     3.9384 C.ar    
  18 C18           -0.5644     0.3931     2.7611 C.ar    
  19 N19            0.4478    -0.3936     2.2329 N.am    
  20 C20            0.7383    -0.5022     0.9370 C.2     
  21 O21            1.6809    -1.1847     0.5955 O.2     
  22 H22            0.9161     2.0909     0.1559 H       
  23 H23           -0.6969     2.2072    -0.5878 H       
  24 H24           -0.5418     1.8767     1.1544 H       
  25 H25           -3.6385    -0.7412    -1.2824 H       
  26 H26           -5.9004    -1.7017    -1.3927 H       
  27 H27           -7.1053    -2.2635     0.6774 H       
  28 H28           -6.0570    -1.8675     2.8675 H       
  29 H29           -3.7917    -0.9176     2.9980 H       
  30 H30           -3.7696     1.4220     2.3437 H       
  31 H31           -1.0158     2.4224     5.4360 H       
  32 H32            0.6894     1.0034     4.3931 H       
  33 H33            0.9882    -0.9046     2.8557 H       
@<TRIPOS>BOND
   1    1    2 1
   2    1   22 1
   3    1   23 1
   4    1   24 1
   5    2    3 1
   6    2   20 1
   7    2    4 1
   8    4    5 2
   9    5    6 1
  10    5   12 1
  11    6   11 ar
  12    6    7 ar
  13    7    8 ar
  14    7   25 1
  15    8    9 ar
  16    8   26 1
  17    9   10 ar
  18    9   27 1
  19   10   11 ar
  20   10   28 1
  21   11   29 1
  22   12   18 ar
  23   12   13 ar
  24   13   14 ar
  25   13   30 1
  26   14   15 1
  27   14   16 ar
  28   16   17 ar
  29   16   31 1
  30   17   18 ar
  31   17   32 1
  32   18   19 1
  33   19   20 am
  34   19   33 1
  35   20   21 2

#	End of record

