#	Name: ASD03910054
#	Creating user name:	WinNT
#	Creation time:	15. 06. 2019 20:47

#	Modifying user name:	WinNT
#	Modification time:	15. 06. 2019 20:47

#	Program:	/corina/corina34_cracker 3.40 0067  02.08.2006

@<TRIPOS>MOLECULE
ASD03910054
  68   70    0    0    0
SMALL
NO_CHARGES


@<TRIPOS>ATOM
   1 C1            -0.3389    -0.4165     1.5366 C.ar    
   2 C2             0.7228     0.1873     0.8881 C.ar    
   3 C3             0.5346     1.3747     0.2049 C.ar    
   4 C4            -0.7151     1.9616     0.1685 C.ar    
   5 C5            -1.7834     1.3577     0.8187 C.ar    
   6 C6            -1.5924     0.1621     1.4988 C.ar    
   7 N7            -3.0507     1.9498     0.7837 N.am    
   8 C8            -3.1672     3.2925     0.7724 C.2     
   9 O9            -2.1805     3.9878     0.8904 O.2     
  10 C10           -4.3791     5.4298     0.6328 C.ar    
  11 C11           -4.1722     6.1188    -0.5479 C.ar    
  12 C12           -4.0452     7.4943    -0.5331 C.ar    
  13 C13           -4.1254     8.1843     0.6678 C.ar    
  14 C14           -4.3330     7.4906     1.8511 C.ar    
  15 C15           -4.4593     6.1151     1.8310 C.ar    
  16 O16           -4.0003     9.5374     0.6850 O.3     
  17 C17           -4.2058    10.1920     1.9385 C.3     
  18 C18           -5.5760     9.8640     2.4733 C.2     
  19 C19           -0.1293    -1.7105     2.2800 C.3     
  20 C20            1.6944     2.0292    -0.5004 C.3     
  21 O21           -5.7486     9.7472     3.6681 O.2     
  22 N22           -6.6095     9.7005     1.6239 N.am    
  23 C23           -4.5235     3.9298     0.6131 C.3     
  24 C24           -7.9157     9.2751     2.1329 C.3     
  25 C25           -8.6857    10.4797     2.6095 C.2     
  26 O26           -8.1938    11.5805     2.5319 O.2     
  27 O27           -9.9180    10.3296     3.1201 O.3     
  28 C28           -8.6966     8.5799     1.0158 C.3     
  29 C29           -3.1280     9.7531     2.9453 C.3     
  30 C30           -2.3599    11.0275     3.3522 C.3     
  31 C31           -3.3586    12.1782     3.0735 C.3     
  32 C32           -4.0562    11.7180     1.7686 C.3     
  33 C33           -7.9149     7.3569     0.5320 C.3     
  34 C34          -10.0608     8.1356     1.5474 C.3     
  35 H35            1.7011    -0.2693     0.9157 H       
  36 H36           -0.8613     2.8893    -0.3647 H       
  37 H37           -2.4213    -0.3101     2.0051 H       
  38 H38           -3.8455     1.3939     0.7677 H       
  39 H39           -4.1094     5.5812    -1.4825 H       
  40 H40           -3.8832     8.0321    -1.4556 H       
  41 H41           -4.3955     8.0254     2.7873 H       
  42 H42           -4.6210     5.5746     2.7519 H       
  43 H43            0.1433    -1.4959     3.3133 H       
  44 H44           -1.0499    -2.2938     2.2608 H       
  45 H45            0.6703    -2.2778     1.8036 H       
  46 H46            1.7519     1.6604    -1.5245 H       
  47 H47            1.5503     3.1096    -0.5109 H       
  48 H48            2.6198     1.7911     0.0241 H       
  49 H49           -6.4885     9.8644     0.6755 H       
  50 H50           -4.9616     3.6195    -0.3355 H       
  51 H51           -5.1707     3.6163     1.4321 H       
  52 H52           -7.7744     8.5826     2.9627 H       
  53 H53          -10.3726    11.1314     3.4125 H       
  54 H54           -8.8380     9.2724     0.1860 H       
  55 H55           -3.5961     9.3036     3.8210 H       
  56 H56           -2.4483     9.0407     2.4777 H       
  57 H57           -2.1008    10.9952     4.4105 H       
  58 H58           -1.4639    11.1440     2.7425 H       
  59 H59           -4.0802    12.2685     3.8854 H       
  60 H60           -2.8304    13.1190     2.9183 H       
  61 H61           -3.4344    11.9458     0.9028 H       
  62 H62           -5.0340    12.1899     1.6719 H       
  63 H63           -7.7735     6.6644     1.3618 H       
  64 H64           -8.4712     6.8616    -0.2639 H       
  65 H65           -6.9430     7.6734     0.1533 H       
  66 H66          -10.6177     9.0069     1.8921 H       
  67 H67          -10.6171     7.6403     0.7516 H       
  68 H68           -9.9194     7.4431     2.3772 H       
@<TRIPOS>BOND
   1    1    2 ar
   2    1   19 1
   3    1    6 ar
   4    2    3 ar
   5    2   35 1
   6    3    4 ar
   7    3   20 1
   8    4    5 ar
   9    4   36 1
  10    5    6 ar
  11    5    7 1
  12    6   37 1
  13    7    8 am
  14    7   38 1
  15    8    9 2
  16    8   23 1
  17   10   11 ar
  18   10   15 ar
  19   10   23 1
  20   11   12 ar
  21   11   39 1
  22   12   13 ar
  23   12   40 1
  24   13   14 ar
  25   13   16 1
  26   14   15 ar
  27   14   41 1
  28   15   42 1
  29   16   17 1
  30   17   18 1
  31   17   29 1
  32   17   32 1
  33   18   21 2
  34   18   22 am
  35   19   43 1
  36   19   44 1
  37   19   45 1
  38   20   46 1
  39   20   47 1
  40   20   48 1
  41   22   24 1
  42   22   49 1
  43   23   50 1
  44   23   51 1
  45   24   25 1
  46   24   28 1
  47   24   52 1
  48   25   26 2
  49   25   27 1
  50   27   53 1
  51   28   33 1
  52   28   34 1
  53   28   54 1
  54   29   30 1
  55   29   55 1
  56   29   56 1
  57   30   31 1
  58   30   57 1
  59   30   58 1
  60   31   32 1
  61   31   59 1
  62   31   60 1
  63   32   61 1
  64   32   62 1
  65   33   63 1
  66   33   64 1
  67   33   65 1
  68   34   66 1
  69   34   67 1
  70   34   68 1

#	End of record

