#	Name: ASD03160006
#	Creating user name:	WinNT
#	Creation time:	15. 06. 2019 20:33

#	Modifying user name:	WinNT
#	Modification time:	15. 06. 2019 20:33

#	Program:	/corina/corina34_cracker 3.40 0067  02.08.2006

@<TRIPOS>MOLECULE
ASD03160006
 128  130    0    0    0
SMALL
NO_CHARGES


@<TRIPOS>ATOM
   1 C1             2.7148     1.1549    -0.7352 C.3     
   2 S2             2.3029    -0.6071    -0.6075 S.3     
   3 C3             3.1398    -1.3272    -2.0468 C.3     
   4 C4             2.8853    -2.8354    -2.0830 C.3     
   5 C5             3.5911    -3.4427    -3.2970 C.3     
   6 C6             3.2408    -4.9046    -3.4025 C.2     
   7 O7             4.1157    -5.7430    -3.3531 O.2     
   8 N8             1.9551    -5.2804    -3.5517 N.am    
   9 C9             1.6145    -6.7016    -3.6543 C.3     
  10 C10            0.3131    -6.8538    -4.3987 C.2     
  11 O11           -0.2723    -5.8718    -4.8038 O.2     
  12 N12           -0.2004    -8.0811    -4.6144 N.am    
  13 C13           -1.4655    -8.2291    -5.3381 C.3     
  14 C14           -2.1244    -9.5241    -4.9384 C.2     
  15 O15           -1.5898   -10.2518    -4.1287 O.2     
  16 N16           -3.3077    -9.8736    -5.4807 N.am    
  17 C17           -3.8952   -11.1808    -5.1767 C.3     
  18 C18           -4.8741   -11.5556    -6.2594 C.2     
  19 O19           -5.3543   -10.6956    -6.9670 O.2     
  20 N20           -5.2159   -12.8465    -6.4415 N.am    
  21 C21           -6.0838   -13.2238    -7.5598 C.3     
  22 C22           -6.8009   -14.5071    -7.2284 C.2     
  23 O23           -6.6062   -15.0529    -6.1630 O.2     
  24 N24           -7.6586   -15.0484    -8.1160 N.am    
  25 C25           -8.3558   -16.2959    -7.7939 C.3     
  26 C26           -7.4769   -17.4681    -8.1469 C.2     
  27 O27           -6.3765   -17.2799    -8.6209 O.2     
  28 N28           -7.9136   -18.7255    -7.9358 N.am    
  29 C29           -9.6569   -16.3746    -8.5949 C.3     
  30 C30          -10.5860   -15.2733    -8.1534 C.2     
  31 O31          -10.2427   -14.5043    -7.2870 O.2     
  32 O32          -11.7949   -15.1465    -8.7228 O.3     
  33 C33           -5.2365   -13.4233    -8.8181 C.3     
  34 C34           -4.6074   -12.0896    -9.2260 C.3     
  35 S35           -3.6028   -12.3261   -10.7178 S.3     
  36 C36           -2.9520   -10.6637   -11.0394 C.3     
  37 C37           -4.6229   -11.1127    -3.8325 C.3     
  38 C38           -5.0979   -12.5126    -3.4383 C.3     
  39 C39           -3.8851   -13.4065    -3.1720 C.3     
  40 C40           -5.9534   -12.4234    -2.1729 C.3     
  41 C41           -1.1936    -8.2387    -6.8438 C.3     
  42 C42           -0.6482    -6.8982    -7.2643 C.2     
  43 N43           -1.2273    -5.7082    -7.0467 N.2     
  44 C44           -0.4757    -4.7659    -7.5469 C.2     
  45 N45            0.6160    -5.3328    -8.1040 N.pl3   
  46 C46            0.5089    -6.6849    -7.9193 C.2     
  47 C47            1.4716    -7.2943    -2.2510 C.3     
  48 C48            2.8052    -7.2535    -1.5503 C.ar    
  49 C49            3.1566    -6.1491    -0.7969 C.ar    
  50 C50            4.3799    -6.1116    -0.1542 C.ar    
  51 C51            5.2516    -7.1788    -0.2646 C.ar    
  52 C52            4.8998    -8.2836    -1.0173 C.ar    
  53 C53            3.6747    -8.3229    -1.6564 C.ar    
  54 N54            5.0407    -3.2979    -3.1420 N.am    
  55 C55            5.6484    -2.1565    -3.5220 C.2     
  56 O56            4.9952    -1.2492    -3.9922 O.2     
  57 C57            7.1395    -2.0076    -3.3625 C.3     
  58 C58            7.4641    -1.6520    -1.9103 C.3     
  59 C59            8.9591    -1.6236    -1.7222 C.ar    
  60 C60            9.6578    -0.4477    -1.9239 C.ar    
  61 C61           11.0283    -0.4190    -1.7521 C.ar    
  62 C62           11.7034    -1.5715    -1.3769 C.ar    
  63 C63           11.0000    -2.7501    -1.1752 C.ar    
  64 C64            9.6289    -2.7722    -1.3427 C.ar    
  65 O65           13.0516    -1.5460    -1.2077 O.3     
  66 N66            7.6223    -0.9393    -4.2478 N.3     
  67 H67            3.7970     1.2788    -0.6959 H       
  68 H68            2.3381     1.5486    -1.6792 H       
  69 H69            2.2568     1.6960     0.0928 H       
  70 H70            2.7524    -0.8713    -2.9580 H       
  71 H71            4.2114    -1.1412    -1.9747 H       
  72 H72            3.2726    -3.2912    -1.1718 H       
  73 H73            1.8137    -3.0214    -2.1552 H       
  74 H74            3.2689    -2.9258    -4.2009 H       
  75 H75            1.2553    -4.6099    -3.5913 H       
  76 H76            2.4041    -7.2266    -4.1918 H       
  77 H77            0.2678    -8.8665    -4.2905 H       
  78 H78           -2.1239    -7.3956    -5.0931 H       
  79 H79           -3.7703    -9.2597    -6.0722 H       
  80 H80           -3.1059   -11.9307    -5.1250 H       
  81 H81           -4.8873   -13.5258    -5.8320 H       
  82 H82           -6.8144   -12.4341    -7.7352 H       
  83 H83           -7.8143   -14.6119    -8.9682 H       
  84 H84           -8.5832   -16.3203    -6.7281 H       
  85 H85           -8.7937   -18.8761    -7.5567 H       
  86 H86           -7.3479   -19.4800    -8.1630 H       
  87 H87           -9.4374   -16.2610    -9.6565 H       
  88 H88          -10.1314   -17.3408    -8.4233 H       
  89 H89          -12.3557   -14.4250    -8.4065 H       
  90 H90           -4.4493   -14.1493    -8.6147 H       
  91 H91           -5.8684   -13.7895    -9.6272 H       
  92 H92           -5.3946   -11.3636    -9.4294 H       
  93 H93           -3.9755   -11.7234    -8.4168 H       
  94 H94           -2.3227   -10.6857   -11.9291 H       
  95 H95           -3.7806    -9.9734   -11.1974 H       
  96 H96           -2.3616   -10.3331   -10.1848 H       
  97 H97           -3.9433   -10.7316    -3.0703 H       
  98 H98           -5.4825   -10.4480    -3.9180 H       
  99 H99           -5.6909   -12.9367    -4.2486 H       
 100 H100          -4.2217   -14.4203    -2.9549 H       
 101 H101          -3.2419   -13.4179    -4.0519 H       
 102 H102          -3.3278   -13.0183    -2.3195 H       
 103 H103          -6.8174   -11.7865    -2.3627 H       
 104 H104          -6.2918   -13.4207    -1.8921 H       
 105 H105          -5.3604   -11.9993    -1.3626 H       
 106 H106          -0.4662    -9.0162    -7.0767 H       
 107 H107          -2.1220    -8.4374    -7.3793 H       
 108 H108          -0.6913    -3.7080    -7.5201 H       
 109 H109           1.3422    -4.8684    -8.5488 H       
 110 H110           1.2137    -7.4366    -8.2427 H       
 111 H111           0.7450    -6.7131    -1.6833 H       
 112 H112           1.1319    -8.3273    -2.3258 H       
 113 H113           2.4755    -5.3153    -0.7106 H       
 114 H114           4.6547    -5.2485     0.4339 H       
 115 H115           6.2076    -7.1492     0.2370 H       
 116 H116           5.5810    -9.1172    -1.1038 H       
 117 H117           3.3999    -9.1860    -2.2445 H       
 118 H118           5.5631    -4.0236    -2.7660 H       
 119 H119           7.6285    -2.9457    -3.6250 H       
 120 H120           7.0496    -0.6718    -1.6748 H       
 121 H121           7.0287    -2.3995    -1.2471 H       
 122 H122           9.1318     0.4491    -2.2163 H       
 123 H123          11.5737     0.4996    -1.9101 H       
 124 H124          11.5233    -3.6486    -0.8830 H       
 125 H125           9.0808    -3.6894    -1.1858 H       
 126 H126          13.3310    -1.3266    -0.3084 H       
 127 H127           7.1835    -0.0586    -4.0245 H       
 128 H128           8.6276    -0.8630    -4.2074 H       
@<TRIPOS>BOND
   1    1    2 1
   2    1   67 1
   3    1   68 1
   4    1   69 1
   5    2    3 1
   6    3    4 1
   7    3   70 1
   8    3   71 1
   9    4    5 1
  10    4   72 1
  11    4   73 1
  12    5    6 1
  13    5   54 1
  14    5   74 1
  15    6    7 2
  16    6    8 am
  17    8    9 1
  18    8   75 1
  19    9   10 1
  20    9   47 1
  21    9   76 1
  22   10   11 2
  23   10   12 am
  24   12   13 1
  25   12   77 1
  26   13   14 1
  27   13   41 1
  28   13   78 1
  29   14   15 2
  30   14   16 am
  31   16   17 1
  32   16   79 1
  33   17   18 1
  34   17   37 1
  35   17   80 1
  36   18   19 2
  37   18   20 am
  38   20   21 1
  39   20   81 1
  40   21   22 1
  41   21   33 1
  42   21   82 1
  43   22   23 2
  44   22   24 am
  45   24   25 1
  46   24   83 1
  47   25   26 1
  48   25   29 1
  49   25   84 1
  50   26   27 2
  51   26   28 am
  52   28   85 1
  53   28   86 1
  54   29   30 1
  55   29   87 1
  56   29   88 1
  57   30   31 2
  58   30   32 1
  59   32   89 1
  60   33   34 1
  61   33   90 1
  62   33   91 1
  63   34   35 1
  64   34   92 1
  65   34   93 1
  66   35   36 1
  67   36   94 1
  68   36   95 1
  69   36   96 1
  70   37   38 1
  71   37   97 1
  72   37   98 1
  73   38   39 1
  74   38   40 1
  75   38   99 1
  76   39  100 1
  77   39  101 1
  78   39  102 1
  79   40  103 1
  80   40  104 1
  81   40  105 1
  82   41   42 1
  83   41  106 1
  84   41  107 1
  85   42   43 1
  86   42   46 2
  87   43   44 2
  88   44   45 1
  89   44  108 1
  90   45   46 1
  91   45  109 1
  92   46  110 1
  93   47   48 1
  94   47  111 1
  95   47  112 1
  96   48   49 ar
  97   48   53 ar
  98   49   50 ar
  99   49  113 1
 100   50   51 ar
 101   50  114 1
 102   51   52 ar
 103   51  115 1
 104   52   53 ar
 105   52  116 1
 106   53  117 1
 107   54   55 am
 108   54  118 1
 109   55   56 2
 110   55   57 1
 111   57   58 1
 112   57   66 1
 113   57  119 1
 114   58   59 1
 115   58  120 1
 116   58  121 1
 117   59   60 ar
 118   59   64 ar
 119   60   61 ar
 120   60  122 1
 121   61   62 ar
 122   61  123 1
 123   62   63 ar
 124   62   65 1
 125   63   64 ar
 126   63  124 1
 127   64  125 1
 128   65  126 1
 129   66  127 1
 130   66  128 1

#	End of record

