#	Name: ASD05730034
#	Creating user name:	WinNT
#	Creation time:	15. 06. 2019 21:02

#	Modifying user name:	WinNT
#	Modification time:	15. 06. 2019 21:02

#	Program:	/corina/corina34_cracker 3.40 0067  02.08.2006

@<TRIPOS>MOLECULE
ASD05730034
  37   40    0    0    0
SMALL
NO_CHARGES


@<TRIPOS>ATOM
   1 C1            -0.0164     1.3567     0.0095 C.ar    
   2 C2             0.0021    -0.0041     0.0020 C.ar    
   3 C3             1.2067    -0.7047    -0.0132 C.ar    
   4 C4             2.3995    -0.0486    -0.0211 C.ar    
   5 C5             2.4214     1.3561    -0.0138 C.ar    
   6 C6             1.1961     2.0691     0.0018 C.ar    
   7 C7             3.6370     2.0641    -0.0222 C.ar    
   8 C8             3.6306     3.4222    -0.0152 C.ar    
   9 C9             2.4241     4.1365     0.0007 C.ar    
  10 C10            1.2141     3.4727     0.0087 C.ar    
  11 S11            2.4530     5.8982     0.0105 S.3     
  12 S12            4.4577     6.3266    -0.0066 S.3     
  13 C13            4.8598     6.2729    -1.7213 C.ar    
  14 C14            6.1557     6.5176    -2.1272 C.ar    
  15 C15            6.4718     6.4738    -3.4946 C.ar    
  16 C16            5.4536     6.1787    -4.4360 C.ar    
  17 C17            4.1426     5.9347    -3.9878 C.ar    
  18 C18            3.8614     5.9764    -2.6595 C.ar    
  19 C19            7.7812     6.7183    -3.9460 C.ar    
  20 C20            8.0561     6.6690    -5.2772 C.ar    
  21 C21            7.0536     6.3785    -6.2073 C.ar    
  22 C22            5.7718     6.1353    -5.8035 C.ar    
  23 O23            7.3589     6.3368    -7.5312 O.3     
  24 H24           -0.9573     1.8868     0.0169 H       
  25 H25           -0.9304    -0.5489     0.0083 H       
  26 H26            1.1938    -1.7846    -0.0185 H       
  27 H27            3.3248    -0.6054    -0.0326 H       
  28 H28            4.5745     1.5281    -0.0337 H       
  29 H29            4.5675     3.9593    -0.0217 H       
  30 H30            0.2883     4.0288     0.0209 H       
  31 H31            6.9209     6.7415    -1.3988 H       
  32 H32            3.3615     5.7096    -4.6989 H       
  33 H33            2.8528     5.7877    -2.3224 H       
  34 H34            8.5652     6.9445    -3.2385 H       
  35 H35            9.0627     6.8572    -5.6204 H       
  36 H36            5.0064     5.9121    -6.5320 H       
  37 H37            7.6319     5.4637    -7.8446 H       
@<TRIPOS>BOND
   1    1    2 ar
   2    1    6 ar
   3    1   24 1
   4    2    3 ar
   5    2   25 1
   6    3    4 ar
   7    3   26 1
   8    4    5 ar
   9    4   27 1
  10    5    6 ar
  11    5    7 ar
  12    6   10 ar
  13    7    8 ar
  14    7   28 1
  15    8    9 ar
  16    8   29 1
  17    9   10 ar
  18    9   11 1
  19   10   30 1
  20   11   12 1
  21   12   13 1
  22   13   14 ar
  23   13   18 ar
  24   14   15 ar
  25   14   31 1
  26   15   16 ar
  27   15   19 ar
  28   16   17 ar
  29   16   22 ar
  30   17   18 ar
  31   17   32 1
  32   18   33 1
  33   19   20 ar
  34   19   34 1
  35   20   21 ar
  36   20   35 1
  37   21   22 ar
  38   21   23 1
  39   22   36 1
  40   23   37 1

#	End of record

