#	Name: ASD08150584
#	Creating user name:	WinNT
#	Creation time:	15. 06. 2019 21:16

#	Modifying user name:	WinNT
#	Modification time:	15. 06. 2019 21:16

#	Program:	/corina/corina34_cracker 3.40 0067  02.08.2006

@<TRIPOS>MOLECULE
ASD08150584
  54   59    0    0    0
SMALL
NO_CHARGES


@<TRIPOS>ATOM
   1 N1             0.1061     1.5689    -0.3208 N.am    
   2 C2             0.2604     0.4781    -1.0962 C.2     
   3 C3             1.4818    -0.2254    -1.1208 C.2     
   4 C4             2.5249     0.1902    -0.3583 C.2     
   5 C5             2.3662     1.3375     0.4587 C.ar    
   6 C6             3.4164     1.8109     1.2681 C.ar    
   7 N7             3.2674     2.8695     2.0209 N.ar    
   8 C8             2.1187     3.5610     2.0671 C.ar    
   9 C9             1.0086     3.1569     1.2851 C.ar    
  10 C10            1.1372     2.0150     0.4601 C.ar    
  11 C11           -0.2676     4.9958     2.1642 C.ar    
  12 C12            0.8354     5.3898     2.9348 C.ar    
  13 C13            2.0022     4.6929     2.8908 C.ar    
  14 O14           -0.6689     0.0940    -1.7856 O.2     
  15 C15           -1.1149     2.2535    -0.3184 C.ar    
  16 C16           -1.3317     3.2926    -1.2137 C.ar    
  17 C17           -2.5376     3.9662    -1.2087 C.ar    
  18 C18           -3.5281     3.6071    -0.3133 C.ar    
  19 C19           -3.3151     2.5729     0.5801 C.ar    
  20 C20           -2.1142     1.8912     0.5757 C.ar    
  21 C21           -0.1844     3.8840     1.3413 C.ar    
  22 C22           -1.5291     5.7731     2.2294 C.2     
  23 C23           -1.5746     7.0501     1.7560 C.2     
  24 C24           -2.7539     5.1647     2.8050 C.2     
  25 C25           -3.6846     5.9496     3.3807 C.2     
  26 C26           -3.3758     7.4070     3.3621 C.3     
  27 C27           -2.8981     7.7162     1.9022 C.3     
  28 N28           -4.4630     8.3810     3.4168 N.pl3   
  29 N29           -3.9092     9.5230     2.7753 N.2     
  30 C30           -2.9956     9.2062     1.9037 C.2     
  31 C31           -2.1882    10.1607     1.0621 C.3     
  32 C32           -2.7738     5.0940    -2.1800 C.3     
  33 F33           -3.3295     4.5855    -3.3589 F       
  34 F34           -3.6535     6.0219    -1.6122 F       
  35 F35           -1.5577     5.7216    -2.4705 F       
  36 H36            1.5876    -1.0982    -1.7481 H       
  37 H37            3.4624    -0.3459    -0.3737 H       
  38 H38            4.3625     1.2898     1.2674 H       
  39 H39            0.7574     6.2587     3.5715 H       
  40 H40            2.8419     5.0103     3.4914 H       
  41 H41           -0.5582     3.5740    -1.9129 H       
  42 H42           -4.4699     4.1356    -0.3111 H       
  43 H43           -4.0906     2.2951     1.2785 H       
  44 H44           -1.9485     1.0837     1.2735 H       
  45 H45           -1.0343     3.5817     0.7476 H       
  46 H46           -0.7205     7.5390     1.3113 H       
  47 H47           -2.8988     4.0953     2.7620 H       
  48 H48           -4.5865     5.5525     3.8227 H       
  49 H49           -2.5981     7.6445     4.0880 H       
  50 H50           -3.6043     7.2972     1.1854 H       
  51 H51           -5.3485     8.2746     3.7983 H       
  52 H52           -2.4834    11.1849     1.2900 H       
  53 H53           -1.1283    10.0309     1.2810 H       
  54 H54           -2.3689     9.9567     0.0068 H       
@<TRIPOS>BOND
   1    1    2 am
   2    1   10 1
   3    1   15 1
   4    2    3 1
   5    2   14 2
   6    3    4 2
   7    3   36 1
   8    4    5 1
   9    4   37 1
  10    5    6 ar
  11    5   10 ar
  12    6    7 ar
  13    6   38 1
  14    7    8 ar
  15    8    9 ar
  16    8   13 ar
  17    9   10 ar
  18    9   21 ar
  19   11   12 ar
  20   11   22 1
  21   11   21 ar
  22   12   13 ar
  23   12   39 1
  24   13   40 1
  25   15   16 ar
  26   15   20 ar
  27   16   17 ar
  28   16   41 1
  29   17   18 ar
  30   17   32 1
  31   18   19 ar
  32   18   42 1
  33   19   20 ar
  34   19   43 1
  35   20   44 1
  36   21   45 1
  37   22   23 2
  38   22   24 1
  39   23   27 1
  40   23   46 1
  41   24   25 2
  42   24   47 1
  43   25   26 1
  44   25   48 1
  45   26   27 1
  46   26   28 1
  47   26   49 1
  48   27   30 1
  49   27   50 1
  50   28   29 1
  51   28   51 1
  52   29   30 2
  53   30   31 1
  54   31   52 1
  55   31   53 1
  56   31   54 1
  57   32   33 1
  58   32   34 1
  59   32   35 1

#	End of record

