#	Name: ASD01238020
#	Creating user name:	WinNT
#	Creation time:	15. 06. 2019 19:15

#	Modifying user name:	WinNT
#	Modification time:	15. 06. 2019 19:15

#	Program:	/corina/corina34_cracker 3.40 0067  02.08.2006

@<TRIPOS>MOLECULE
ASD01238020
  54   57    0    0    0
SMALL
NO_CHARGES


@<TRIPOS>ATOM
   1 S1            -0.0205     1.6632     0.0112 S.o2    
   2 N2             0.0021    -0.0041     0.0020 N.am    
   3 C3             1.0545    -0.6265     0.8290 C.3     
   4 C4             2.4148    -0.2848     0.2446 C.3     
   5 C5             2.6743     1.1874     0.1210 C.ar    
   6 C6             1.6828     2.1371    -0.0025 C.ar    
   7 C7             4.0026     1.6053     0.1278 C.ar    
   8 C8             4.3223     2.9401     0.0006 C.ar    
   9 C9             3.3211     3.8831    -0.1367 C.ar    
  10 C10            2.0007     3.4768    -0.1364 C.ar    
  11 O11           -0.5704     2.0728    -1.2334 O.2     
  12 O12           -0.5465     2.0594     1.2704 O.2     
  13 S13            3.7255     5.5893    -0.3100 S.o2    
  14 O14            2.5837     6.3180     0.1194 O.2     
  15 O15            5.0150     5.7563     0.2633 O.2     
  16 N16            3.8913     5.8917    -1.9297 N.am    
  17 C17            2.7389     6.3131    -2.7408 C.3     
  18 C18            3.1274     7.5739    -3.5203 C.3     
  19 N19            4.3595     7.3172    -4.2779 N.3     
  20 C20            5.4864     7.0290    -3.3807 C.3     
  21 C21            5.1959     5.7517    -2.5942 C.3     
  22 C22            4.6719     8.4406    -5.1713 C.3     
  23 C23            0.8678    -2.1450     0.8364 C.3     
  24 C24           -0.5105    -2.5039     1.4188 C.3     
  25 C25           -1.2770    -3.2517     0.3083 C.3     
  26 C26           -0.1630    -3.8224    -0.6040 C.3     
  27 C27            0.8908    -2.6872    -0.6077 C.3     
  28 H28           -0.6325    -0.5286    -0.5109 H       
  29 H29            0.9898    -0.2455     1.8482 H       
  30 H30            3.1852    -0.7210     0.8804 H       
  31 H31            2.4903    -0.7349    -0.7452 H       
  32 H32            4.7913     0.8753     0.2342 H       
  33 H33            5.3570     3.2496     0.0086 H       
  34 H34            1.2132     4.2083    -0.2411 H       
  35 H35            2.4720     5.5191    -3.4382 H       
  36 H36            1.8929     6.5317    -2.0892 H       
  37 H37            2.3250     7.8373    -4.2094 H       
  38 H38            3.2934     8.3956    -2.8236 H       
  39 H39            6.3948     6.8970    -3.9685 H       
  40 H40            5.6196     7.8582    -2.6859 H       
  41 H41            5.9735     5.5993    -1.8458 H       
  42 H42            5.1697     4.9027    -3.2773 H       
  43 H43            4.8069     9.3473    -4.5815 H       
  44 H44            5.5886     8.2244    -5.7201 H       
  45 H45            3.8522     8.5837    -5.8754 H       
  46 H46            1.6557    -2.6149     1.4250 H       
  47 H47           -0.3915    -3.1486     2.2895 H       
  48 H48           -1.0464    -1.5962     1.6962 H       
  49 H49           -1.8729    -4.0592     0.7335 H       
  50 H50           -1.9104    -2.5616    -0.2492 H       
  51 H51            0.2543    -4.7354    -0.1792 H       
  52 H52           -0.5416    -4.0012    -1.6103 H       
  53 H53            0.6076    -1.9060    -1.3131 H       
  54 H54            1.8769    -3.0829    -0.8509 H       
@<TRIPOS>BOND
   1    1    2 am
   2    1    6 1
   3    1   11 2
   4    1   12 2
   5    2    3 1
   6    2   28 1
   7    3    4 1
   8    3   23 1
   9    3   29 1
  10    4    5 1
  11    4   30 1
  12    4   31 1
  13    5    6 ar
  14    5    7 ar
  15    6   10 ar
  16    7    8 ar
  17    7   32 1
  18    8    9 ar
  19    8   33 1
  20    9   10 ar
  21    9   13 1
  22   10   34 1
  23   13   14 2
  24   13   15 2
  25   13   16 am
  26   16   17 1
  27   16   21 1
  28   17   18 1
  29   17   35 1
  30   17   36 1
  31   18   19 1
  32   18   37 1
  33   18   38 1
  34   19   20 1
  35   19   22 1
  36   20   21 1
  37   20   39 1
  38   20   40 1
  39   21   41 1
  40   21   42 1
  41   22   43 1
  42   22   44 1
  43   22   45 1
  44   23   24 1
  45   23   27 1
  46   23   46 1
  47   24   25 1
  48   24   47 1
  49   24   48 1
  50   25   26 1
  51   25   49 1
  52   25   50 1
  53   26   27 1
  54   26   51 1
  55   26   52 1
  56   27   53 1
  57   27   54 1

#	End of record

