#	Name: ASD05130104
#	Creating user name:	WinNT
#	Creation time:	15. 06. 2019 20:56

#	Modifying user name:	WinNT
#	Modification time:	15. 06. 2019 20:56

#	Program:	/corina/corina34_cracker 3.40 0067  02.08.2006

@<TRIPOS>MOLECULE
ASD05130104
  74   78    0    0    0
SMALL
NO_CHARGES


@<TRIPOS>ATOM
   1 N1            -0.1617     1.5507     0.1047 N.am    
   2 C2             0.0499     0.4225     0.8110 C.2     
   3 O3             1.1168     0.2439     1.3663 O.2     
   4 N4            -0.9211    -0.5079     0.9018 N.am    
   5 C5            -0.6665    -1.7244     1.5447 C.ar    
   6 C6            -1.6778    -2.3639     2.2499 C.ar    
   7 C7            -1.4235    -3.5646     2.8828 C.ar    
   8 C8            -0.1633    -4.1304     2.8150 C.ar    
   9 C9             0.8457    -3.4961     2.1142 C.ar    
  10 C10            0.5962    -2.2977     1.4741 C.ar    
  11 C11           -2.5201    -4.2589     3.6486 C.3     
  12 N12           -3.2453    -5.1673     2.7502 N.3     
  13 C13           -4.1617    -6.0336     3.5048 C.3     
  14 C14           -4.9536    -6.9068     2.5287 C.3     
  15 N15           -4.0204    -7.7069     1.7233 N.3     
  16 C16           -3.1040    -6.8406     0.9688 C.3     
  17 C17           -2.3121    -5.9674     1.9448 C.3     
  18 C18           -4.7455    -8.6153     0.8250 C.3     
  19 C19            0.8130     2.5571     0.0833 C.ar    
  20 C20            0.4374     3.8861    -0.0884 C.ar    
  21 C21            1.3969     4.8827    -0.1097 C.ar    
  22 C22            2.7330     4.5635     0.0390 C.ar    
  23 C23            3.1174     3.2332     0.2116 C.ar    
  24 C24            2.1499     2.2297     0.2387 C.ar    
  25 F25           -0.8675     4.2039    -0.2352 F       
  26 N26            6.5394     2.8469     1.7809 N.am    
  27 C27            5.2372     3.1611     1.6349 C.2     
  28 C28            4.5496     2.8886     0.3707 C.2     
  29 C29            5.2383     2.3134    -0.6622 C.2     
  30 C30            6.6053     1.9935    -0.4846 C.ar    
  31 C31            7.3487     1.4044    -1.5147 C.ar    
  32 N32            8.6184     1.1137    -1.3334 N.ar    
  33 C33            9.2445     1.3599    -0.1874 C.ar    
  34 C34            8.5828     1.9411     0.8849 C.ar    
  35 C35            7.2392     2.2690     0.7468 C.ar    
  36 O36            4.6291     3.6720     2.5585 O.2     
  37 N37           10.5858     1.0291    -0.0605 N.pl3   
  38 C38           11.2899     1.2943     1.1965 C.3     
  39 C39            7.2175     3.1300     3.0483 C.3     
  40 C40            7.0836     1.9230     3.9791 C.3     
  41 Cl41           3.9334     5.8172     0.0105 Cl      
  42 H42           -0.9871     1.6643    -0.3920 H       
  43 H43           -1.7963    -0.3341     0.5216 H       
  44 H44           -2.6620    -1.9224     2.3035 H       
  45 H45            0.0330    -5.0696     3.3108 H       
  46 H46            1.8289    -3.9402     2.0637 H       
  47 H47            1.3835    -1.8052     0.9228 H       
  48 H48           -2.0851    -4.8298     4.4689 H       
  49 H49           -3.2103    -3.5161     4.0487 H       
  50 H50           -3.5883    -6.6698     4.1790 H       
  51 H51           -4.8506    -5.4180     4.0832 H       
  52 H52           -5.6131    -7.5707     3.0876 H       
  53 H53           -5.5480    -6.2714     1.8722 H       
  54 H54           -2.4151    -7.4562     0.3904 H       
  55 H55           -3.6774    -6.2044     0.2946 H       
  56 H56           -1.6525    -5.3035     1.3860 H       
  57 H57           -1.7177    -6.6028     2.6013 H       
  58 H58           -5.3774    -8.0342     0.1533 H       
  59 H59           -4.0312    -9.1954     0.2407 H       
  60 H60           -5.3661    -9.2904     1.4143 H       
  61 H61            1.1009     5.9127    -0.2432 H       
  62 H62            2.4426     1.1993     0.3761 H       
  63 H63            4.7451     2.1060    -1.6003 H       
  64 H64            6.8773     1.1875    -2.4619 H       
  65 H65            9.1032     2.1360     1.8110 H       
  66 H66           11.0574     0.6221    -0.8041 H       
  67 H67           10.8061     0.7479     2.0062 H       
  68 H68           12.3266     0.9696     1.1077 H       
  69 H69           11.2608     2.3626     1.4108 H       
  70 H70            8.2726     3.3279     2.8596 H       
  71 H71            6.7622     4.0025     3.5170 H       
  72 H72            7.5881     2.1337     4.9221 H       
  73 H73            6.0284     1.7251     4.1678 H       
  74 H74            7.5388     1.0505     3.5105 H       
@<TRIPOS>BOND
   1    1    2 am
   2    1   19 1
   3    1   42 1
   4    2    3 2
   5    2    4 am
   6    4    5 1
   7    4   43 1
   8    5    6 ar
   9    5   10 ar
  10    6    7 ar
  11    6   44 1
  12    7    8 ar
  13    7   11 1
  14    8    9 ar
  15    8   45 1
  16    9   10 ar
  17    9   46 1
  18   10   47 1
  19   11   12 1
  20   11   48 1
  21   11   49 1
  22   12   13 1
  23   12   17 1
  24   13   14 1
  25   13   50 1
  26   13   51 1
  27   14   15 1
  28   14   52 1
  29   14   53 1
  30   15   16 1
  31   15   18 1
  32   16   17 1
  33   16   54 1
  34   16   55 1
  35   17   56 1
  36   17   57 1
  37   18   58 1
  38   18   59 1
  39   18   60 1
  40   19   20 ar
  41   19   24 ar
  42   20   21 ar
  43   20   25 1
  44   21   22 ar
  45   21   61 1
  46   22   23 ar
  47   22   41 1
  48   23   24 ar
  49   23   28 1
  50   24   62 1
  51   26   27 am
  52   26   35 1
  53   26   39 1
  54   27   28 1
  55   27   36 2
  56   28   29 2
  57   29   30 1
  58   29   63 1
  59   30   31 ar
  60   30   35 ar
  61   31   32 ar
  62   31   64 1
  63   32   33 ar
  64   33   34 ar
  65   33   37 1
  66   34   35 ar
  67   34   65 1
  68   37   38 1
  69   37   66 1
  70   38   67 1
  71   38   68 1
  72   38   69 1
  73   39   40 1
  74   39   70 1
  75   39   71 1
  76   40   72 1
  77   40   73 1
  78   40   74 1

#	End of record

