#	Name: ASD01914877
#	Creating user name:	WinNT
#	Creation time:	15. 06. 2019 20:04

#	Modifying user name:	WinNT
#	Modification time:	15. 06. 2019 20:04

#	Program:	/corina/corina34_cracker 3.40 0067  02.08.2006

@<TRIPOS>MOLECULE
ASD01914877
  54   56    0    0    0
SMALL
NO_CHARGES


@<TRIPOS>ATOM
   1 C1            -0.0168     1.3897     0.0097 C.ar    
   2 C2             0.0021    -0.0041     0.0020 C.ar    
   3 C3             1.2345    -0.6632    -0.0133 C.ar    
   4 C4             2.3882     0.1021    -0.0202 C.ar    
   5 C5             2.2854     1.4810    -0.0118 C.ar    
   6 N6             1.1077     2.0753     0.0026 N.ar    
   7 N7            -2.7975    -2.3167    -0.3481 N.am    
   8 N8            -1.4800    -1.9179    -0.6025 N.2     
   9 C9            -1.2647    -0.7749     0.0104 C.2     
  10 C10           -2.4606    -0.4109     0.6823 C.2     
  11 C11           -3.3814    -1.3880     0.4360 C.2     
  12 C12           -2.6638     0.7650     1.4739 C.1     
  13 C13           -2.8304     1.7291     2.1228 C.1     
  14 C14           -3.0392     2.9378     2.9365 C.3     
  15 C15           -4.4693     2.9458     3.4801 C.3     
  16 C16           -4.6864     4.2022     4.3259 C.3     
  17 C17           -6.1166     4.2103     4.8695 C.3     
  18 C18           -6.3336     5.4666     5.7152 C.3     
  19 C19           -7.7638     5.4747     6.2589 C.3     
  20 C20           -7.9809     6.7310     7.1046 C.3     
  21 S21           -3.5194    -3.6932    -0.9196 S.o2    
  22 O22           -4.9187    -3.4461    -0.9097 O.2     
  23 O23           -2.8041    -4.0653    -2.0897 O.2     
  24 C24           -3.2302    -4.9644     0.2657 C.ar    
  25 C25           -4.1295    -5.1666     1.2958 C.ar    
  26 C26           -3.9026    -6.1639     2.2257 C.ar    
  27 C27           -2.7765    -6.9594     2.1252 C.ar    
  28 C28           -1.8777    -6.7578     1.0946 C.ar    
  29 C29           -2.1068    -5.7633     0.1622 C.ar    
  30 H30           -0.9621     1.9120     0.0170 H       
  31 H31            1.2855    -1.7419    -0.0192 H       
  32 H32            3.3581    -0.3729    -0.0316 H       
  33 H33            3.1835     2.0809    -0.0171 H       
  34 H34           -4.3965    -1.4130     0.8038 H       
  35 H35           -2.3344     2.9423     3.7680 H       
  36 H36           -2.8798     3.8227     2.3203 H       
  37 H37           -5.1741     2.9413     2.6487 H       
  38 H38           -4.6288     2.0610     4.0964 H       
  39 H39           -3.9816     4.2067     5.1574 H       
  40 H40           -4.5270     5.0871     3.7097 H       
  41 H41           -6.8214     4.2058     4.0380 H       
  42 H42           -6.2760     3.3254     5.4857 H       
  43 H43           -5.6289     5.4711     6.5467 H       
  44 H44           -6.1742     6.3515     5.0990 H       
  45 H45           -8.4686     5.4702     5.4274 H       
  46 H46           -7.9232     4.5898     6.8751 H       
  47 H47           -8.9997     6.7368     7.4919 H       
  48 H48           -7.2761     6.7356     7.9361 H       
  49 H49           -7.8214     7.6159     6.4884 H       
  50 H50           -5.0093    -4.5451     1.3743 H       
  51 H51           -4.6049    -6.3214     3.0310 H       
  52 H52           -2.5989    -7.7381     2.8522 H       
  53 H53           -0.9977    -7.3791     1.0163 H       
  54 H54           -1.4064    -5.6083    -0.6452 H       
@<TRIPOS>BOND
   1    1    2 ar
   2    1    6 ar
   3    1   30 1
   4    2    3 ar
   5    2    9 1
   6    3    4 ar
   7    3   31 1
   8    4    5 ar
   9    4   32 1
  10    5    6 ar
  11    5   33 1
  12    7    8 1
  13    7   11 1
  14    7   21 am
  15    8    9 2
  16    9   10 1
  17   10   11 2
  18   10   12 1
  19   11   34 1
  20   12   13 3
  21   13   14 1
  22   14   15 1
  23   14   35 1
  24   14   36 1
  25   15   16 1
  26   15   37 1
  27   15   38 1
  28   16   17 1
  29   16   39 1
  30   16   40 1
  31   17   18 1
  32   17   41 1
  33   17   42 1
  34   18   19 1
  35   18   43 1
  36   18   44 1
  37   19   20 1
  38   19   45 1
  39   19   46 1
  40   20   47 1
  41   20   48 1
  42   20   49 1
  43   21   22 2
  44   21   23 2
  45   21   24 1
  46   24   25 ar
  47   24   29 ar
  48   25   26 ar
  49   25   50 1
  50   26   27 ar
  51   26   51 1
  52   27   28 ar
  53   27   52 1
  54   28   29 ar
  55   28   53 1
  56   29   54 1

#	End of record

