#	Name: ASD01881585
#	Creating user name:	WinNT
#	Creation time:	15. 06. 2019 19:42

#	Modifying user name:	WinNT
#	Modification time:	15. 06. 2019 19:42

#	Program:	/corina/corina34_cracker 3.40 0067  02.08.2006

@<TRIPOS>MOLECULE
ASD01881585
  49   53    0    0    0
SMALL
NO_CHARGES


@<TRIPOS>ATOM
   1 O1            -0.0161     1.3335     0.0094 O.3     
   2 C2             0.0021    -0.0041     0.0020 C.2     
   3 N3             1.2348    -0.5293    -0.0126 N.am    
   4 C4             2.2183     0.5645    -0.0161 C.3     
   5 C5             1.3508     1.8380    -0.0010 C.3     
   6 O6            -1.0070    -0.6809     0.0087 O.2     
   7 C7             1.6043     2.6745    -1.2567 C.3     
   8 C8             1.5514    -1.9597    -0.0233 C.3     
   9 C9             1.6469    -2.4423    -1.4477 C.ar    
  10 C10            2.8618    -2.4038    -2.1082 C.ar    
  11 C11            2.9553    -2.8444    -3.4126 C.ar    
  12 C12            1.8225    -3.3291    -4.0646 C.ar    
  13 C13            0.6010    -3.3656    -3.3939 C.ar    
  14 C14            0.5207    -2.9276    -2.0878 C.ar    
  15 C15            1.8864    -5.2191    -9.4523 C.2     
  16 N16            0.6004    -5.5694    -9.6250 N.am    
  17 C17           -0.1343    -5.2959    -8.3847 C.3     
  18 C18            0.8717    -4.7267    -7.4154 C.ar    
  19 C19            0.7808    -4.2887    -6.1174 C.ar    
  20 C20            1.9165    -3.8036    -5.4663 C.ar    
  21 C21            3.1399    -3.7654    -6.1360 C.ar    
  22 C22            3.2308    -4.2045    -7.4372 C.ar    
  23 C23            2.0952    -4.6907    -8.0915 C.ar    
  24 O24            2.7549    -5.3272   -10.2961 O.2     
  25 C25            0.0264    -6.1311   -10.8502 C.3     
  26 C26            0.1145    -5.2869   -12.1232 C.3     
  27 C27            0.9946    -6.5285   -11.9663 C.3     
  28 H28            2.8457     0.5181     0.8740 H       
  29 H29            2.8286     0.5277    -0.9184 H       
  30 H30            1.5485     2.4243     0.8964 H       
  31 H31            0.9328     3.5332    -1.2629 H       
  32 H32            2.6376     3.0213    -1.2597 H       
  33 H33            1.4229     2.0651    -2.1420 H       
  34 H34            2.5035    -2.1248     0.4810 H       
  35 H35            0.7656    -2.5096     0.4948 H       
  36 H36            3.7387    -2.0277    -1.6022 H       
  37 H37            3.9042    -2.8135    -3.9274 H       
  38 H38           -0.2799    -3.7402    -3.8941 H       
  39 H39           -0.4242    -2.9598    -1.5656 H       
  40 H40           -0.9268    -4.5710    -8.5709 H       
  41 H41           -0.5561    -6.2192    -7.9878 H       
  42 H42           -0.1672    -4.3196    -5.6010 H       
  43 H43            4.0181    -3.3897    -5.6320 H       
  44 H44            4.1793    -4.1732    -7.9528 H       
  45 H45           -0.8640    -6.7448   -10.7139 H       
  46 H46           -0.7179    -5.3455   -12.8245 H       
  47 H47            0.5994    -4.3136   -12.0491 H       
  48 H48            2.0587    -6.3720   -11.7889 H       
  49 H49            0.7413    -7.4039   -12.5643 H       
@<TRIPOS>BOND
   1    1    2 1
   2    1    5 1
   3    2    3 am
   4    2    6 2
   5    3    4 1
   6    3    8 1
   7    4    5 1
   8    4   28 1
   9    4   29 1
  10    5    7 1
  11    5   30 1
  12    7   31 1
  13    7   32 1
  14    7   33 1
  15    8    9 1
  16    8   34 1
  17    8   35 1
  18    9   10 ar
  19    9   14 ar
  20   10   11 ar
  21   10   36 1
  22   11   12 ar
  23   11   37 1
  24   12   13 ar
  25   12   20 1
  26   13   14 ar
  27   13   38 1
  28   14   39 1
  29   15   16 am
  30   15   23 1
  31   15   24 2
  32   16   17 1
  33   16   25 1
  34   17   18 1
  35   17   40 1
  36   17   41 1
  37   18   19 ar
  38   18   23 ar
  39   19   20 ar
  40   19   42 1
  41   20   21 ar
  42   21   22 ar
  43   21   43 1
  44   22   23 ar
  45   22   44 1
  46   25   26 1
  47   25   27 1
  48   25   45 1
  49   26   27 1
  50   26   46 1
  51   26   47 1
  52   27   48 1
  53   27   49 1

#	End of record

