#	Name: ASD02562106
#	Creating user name:	WinNT
#	Creation time:	15. 06. 2019 20:25

#	Modifying user name:	WinNT
#	Modification time:	15. 06. 2019 20:25

#	Program:	/corina/corina34_cracker 3.40 0067  02.08.2006

@<TRIPOS>MOLECULE
ASD02562106
  47   50    0    0    0
SMALL
NO_CHARGES


@<TRIPOS>ATOM
   1 C1             0.2604     1.6295    -1.0088 C.ar    
   2 N2             0.5007     0.5568    -1.7523 N.ar    
   3 C3            -0.3464     0.1682    -2.6895 C.ar    
   4 C4            -1.5117     0.9097    -2.8897 C.ar    
   5 C5            -1.7311     2.0424    -2.0800 C.ar    
   6 N6            -0.8329     2.3604    -1.1585 N.ar    
   7 N7             1.1825     1.9933    -0.0391 N.pl3   
   8 C8             2.3874     1.3018     0.0712 C.ar    
   9 C9             3.5724     1.9016    -0.3452 C.ar    
  10 C10            2.4030     0.0154     0.6027 C.ar    
  11 C11            3.5907    -0.6708     0.7142 C.ar    
  12 C12            4.7842    -0.0734     0.2917 C.ar    
  13 C13            4.7645     1.2224    -0.2377 C.ar    
  14 C14            3.5499     3.2965    -0.9150 C.3     
  15 C15            1.1176    -0.6266     1.0571 C.3     
  16 C16            6.0551    -0.8025     0.4089 C.2     
  17 C17            7.2049    -0.2245     0.0009 C.2     
  18 C18            8.4431    -0.9348     0.1151 C.1     
  19 N19            9.4254    -1.4983     0.2056 N.1     
  20 N20           -2.5712     0.8104    -3.7313 N.2     
  21 C21           -3.4047     1.7814    -3.4981 C.2     
  22 N22           -2.9330     2.5710    -2.4875 N.pl3   
  23 C23           -3.5576     3.7076    -1.9645 C.ar    
  24 C24           -4.0119     4.7049    -2.8203 C.ar    
  25 C25           -4.6276     5.8258    -2.3090 C.ar    
  26 C26           -4.7955     5.9600    -0.9281 C.ar    
  27 C27           -4.3375     4.9554    -0.0712 C.ar    
  28 C28           -3.7280     3.8349    -0.5904 C.ar    
  29 C29           -5.4347     7.1241    -0.3925 C.1     
  30 N30           -5.9417     8.0476     0.0324 N.1     
  31 H31           -0.1406    -0.7062    -3.2891 H       
  32 H32            0.9889     2.7292     0.5625 H       
  33 H33            3.6021    -1.6685     1.1274 H       
  34 H34            5.6829     1.6869    -0.5648 H       
  35 H35            3.6797     4.0199    -0.1101 H       
  36 H36            4.3591     3.4072    -1.6369 H       
  37 H37            2.5948     3.4714    -1.4102 H       
  38 H38            0.6162    -1.0807     0.2024 H       
  39 H39            1.3374    -1.3942     1.7992 H       
  40 H40            0.4695     0.1305     1.4985 H       
  41 H41            6.0691    -1.8005     0.8214 H       
  42 H42            7.1910     0.7735    -0.4116 H       
  43 H43           -4.3332     1.9406    -4.0263 H       
  44 H44           -3.8815     4.6007    -3.8873 H       
  45 H45           -4.9798     6.6002    -2.9743 H       
  46 H46           -4.4652     5.0557     0.9966 H       
  47 H47           -3.3741     3.0579     0.0711 H       
@<TRIPOS>BOND
   1    1    2 ar
   2    1    7 1
   3    1    6 ar
   4    2    3 ar
   5    3    4 ar
   6    3   31 1
   7    4    5 ar
   8    4   20 1
   9    5    6 ar
  10    5   22 1
  11    7    8 1
  12    7   32 1
  13    8    9 ar
  14    8   10 ar
  15    9   14 1
  16    9   13 ar
  17   10   11 ar
  18   10   15 1
  19   11   12 ar
  20   11   33 1
  21   12   13 ar
  22   12   16 1
  23   13   34 1
  24   14   35 1
  25   14   36 1
  26   14   37 1
  27   15   38 1
  28   15   39 1
  29   15   40 1
  30   16   17 2
  31   16   41 1
  32   17   18 1
  33   17   42 1
  34   18   19 3
  35   20   21 2
  36   21   22 1
  37   21   43 1
  38   22   23 1
  39   23   24 ar
  40   23   28 ar
  41   24   25 ar
  42   24   44 1
  43   25   26 ar
  44   25   45 1
  45   26   27 ar
  46   26   29 1
  47   27   28 ar
  48   27   46 1
  49   28   47 1
  50   29   30 3

#	End of record

