#	Name: ASD01810975
#	Creating user name:	WinNT
#	Creation time:	15. 06. 2019 19:25

#	Modifying user name:	WinNT
#	Modification time:	15. 06. 2019 19:25

#	Program:	/corina/corina34_cracker 3.40 0067  02.08.2006

@<TRIPOS>MOLECULE
ASD01810975
  43   44    0    0    0
SMALL
NO_CHARGES


@<TRIPOS>ATOM
   1 C1            -0.2760     1.4487     0.2224 C.2     
   2 C2            -0.1225    -0.0160     0.1048 C.ar    
   3 C3             1.1461    -0.5757    -0.0683 C.ar    
   4 C4             1.2907    -1.9440    -0.1778 C.ar    
   5 C5             0.1843    -2.7687    -0.1172 C.ar    
   6 C6            -1.0889    -2.2228     0.0554 C.ar    
   7 C7            -1.2421    -0.8434     0.1720 C.ar    
   8 O8             0.7072     2.1602     0.2741 O.2     
   9 O9            -1.5063     1.9956     0.2667 O.3     
  10 C10            2.3587     0.3165    -0.1360 C.3     
  11 N11           -3.4723    -4.8612     0.2074 N.2     
  12 N12           -2.2654    -4.4221     0.1528 N.2     
  13 C13           -2.2726    -3.1082     0.1200 C.2     
  14 N14           -3.5828    -2.7145     0.1573 N.pl3   
  15 C15           -4.3129    -3.8616     0.2125 C.2     
  16 C16           -5.8156    -3.9603     0.2692 C.3     
  17 C17           -6.3117    -4.8493    -0.8729 C.3     
  18 O18           -7.7366    -4.9430    -0.8192 O.3     
  19 C19           -8.3049    -5.7554    -1.8483 C.3     
  20 C20            0.3520    -4.2614    -0.2382 C.3     
  21 C21            0.8379    -4.6075    -1.6471 C.3     
  22 C22            1.3787    -4.7442     0.7883 C.3     
  23 H23            2.2733    -2.3717    -0.3118 H       
  24 H24           -2.2245    -0.4165     0.3101 H       
  25 H25           -1.5562     2.9583     0.3440 H       
  26 H26            2.6856     0.5626     0.8743 H       
  27 H27            3.1614    -0.2007    -0.6616 H       
  28 H28            2.1063     1.2328    -0.6696 H       
  29 H29           -3.9211    -1.8055     0.1469 H       
  30 H30           -6.1155    -4.3935     1.2234 H       
  31 H31           -6.2491    -2.9652     0.1697 H       
  32 H32           -6.0117    -4.4162    -1.8271 H       
  33 H33           -5.8781    -5.8444    -0.7734 H       
  34 H34           -8.0463    -5.3410    -2.8227 H       
  35 H35           -7.9127    -6.7693    -1.7690 H       
  36 H36           -9.3891    -5.7756    -1.7381 H       
  37 H37           -0.6043    -4.7507    -0.0533 H       
  38 H38            1.7943    -4.1183    -1.8320 H       
  39 H39            0.9592    -5.6872    -1.7347 H       
  40 H40            0.1065    -4.2636    -2.3785 H       
  41 H41            1.5000    -5.8239     0.7007 H       
  42 H42            2.3351    -4.2550     0.6034 H       
  43 H43            1.0326    -4.4977     1.7920 H       
@<TRIPOS>BOND
   1    1    2 1
   2    1    8 2
   3    1    9 1
   4    2    3 ar
   5    2    7 ar
   6    3    4 ar
   7    3   10 1
   8    4    5 ar
   9    4   23 1
  10    5    6 ar
  11    5   20 1
  12    6    7 ar
  13    6   13 1
  14    7   24 1
  15    9   25 1
  16   10   26 1
  17   10   27 1
  18   10   28 1
  19   11   12 1
  20   11   15 2
  21   12   13 2
  22   13   14 1
  23   14   15 1
  24   14   29 1
  25   15   16 1
  26   16   17 1
  27   16   30 1
  28   16   31 1
  29   17   18 1
  30   17   32 1
  31   17   33 1
  32   18   19 1
  33   19   34 1
  34   19   35 1
  35   19   36 1
  36   20   21 1
  37   20   22 1
  38   20   37 1
  39   21   38 1
  40   21   39 1
  41   21   40 1
  42   22   41 1
  43   22   42 1
  44   22   43 1

#	End of record

