#	Name: ASD01910892
#	Creating user name:	WinNT
#	Creation time:	15. 06. 2019 19:56

#	Modifying user name:	WinNT
#	Modification time:	15. 06. 2019 19:56

#	Program:	/corina/corina34_cracker 3.40 0067  02.08.2006

@<TRIPOS>MOLECULE
ASD01910892
  49   52    0    0    0
SMALL
NO_CHARGES


@<TRIPOS>ATOM
   1 C1             0.1979     1.4990    -0.2530 C.ar    
   2 N2             0.1395     0.1115    -0.1986 N.3     
   3 C3             1.4869    -0.4700    -0.1332 C.3     
   4 C4             1.3771    -1.9794     0.1074 C.3     
   5 N5             0.5010    -2.5545    -0.9246 N.am    
   6 C6            -0.8155    -1.9361    -1.1432 C.3     
   7 C7            -0.6194    -0.4284    -1.3346 C.3     
   8 C8             0.8942    -3.6195    -1.6508 C.2     
   9 C9            -0.0473    -4.2591    -2.5948 C.ar    
  10 C10            0.4057    -4.7123    -3.8357 C.ar    
  11 C11           -0.4717    -5.3100    -4.7192 C.ar    
  12 C12           -1.8016    -5.4640    -4.3835 C.ar    
  13 C13           -2.2694    -5.0146    -3.1446 C.ar    
  14 C14           -1.3869    -4.4159    -2.2457 C.ar    
  15 C15           -3.6494    -5.1744    -2.7974 C.1     
  16 O16            2.0228    -4.0544    -1.5299 O.2     
  17 C17           -4.7808    -5.3054    -2.5127 C.1     
  18 C18           -6.1609    -5.4652    -2.1654 C.ar    
  19 C19           -6.6391    -5.0200    -0.9306 C.ar    
  20 N20           -7.9083    -5.1673    -0.6120 N.ar    
  21 C21           -8.7718    -5.7337    -1.4329 C.ar    
  22 C22           -8.3775    -6.2015    -2.6741 C.ar    
  23 C23           -7.0564    -6.0658    -3.0608 C.ar    
  24 N24            1.3721     2.1043    -0.2411 N.ar    
  25 C25            1.4716     3.4290    -0.2917 C.ar    
  26 C26            0.3301     4.2237    -0.3594 C.ar    
  27 C27           -0.9176     3.6172    -0.3735 C.ar    
  28 C28           -0.9831     2.2363    -0.3253 C.ar    
  29 C29            2.7645     4.0444    -0.2761 C.1     
  30 N30            3.7902     4.5326    -0.2637 N.1     
  31 H31            2.0074    -0.2884    -1.0735 H       
  32 H32            2.0420    -0.0107     0.6848 H       
  33 H33            2.3660    -2.4333     0.0427 H       
  34 H34            0.9507    -2.1629     1.0936 H       
  35 H35           -1.2763    -2.3615    -2.0348 H       
  36 H36           -1.4527    -2.1155    -0.2773 H       
  37 H37           -1.5919     0.0610    -1.3879 H       
  38 H38           -0.0696    -0.2475    -2.2582 H       
  39 H39            1.4449    -4.5948    -4.1053 H       
  40 H40           -0.1156    -5.6581    -5.6775 H       
  41 H41           -2.4823    -5.9323    -5.0791 H       
  42 H42           -1.7423    -4.0668    -1.2875 H       
  43 H43           -5.9623    -4.5514    -0.2315 H       
  44 H44           -9.8038    -5.8343    -1.1311 H       
  45 H45           -9.0949    -6.6637    -3.3359 H       
  46 H46           -6.7217    -6.4220    -4.0238 H       
  47 H47            0.4151     5.2996    -0.4000 H       
  48 H48           -1.8185     4.2105    -0.4251 H       
  49 H49           -1.9396     1.7349    -0.3348 H       
@<TRIPOS>BOND
   1    1    2 1
   2    1   24 ar
   3    1   28 ar
   4    2    3 1
   5    2    7 1
   6    3    4 1
   7    3   31 1
   8    3   32 1
   9    4    5 1
  10    4   33 1
  11    4   34 1
  12    5    6 1
  13    5    8 am
  14    6    7 1
  15    6   35 1
  16    6   36 1
  17    7   37 1
  18    7   38 1
  19    8    9 1
  20    8   16 2
  21    9   10 ar
  22    9   14 ar
  23   10   11 ar
  24   10   39 1
  25   11   12 ar
  26   11   40 1
  27   12   13 ar
  28   12   41 1
  29   13   14 ar
  30   13   15 1
  31   14   42 1
  32   15   17 3
  33   17   18 1
  34   18   19 ar
  35   18   23 ar
  36   19   20 ar
  37   19   43 1
  38   20   21 ar
  39   21   22 ar
  40   21   44 1
  41   22   23 ar
  42   22   45 1
  43   23   46 1
  44   24   25 ar
  45   25   26 ar
  46   25   29 1
  47   26   27 ar
  48   26   47 1
  49   27   28 ar
  50   27   48 1
  51   28   49 1
  52   29   30 3

#	End of record

