#	Name: ASD07110025
#	Creating user name:	WinNT
#	Creation time:	15. 06. 2019 21:09

#	Modifying user name:	WinNT
#	Modification time:	15. 06. 2019 21:09

#	Program:	/corina/corina34_cracker 3.40 0067  02.08.2006

@<TRIPOS>MOLECULE
ASD07110025
 435  443    0    0    0
SMALL
NO_CHARGES


@<TRIPOS>ATOM
   1 C1             0.9209     0.5516     5.0256 C.2     
   2 O2             1.9696    -0.0271     5.2162 O.2     
   3 N3             2.2601     2.1432     3.7693 N.3     
   4 C4             0.8975     1.8206     4.2131 C.3     
   5 C5             0.1471    -2.3519     5.5444 C.2     
   6 O6             0.5615    -2.1944     4.4155 O.2     
   7 N7            -0.2242     0.0568     5.5358 N.am    
   8 C8            -0.3455    -1.1693     6.3380 C.3     
   9 C9            -1.8404    -1.3498     6.6758 C.3     
  10 C10           -2.5488    -0.5240     5.5697 C.3     
  11 C11           -1.5617     0.6588     5.3872 C.3     
  12 C12           -0.0491    -5.9910     5.8301 C.2     
  13 O13           -0.8380    -5.9321     6.7493 O.2     
  14 N14            0.1270    -3.5845     6.0891 N.am    
  15 C15            0.6058    -4.7342     5.3175 C.3     
  16 C16            2.1238    -4.8524     5.4675 C.3     
  17 O17            2.4464    -5.1491     6.8276 O.3     
  18 C18            0.6225    -9.5615     5.5393 C.2     
  19 O19            1.5009    -9.4329     4.7131 O.2     
  20 N20            0.2420    -7.1803     5.2669 N.am    
  21 C21           -0.3085    -8.4137     5.8343 C.3     
  22 C22           -1.6776    -8.6947     5.2119 C.3     
  23 C23           -1.5917    -8.5272     3.6935 C.3     
  24 C24           -0.8217    -9.7052     3.0932 C.3     
  25 C25           -3.0030    -8.4870     3.1041 C.3     
  26 C26            1.1462   -12.3957     4.5437 C.2     
  27 O27            0.2493   -11.9605     3.8530 O.2     
  28 N28            0.4788   -10.7310     6.1938 N.am    
  29 C29            1.2848   -11.9407     5.9736 C.3     
  30 C30            0.7463   -13.0296     6.9254 C.3     
  31 C31           -0.6975   -12.5464     7.2246 C.3     
  32 C32           -0.5084   -11.0070     7.2533 C.3     
  33 C33            1.5915   -15.1023     2.4803 C.2     
  34 O34            1.4077   -15.7746     3.4728 O.2     
  35 N35            2.0190   -13.2863     4.0323 N.am    
  36 C36            1.9526   -13.6452     2.6135 C.3     
  37 C37            3.3131   -13.3952     1.9599 C.3     
  38 C38            3.6141   -11.9186     1.9754 C.2     
  39 C39            3.3814   -11.0458     0.9824 C.2     
  40 N40            3.7847    -9.7934     1.3580 N.pl3   
  41 C41            4.2999    -9.8306     2.6344 C.ar    
  42 C42            4.8373    -8.8648     3.4787 C.ar    
  43 C43            5.2792    -9.2224     4.7338 C.ar    
  44 C44            5.1939   -10.5386     5.1659 C.ar    
  45 C45            4.6699   -11.5037     4.3525 C.ar    
  46 C46            4.2103   -11.1625     3.0793 C.ar    
  47 C47            1.6310   -17.6000    -0.1886 C.2     
  48 O48            1.8338   -16.8361    -1.1085 O.2     
  49 N49            1.4727   -15.6582     1.2583 N.am    
  50 C50            1.1217   -17.0746     1.1288 C.3     
  51 C51           -0.3992   -17.2304     1.1863 C.3     
  52 C52           -0.8891   -16.8722     2.5658 C.ar    
  53 C53           -1.2433   -15.5674     2.8552 C.ar    
  54 C54           -1.6922   -15.2364     4.1190 C.ar    
  55 C55           -1.7879   -16.2146     5.0981 C.ar    
  56 O56           -2.2296   -15.8916     6.3420 O.3     
  57 C57           -1.4324   -17.5232     4.8051 C.ar    
  58 C58           -0.9890   -17.8500     3.5382 C.ar    
  59 C59            1.6056   -19.2644    -2.7435 C.2     
  60 O60            0.5985   -18.5974    -2.6342 O.2     
  61 N61            1.8612   -18.9187    -0.3445 N.am    
  62 C62            2.4550   -19.5504    -1.5320 C.3     
  63 C63            2.4990   -21.0703    -1.2687 C.3     
  64 C64            1.4095   -21.2664    -0.1816 C.3     
  65 C65            1.5652   -19.9661     0.6499 C.3     
  66 C66            1.7558   -20.1231    -6.3370 C.2     
  67 O67            2.7839   -20.7571    -6.2272 O.2     
  68 N68            1.9649   -19.7499    -3.9483 N.am    
  69 C69            1.1392   -19.4719    -5.1260 C.3     
  70 C70            2.7611   -19.8850    -9.3664 C.2     
  71 O71            3.0395   -18.7918    -8.9212 O.2     
  72 N72            1.1649   -20.0011    -7.5422 N.am    
  73 C73            1.7022   -20.7234    -8.6980 C.3     
  74 C74            0.5738   -21.0072    -9.6915 C.3     
  75 C75           -0.4118   -21.9644    -9.0724 C.2     
  76 O76           -0.2760   -22.3126    -7.9186 O.2     
  77 N77           -1.4442   -22.4335    -9.8008 N.am    
  78 C78            4.5432   -19.9328   -12.5578 C.2     
  79 O79            3.8351   -20.8106   -13.0037 O.2     
  80 N80            3.3987   -20.3500   -10.4590 N.am    
  81 C81            4.4280   -19.5350   -11.1088 C.3     
  82 C82            5.7711   -19.7578   -10.4105 C.3     
  83 C83            5.6910   -19.2386    -8.9735 C.3     
  84 C84            7.0139   -19.4580    -8.2857 C.2     
  85 O85            7.9269   -19.9764    -8.8835 O.2     
  86 O86            7.1777   -19.0774    -7.0090 O.3     
  87 C87            6.9235   -19.3609   -15.2726 C.2     
  88 O88            7.5581   -18.4681   -14.7519 O.2     
  89 N89            5.4330   -19.3130   -13.3581 N.am    
  90 C90            5.5450   -19.6996   -14.7667 C.3     
  91 C91            4.4998   -18.9421   -15.5881 C.3     
  92 C92            8.7086   -18.3642   -17.5349 C.2     
  93 O93            7.7198   -17.6735   -17.4082 O.2     
  94 N94            7.4512   -20.0501   -16.3036 N.am    
  95 C95            8.7324   -19.7583   -16.9631 C.3     
  96 C96            8.9083   -20.7884   -18.0986 C.3     
  97 C97            7.4534   -21.2491   -18.3784 C.3     
  98 C98            6.8423   -21.2254   -16.9527 C.3     
  99 C99           10.7390   -16.4397   -19.8879 C.2     
 100 O100          11.5237   -17.3424   -20.0883 O.2     
 101 N101           9.7863   -17.8849   -18.1872 N.am    
 102 C102           9.7632   -16.5297   -18.7431 C.3     
 103 C103          10.1569   -15.5263   -17.6573 C.3     
 104 C104           9.1279   -15.5694   -16.5257 C.3     
 105 C105          11.5374   -15.8876   -17.1053 C.3     
 106 C106          11.9030   -13.8858   -22.2301 C.2     
 107 O107          11.4372   -12.9844   -21.5656 O.2     
 108 N108          10.7397   -15.3559   -20.6892 N.am    
 109 C109          11.6059   -15.3186   -21.8701 C.3     
 110 C110          10.8997   -16.0031   -23.0423 C.3     
 111 C111          10.7097   -17.4880   -22.7264 C.3     
 112 C112          10.0142   -18.1621   -23.8809 C.2     
 113 O113           9.7025   -17.5207   -24.8563 O.2     
 114 O114           9.7409   -19.4751   -23.8257 O.3     
 115 C115          12.0156   -11.5821   -24.4495 C.2     
 116 O116          11.0468   -12.2225   -24.7992 O.2     
 117 N117          12.6864   -13.6059   -23.2905 N.am    
 118 C118          13.0650   -12.2197   -23.5759 C.3     
 119 C119          14.4130   -12.1979   -24.2995 C.3     
 120 C120          15.4877   -12.7090   -23.3749 C.2     
 121 O121          15.2243   -12.9568   -22.2173 O.2     
 122 N122          16.7416   -12.8907   -23.8345 N.am    
 123 C123          11.7504    -8.5500   -26.4741 C.2     
 124 O124          12.9265    -8.2879   -26.3361 O.2     
 125 N125          12.1536   -10.3002   -24.8422 N.am    
 126 C126          11.1334    -9.6803   -25.6914 C.3     
 127 C127          10.0025    -9.1368   -24.8159 C.3     
 128 C128           9.2952   -10.2993   -24.1165 C.3     
 129 C129           8.2474    -9.7495   -23.1466 C.3     
 130 C130           8.6097   -11.1820   -25.1614 C.3     
 131 C131          10.5263    -5.7366   -28.4615 C.2     
 132 O132           9.3767    -5.9269   -28.1250 O.2     
 133 N133          10.9953    -7.8302   -27.3274 N.am    
 134 C134          11.5951    -6.7313   -28.0883 C.3     
 135 C135          12.2427    -7.2849   -29.3591 C.3     
 136 C136          13.4096    -8.1991   -28.9803 C.3     
 137 C137          14.0475    -8.7443   -30.2320 C.2     
 138 O138          13.6134    -8.4336   -31.3159 O.2     
 139 O139          15.0980    -9.5752   -30.1428 O.3     
 140 C140          10.2346    -2.9123   -30.7638 C.2     
 141 O141          11.3010    -3.1569   -31.2873 O.2     
 142 N142          10.8479    -4.6356   -29.1691 N.am    
 143 C143           9.8088    -3.6686   -29.5319 C.3     
 144 C144           9.6004    -2.6867   -28.3772 C.3     
 145 C145           9.0490    -3.4369   -27.1631 C.3     
 146 C146           8.8406    -2.4550   -26.0084 C.3     
 147 N147           8.3127    -3.1733   -24.8458 N.pl3   
 148 C148           8.0446    -2.4935   -23.6813 C.2     
 149 N149           8.2602    -1.2099   -23.6116 N.2     
 150 N150           7.5492    -3.1675   -22.5903 N.pl3   
 151 C151           9.1534     0.1102   -32.5128 C.2     
 152 O152           8.3904     0.4198   -31.6223 O.2     
 153 N153           9.4304    -1.9640   -31.2839 N.am    
 154 C154           9.8443    -1.2287   -32.4816 C.3     
 155 C155           9.4625    -2.0288   -33.7286 C.3     
 156 C156          10.2469    -3.3152   -33.7596 C.ar    
 157 C157           9.7368    -4.4504   -33.1579 C.ar    
 158 C158          10.4563    -5.6304   -33.1863 C.ar    
 159 C159          11.6856    -5.6754   -33.8170 C.ar    
 160 C160          12.1952    -4.5405   -34.4195 C.ar    
 161 C161          11.4738    -3.3616   -34.3948 C.ar    
 162 C162           7.3502     1.9816   -34.3781 C.2     
 163 O163           7.0919     0.8754   -34.8029 O.2     
 164 N164           9.3834     0.9636   -33.5302 N.am    
 165 C165           8.6307     2.2173   -33.6191 C.3     
 166 C166           9.4712     3.2661   -34.3502 C.3     
 167 C167          10.6791     3.6112   -33.5177 C.2     
 168 O168          10.8935     3.0145   -32.4838 O.2     
 169 N169          11.5210     4.5828   -33.9221 N.am    
 170 C170           5.3761     2.7237   -36.7219 C.2     
 171 O171           6.4748     2.8972   -37.2054 O.2     
 172 N172           6.4922     3.0002   -34.5848 N.am    
 173 C173           5.1988     2.7498   -35.2256 C.3     
 174 C174           4.2185     3.8620   -34.8475 C.3     
 175 C175           3.9372     3.8023   -33.3682 C.2     
 176 O176           4.3865     2.8941   -32.7017 O.2     
 177 N177           3.1865     4.7582   -32.7859 N.am    
 178 C178           3.2223     3.2051   -39.5748 C.2     
 179 O179           2.3054     3.5411   -38.8555 O.2     
 180 N180           4.3139     2.5076   -37.5227 N.am    
 181 C181           4.4637     2.5941   -38.9775 C.3     
 182 C182           4.6696     1.1917   -39.5533 C.3     
 183 C183           3.5570     0.2673   -39.0549 C.3     
 184 C184           2.2162     0.7259   -39.6318 C.3     
 185 C185           6.0259     0.6482   -39.0995 C.3     
 186 C186           1.7918     3.4278   -42.9314 C.2     
 187 O187           2.6738     2.7487   -43.4129 O.2     
 188 N188           3.1310     3.3781   -40.9083 N.am    
 189 C189           1.8886     3.8829   -41.4981 C.3     
 190 C190           1.8843     5.4120   -41.4471 C.3     
 191 C191           1.8567     5.8736   -39.9886 C.3     
 192 C192           1.9781     7.3978   -39.9337 C.3     
 193 C193           0.5384     5.4433   -39.3423 C.3     
 194 C194          -0.2441     4.2867   -45.8435 C.2     
 195 O195          -0.7404     5.2418   -45.2847 O.2     
 196 N196           0.7251     3.7755   -43.6783 N.am    
 197 C197           0.6310     3.3330   -45.0717 C.3     
 198 C198           0.0237     1.9296   -45.1213 C.3     
 199 C199           0.9735     0.9387   -44.4453 C.3     
 200 C200           0.3128    -0.4399   -44.3837 C.3     
 201 C201           2.2716     0.8467   -45.2498 C.3     
 202 C202          -1.9230     4.2917   -49.0908 C.2     
 203 O203          -1.6633     3.1238   -49.2894 O.2     
 204 N204          -0.4753     4.0781   -47.1548 N.am    
 205 C205          -1.3261     5.0052   -47.9052 C.3     
 206 C206          -0.4864     6.1881   -48.3915 C.3     
 207 C207           0.0172     6.9856   -47.1868 C.3     
 208 C208           0.8443     8.1507   -47.6659 C.2     
 209 O209           1.0142     8.3259   -48.8539 O.2     
 210 N210           1.3951     8.9980   -46.7742 N.am    
 211 C211          -2.3542     4.2975   -52.2343 C.2     
 212 O212          -1.2867     4.8486   -52.1054 O.2     
 213 N213          -2.7454     4.9514   -49.9303 N.am    
 214 C214          -3.3256     4.2578   -51.0829 C.3     
 215 C215          -4.6285     4.9484   -51.4908 C.3     
 216 C216          -5.6423     4.8017   -50.3854 C.ar    
 217 C217          -5.7188     5.7562   -49.3880 C.ar    
 218 C218          -6.6469     5.6238   -48.3734 C.ar    
 219 C219          -7.5029     4.5322   -48.3560 C.ar    
 220 O220          -8.4171     4.3999   -47.3592 O.3     
 221 C221          -7.4244     3.5761   -49.3582 C.ar    
 222 C222          -6.4981     3.7158   -50.3735 C.ar    
 223 O223          -2.6749     3.7206   -53.4031 O.3     
 224 H224           2.2711     2.9907     3.2219 H       
 225 H225           2.8895     2.2119     4.5549 H       
 226 H226           0.2550     1.6833     3.3433 H       
 227 H227           0.5118     2.6364     4.8245 H       
 228 H228           0.2350    -1.0710     7.2554 H       
 229 H229          -2.1254    -2.4001     6.6152 H       
 230 H230          -2.0645    -0.9447     7.6626 H       
 231 H231          -2.6445    -1.1026     4.6509 H       
 232 H232          -3.5220    -0.1695     5.9095 H       
 233 H233          -1.7252     1.4143     6.1556 H       
 234 H234          -1.6730     1.0956     4.3948 H       
 235 H235          -0.2045    -3.7104     6.9919 H       
 236 H236           0.3542    -4.5962     4.2660 H       
 237 H237           2.4912    -5.6520     4.8242 H       
 238 H238           2.5917    -3.9109     5.1801 H       
 239 H239           3.3944    -5.2383     6.9965 H       
 240 H240           0.8160    -7.2197     4.4860 H       
 241 H241          -0.4160    -8.3011     6.9131 H       
 242 H242          -1.9819    -9.7143     5.4483 H       
 243 H243          -2.4100    -7.9946     5.6138 H       
 244 H244          -1.0735    -7.5972     3.4593 H       
 245 H245           0.2329    -9.6216     3.3559 H       
 246 H246          -1.2215   -10.6394     3.4876 H       
 247 H247          -0.9279    -9.6937     2.0084 H       
 248 H248          -3.5516    -7.6478     3.5318 H       
 249 H249          -2.9418    -8.3676     2.0224 H       
 250 H250          -3.5212    -9.4169     3.3383 H       
 251 H251           2.3315   -11.7345     6.1970 H       
 252 H252           0.7332   -14.0013     6.4317 H       
 253 H253           1.3373   -13.0686     7.8404 H       
 254 H254          -1.3818   -12.8446     6.4303 H       
 255 H255          -1.0400   -12.9143     8.1918 H       
 256 H256          -0.1243   -10.6876     8.2222 H       
 257 H257          -1.4508   -10.5053     7.0338 H       
 258 H258           2.6912   -13.6896     4.6036 H       
 259 H259           1.1950   -13.0366     2.1198 H       
 260 H260           4.0856   -13.9293     2.5131 H       
 261 H261           3.2923   -13.7509     0.9298 H       
 262 H262           2.9413   -11.2953     0.0282 H       
 263 H263           3.7176    -8.9978     0.8072 H       
 264 H264           4.9083    -7.8380     3.1514 H       
 265 H265           5.6965    -8.4711     5.3878 H       
 266 H266           5.5448   -10.8023     6.1527 H       
 267 H267           4.6070   -12.5259     4.6954 H       
 268 H268           1.6197   -15.1204     0.4645 H       
 269 H269           1.5757   -17.6374     1.9444 H       
 270 H270          -0.8603   -16.5680     0.4537 H       
 271 H271          -0.6674   -18.2629     0.9623 H       
 272 H272          -1.1685   -14.8062     2.0926 H       
 273 H273          -1.9680   -14.2169     4.3448 H       
 274 H274          -3.1874   -15.9677     6.4514 H       
 275 H275          -1.5057   -18.2864     5.5657 H       
 276 H276          -0.7163   -18.8694     3.3083 H       
 277 H277           3.4643   -19.1696    -1.6888 H       
 278 H278           2.2467   -21.6256    -2.1721 H       
 279 H279           3.4775   -21.3684    -0.8922 H       
 280 H280           0.4179   -21.3314    -0.6295 H       
 281 H281           1.6195   -22.1453     0.4279 H       
 282 H282           2.3892   -20.0616     1.3570 H       
 283 H283           0.6377   -19.7389     1.1754 H       
 284 H284           2.7704   -20.2833    -4.0356 H       
 285 H285           1.0808   -18.3948    -5.2828 H       
 286 H286           0.1370   -19.8710    -4.9695 H       
 287 H287           0.3839   -19.4350    -7.6443 H       
 288 H288           2.1399   -21.6651    -8.3665 H       
 289 H289           0.0671   -20.0752    -9.9418 H       
 290 H290           0.9897   -21.4491   -10.5970 H       
 291 H291          -1.5527   -22.1551   -10.7236 H       
 292 H292          -2.0786   -23.0496    -9.4023 H       
 293 H293           3.1759   -21.2244   -10.8150 H       
 294 H294           4.1539   -18.4822   -11.0417 H       
 295 H295           6.0027   -20.8228   -10.3996 H       
 296 H296           6.5532   -19.2213   -10.9476 H       
 297 H297           5.4594   -18.1735    -8.9844 H       
 298 H298           4.9089   -19.7750    -8.4364 H       
 299 H299           8.0439   -19.2389    -6.6105 H       
 300 H300           5.9993   -18.6108   -13.0014 H       
 301 H301           5.3757   -20.7720   -14.8636 H       
 302 H302           4.7207   -17.8750   -15.5617 H       
 303 H303           4.5246   -19.2928   -16.6198 H       
 304 H304           3.5097   -19.1187   -15.1680 H       
 305 H305           9.5480   -19.8507   -16.2459 H       
 306 H306           9.3407   -20.3186   -18.9820 H       
 307 H307           9.5213   -21.6267   -17.7673 H       
 308 H308           6.9418   -20.5483   -19.0381 H       
 309 H309           7.4356   -22.2572   -18.7925 H       
 310 H310           7.1019   -22.1349   -16.4110 H       
 311 H311           5.7597   -21.1107   -17.0064 H       
 312 H312          10.5772   -18.4373   -18.2885 H       
 313 H313           8.7597   -16.3014   -19.1022 H       
 314 H314          10.1869   -14.5233   -18.0830 H       
 315 H315           9.0882   -16.5757   -16.1089 H       
 316 H316           9.4157   -14.8642   -15.7459 H       
 317 H317           8.1469   -15.2988   -16.9162 H       
 318 H318          12.2704   -15.8569   -17.9114 H       
 319 H319          11.8178   -15.1727   -16.3317 H       
 320 H320          11.5073   -16.8905   -16.6795 H       
 321 H321          10.1668   -14.6006   -20.4839 H       
 322 H322          12.5384   -15.8397   -21.6534 H       
 323 H323           9.9269   -15.5381   -23.2019 H       
 324 H324          11.5050   -15.8977   -23.9427 H       
 325 H325          11.6825   -17.9529   -22.5668 H       
 326 H326          10.1045   -17.5934   -21.8260 H       
 327 H327           9.2937   -19.8630   -24.5903 H       
 328 H328          12.9996   -14.3223   -23.8646 H       
 329 H329          13.1455   -11.6652   -22.6410 H       
 330 H330          14.3613   -12.8338   -25.1832 H       
 331 H331          14.6476   -11.1767   -24.5999 H       
 332 H332          16.9522   -12.6926   -24.7604 H       
 333 H333          17.4333   -13.2197   -23.2394 H       
 334 H334          12.9284    -9.7880   -24.5625 H       
 335 H335          10.7338   -10.4240   -26.3809 H       
 336 H336          10.4154    -8.4598   -24.0680 H       
 337 H337           9.2879    -8.5983   -25.4383 H       
 338 H338          10.0263   -10.8903   -23.5648 H       
 339 H339           7.5164    -9.1584   -23.6983 H       
 340 H340           7.7435   -10.5777   -22.6484 H       
 341 H341           8.7358    -9.1206   -22.4023 H       
 342 H342           9.3562   -11.5737   -25.8523 H       
 343 H343           8.1058   -12.0102   -24.6631 H       
 344 H344           7.8786   -10.5910   -25.7131 H       
 345 H345          10.0546    -8.0398   -27.4378 H       
 346 H346          12.3530    -6.2389   -27.4791 H       
 347 H347          11.5047    -7.8533   -29.9251 H       
 348 H348          12.6108    -6.4595   -29.9685 H       
 349 H349          14.1476    -7.6306   -28.4143 H       
 350 H350          13.0415    -9.0245   -28.3709 H       
 351 H351          15.4734    -9.8989   -30.9730 H       
 352 H352          11.7673    -4.4835   -29.4382 H       
 353 H353           8.8763    -4.1958   -29.7334 H       
 354 H354          10.5526    -2.2244   -28.1170 H       
 355 H355           8.8925    -1.9151   -28.6798 H       
 356 H356           8.0968    -3.8992   -27.4233 H       
 357 H357           9.7569    -4.2086   -26.8605 H       
 358 H358           9.7928    -1.9927   -25.7482 H       
 359 H359           8.1327    -1.6833   -26.3109 H       
 360 H360           8.1523    -4.1285   -24.8977 H       
 361 H361           8.0711    -0.7302   -22.7899 H       
 362 H362           7.3887    -4.1228   -22.6421 H       
 363 H363           7.3601    -2.6879   -21.7686 H       
 364 H364           8.5775    -1.7684   -30.8653 H       
 365 H365          10.9239    -1.0801   -32.4616 H       
 366 H366           8.3963    -2.2538   -33.7036 H       
 367 H367           9.6895    -1.4433   -34.6195 H       
 368 H368           8.7764    -4.4153   -32.6652 H       
 369 H369          10.0581    -6.5171   -32.7156 H       
 370 H370          12.2480    -6.5972   -33.8386 H       
 371 H371          13.1558    -4.5755   -34.9119 H       
 372 H372          11.8703    -2.4758   -34.8688 H       
 373 H373          10.0474     0.7478   -34.2036 H       
 374 H374           8.3979     2.5733   -32.6155 H       
 375 H375           9.7945     2.8670   -35.3115 H       
 376 H376           8.8730     4.1629   -34.5117 H       
 377 H377          11.3495     5.0599   -34.7490 H       
 378 H378          12.2985     4.8048   -33.3863 H       
 379 H379           6.7310     3.8991   -34.3093 H       
 380 H380           4.8065     1.7900   -34.8894 H       
 381 H381           4.6539     4.8300   -35.0958 H       
 382 H382           3.2882     3.7296   -35.3999 H       
 383 H383           2.8272     5.4846   -33.3190 H       
 384 H384           3.0055     4.7198   -31.8337 H       
 385 H385           3.4502     2.2947   -37.1359 H       
 386 H386           5.3262     3.2158   -39.2176 H       
 387 H387           4.6428     1.2384   -40.6420 H       
 388 H388           3.7612    -0.7537   -39.3775 H       
 389 H389           3.5155     0.3029   -37.9663 H       
 390 H390           1.8934     1.6342   -39.1230 H       
 391 H391           2.3287     0.9266   -40.6972 H       
 392 H392           1.4713    -0.0565   -39.4861 H       
 393 H393           6.0696     0.6438   -38.0104 H       
 394 H394           6.1532    -0.3682   -39.4723 H       
 395 H395           6.8211     1.2816   -39.4924 H       
 396 H396           3.8879     3.1684   -41.4775 H       
 397 H397           1.0373     3.4982   -40.9365 H       
 398 H398           2.7824     5.7943   -41.9322 H       
 399 H399           1.0027     5.7903   -41.9646 H       
 400 H400           2.6899     5.4231   -39.4491 H       
 401 H401           1.1449     7.8483   -40.4732 H       
 402 H402           1.9585     7.7266   -38.8947 H       
 403 H403           2.9173     7.7043   -40.3941 H       
 404 H404           0.4519     4.3575   -39.3815 H       
 405 H405           0.5187     5.7722   -38.3033 H       
 406 H406          -0.2948     5.8938   -39.8818 H       
 407 H407           0.0197     4.3186   -43.2932 H       
 408 H408           1.6267     3.3139   -45.5149 H       
 409 H409          -0.9333     1.9292   -44.5996 H       
 410 H410          -0.1285     1.6361   -46.1600 H       
 411 H411           1.1959     1.2806   -43.4345 H       
 412 H412           0.0904    -0.7817   -45.3945 H       
 413 H413           0.9894    -1.1458   -43.9020 H       
 414 H414          -0.6120    -0.3743   -43.8105 H       
 415 H415           2.0492     0.5048   -46.2606 H       
 416 H416           2.7423     1.8288   -45.2937 H       
 417 H417           2.9482     0.1407   -44.7682 H       
 418 H418          -0.0784     3.3142   -47.6018 H       
 419 H419          -2.1256     5.3683   -47.2594 H       
 420 H420           0.3644     5.8187   -48.9641 H       
 421 H421          -1.0977     6.8321   -49.0237 H       
 422 H422          -0.8336     7.3550   -46.6143 H       
 423 H423           0.6285     6.3416   -46.5546 H       
 424 H424           1.2592     8.8578   -45.8240 H       
 425 H425           1.9275     9.7479   -47.0825 H       
 426 H426          -2.9531     5.8855   -49.7714 H       
 427 H427          -3.5318     3.2210   -50.8170 H       
 428 H428          -4.4380     6.0064   -51.6710 H       
 429 H429          -5.0141     4.4885   -52.4008 H       
 430 H430          -5.0522     6.6058   -49.4020 H       
 431 H431          -6.7058     6.3692   -47.5941 H       
 432 H432          -9.2695     4.8149   -47.5496 H       
 433 H433          -8.0895     2.7252   -49.3467 H       
 434 H434          -6.4395     2.9741   -51.1563 H       
 435 H435          -2.0196     3.7719   -54.1124 H       
@<TRIPOS>BOND
   1    1    2 2
   2    1    4 1
   3    1    7 am
   4    3    4 1
   5    3  224 1
   6    3  225 1
   7    4  226 1
   8    4  227 1
   9    5    6 2
  10    5   14 am
  11    5    8 1
  12    7    8 1
  13    7   11 1
  14    8    9 1
  15    8  228 1
  16    9   10 1
  17    9  229 1
  18    9  230 1
  19   10   11 1
  20   10  231 1
  21   10  232 1
  22   11  233 1
  23   11  234 1
  24   12   13 2
  25   12   15 1
  26   12   20 am
  27   14   15 1
  28   14  235 1
  29   15   16 1
  30   15  236 1
  31   16   17 1
  32   16  237 1
  33   16  238 1
  34   17  239 1
  35   18   19 2
  36   18   21 1
  37   18   28 am
  38   20   21 1
  39   20  240 1
  40   21   22 1
  41   21  241 1
  42   22   23 1
  43   22  242 1
  44   22  243 1
  45   23   24 1
  46   23   25 1
  47   23  244 1
  48   24  245 1
  49   24  246 1
  50   24  247 1
  51   25  248 1
  52   25  249 1
  53   25  250 1
  54   26   27 2
  55   26   35 am
  56   26   29 1
  57   28   29 1
  58   28   32 1
  59   29   30 1
  60   29  251 1
  61   30   31 1
  62   30  252 1
  63   30  253 1
  64   31   32 1
  65   31  254 1
  66   31  255 1
  67   32  256 1
  68   32  257 1
  69   33   34 2
  70   33   36 1
  71   33   49 am
  72   35   36 1
  73   35  258 1
  74   36   37 1
  75   36  259 1
  76   37   38 1
  77   37  260 1
  78   37  261 1
  79   38   39 2
  80   38   46 1
  81   39   40 1
  82   39  262 1
  83   40   41 1
  84   40  263 1
  85   41   42 ar
  86   41   46 ar
  87   42   43 ar
  88   42  264 1
  89   43   44 ar
  90   43  265 1
  91   44   45 ar
  92   44  266 1
  93   45   46 ar
  94   45  267 1
  95   47   48 2
  96   47   50 1
  97   47   61 am
  98   49   50 1
  99   49  268 1
 100   50   51 1
 101   50  269 1
 102   51   52 1
 103   51  270 1
 104   51  271 1
 105   52   53 ar
 106   52   58 ar
 107   53   54 ar
 108   53  272 1
 109   54   55 ar
 110   54  273 1
 111   55   56 1
 112   55   57 ar
 113   56  274 1
 114   57   58 ar
 115   57  275 1
 116   58  276 1
 117   59   60 2
 118   59   68 am
 119   59   62 1
 120   61   62 1
 121   61   65 1
 122   62   63 1
 123   62  277 1
 124   63   64 1
 125   63  278 1
 126   63  279 1
 127   64   65 1
 128   64  280 1
 129   64  281 1
 130   65  282 1
 131   65  283 1
 132   66   67 2
 133   66   69 1
 134   66   72 am
 135   68   69 1
 136   68  284 1
 137   69  285 1
 138   69  286 1
 139   70   71 2
 140   70   73 1
 141   70   80 am
 142   72   73 1
 143   72  287 1
 144   73   74 1
 145   73  288 1
 146   74   75 1
 147   74  289 1
 148   74  290 1
 149   75   76 2
 150   75   77 am
 151   77  291 1
 152   77  292 1
 153   78   79 2
 154   78   81 1
 155   78   89 am
 156   80   81 1
 157   80  293 1
 158   81   82 1
 159   81  294 1
 160   82   83 1
 161   82  295 1
 162   82  296 1
 163   83   84 1
 164   83  297 1
 165   83  298 1
 166   84   85 2
 167   84   86 1
 168   86  299 1
 169   87   88 2
 170   87   90 1
 171   87   94 am
 172   89   90 1
 173   89  300 1
 174   90   91 1
 175   90  301 1
 176   91  302 1
 177   91  303 1
 178   91  304 1
 179   92   93 2
 180   92  101 am
 181   92   95 1
 182   94   95 1
 183   94   98 1
 184   95   96 1
 185   95  305 1
 186   96   97 1
 187   96  306 1
 188   96  307 1
 189   97   98 1
 190   97  308 1
 191   97  309 1
 192   98  310 1
 193   98  311 1
 194   99  100 2
 195   99  102 1
 196   99  108 am
 197  101  102 1
 198  101  312 1
 199  102  103 1
 200  102  313 1
 201  103  104 1
 202  103  105 1
 203  103  314 1
 204  104  315 1
 205  104  316 1
 206  104  317 1
 207  105  318 1
 208  105  319 1
 209  105  320 1
 210  106  107 2
 211  106  109 1
 212  106  117 am
 213  108  109 1
 214  108  321 1
 215  109  110 1
 216  109  322 1
 217  110  111 1
 218  110  323 1
 219  110  324 1
 220  111  112 1
 221  111  325 1
 222  111  326 1
 223  112  113 2
 224  112  114 1
 225  114  327 1
 226  115  116 2
 227  115  118 1
 228  115  125 am
 229  117  118 1
 230  117  328 1
 231  118  119 1
 232  118  329 1
 233  119  120 1
 234  119  330 1
 235  119  331 1
 236  120  121 2
 237  120  122 am
 238  122  332 1
 239  122  333 1
 240  123  124 2
 241  123  126 1
 242  123  133 am
 243  125  126 1
 244  125  334 1
 245  126  127 1
 246  126  335 1
 247  127  128 1
 248  127  336 1
 249  127  337 1
 250  128  129 1
 251  128  130 1
 252  128  338 1
 253  129  339 1
 254  129  340 1
 255  129  341 1
 256  130  342 1
 257  130  343 1
 258  130  344 1
 259  131  132 2
 260  131  134 1
 261  131  142 am
 262  133  134 1
 263  133  345 1
 264  134  135 1
 265  134  346 1
 266  135  136 1
 267  135  347 1
 268  135  348 1
 269  136  137 1
 270  136  349 1
 271  136  350 1
 272  137  138 2
 273  137  139 1
 274  139  351 1
 275  140  141 2
 276  140  143 1
 277  140  153 am
 278  142  143 1
 279  142  352 1
 280  143  144 1
 281  143  353 1
 282  144  145 1
 283  144  354 1
 284  144  355 1
 285  145  146 1
 286  145  356 1
 287  145  357 1
 288  146  147 1
 289  146  358 1
 290  146  359 1
 291  147  148 1
 292  147  360 1
 293  148  149 2
 294  148  150 1
 295  149  361 1
 296  150  362 1
 297  150  363 1
 298  151  152 2
 299  151  154 1
 300  151  164 am
 301  153  154 1
 302  153  364 1
 303  154  155 1
 304  154  365 1
 305  155  156 1
 306  155  366 1
 307  155  367 1
 308  156  157 ar
 309  156  161 ar
 310  157  158 ar
 311  157  368 1
 312  158  159 ar
 313  158  369 1
 314  159  160 ar
 315  159  370 1
 316  160  161 ar
 317  160  371 1
 318  161  372 1
 319  162  163 2
 320  162  165 1
 321  162  172 am
 322  164  165 1
 323  164  373 1
 324  165  166 1
 325  165  374 1
 326  166  167 1
 327  166  375 1
 328  166  376 1
 329  167  168 2
 330  167  169 am
 331  169  377 1
 332  169  378 1
 333  170  171 2
 334  170  173 1
 335  170  180 am
 336  172  173 1
 337  172  379 1
 338  173  174 1
 339  173  380 1
 340  174  175 1
 341  174  381 1
 342  174  382 1
 343  175  176 2
 344  175  177 am
 345  177  383 1
 346  177  384 1
 347  178  179 2
 348  178  181 1
 349  178  188 am
 350  180  181 1
 351  180  385 1
 352  181  182 1
 353  181  386 1
 354  182  183 1
 355  182  185 1
 356  182  387 1
 357  183  184 1
 358  183  388 1
 359  183  389 1
 360  184  390 1
 361  184  391 1
 362  184  392 1
 363  185  393 1
 364  185  394 1
 365  185  395 1
 366  186  187 2
 367  186  189 1
 368  186  196 am
 369  188  189 1
 370  188  396 1
 371  189  190 1
 372  189  397 1
 373  190  191 1
 374  190  398 1
 375  190  399 1
 376  191  192 1
 377  191  193 1
 378  191  400 1
 379  192  401 1
 380  192  402 1
 381  192  403 1
 382  193  404 1
 383  193  405 1
 384  193  406 1
 385  194  195 2
 386  194  197 1
 387  194  204 am
 388  196  197 1
 389  196  407 1
 390  197  198 1
 391  197  408 1
 392  198  199 1
 393  198  409 1
 394  198  410 1
 395  199  200 1
 396  199  201 1
 397  199  411 1
 398  200  412 1
 399  200  413 1
 400  200  414 1
 401  201  415 1
 402  201  416 1
 403  201  417 1
 404  202  203 2
 405  202  205 1
 406  202  213 am
 407  204  205 1
 408  204  418 1
 409  205  206 1
 410  205  419 1
 411  206  207 1
 412  206  420 1
 413  206  421 1
 414  207  208 1
 415  207  422 1
 416  207  423 1
 417  208  209 2
 418  208  210 am
 419  210  424 1
 420  210  425 1
 421  211  212 2
 422  211  214 1
 423  211  223 1
 424  213  214 1
 425  213  426 1
 426  214  215 1
 427  214  427 1
 428  215  216 1
 429  215  428 1
 430  215  429 1
 431  216  217 ar
 432  216  222 ar
 433  217  218 ar
 434  217  430 1
 435  218  219 ar
 436  218  431 1
 437  219  220 1
 438  219  221 ar
 439  220  432 1
 440  221  222 ar
 441  221  433 1
 442  222  434 1
 443  223  435 1

#	End of record

