#	Name: ASD01910530
#	Creating user name:	WinNT
#	Creation time:	15. 06. 2019 19:56

#	Modifying user name:	WinNT
#	Modification time:	15. 06. 2019 19:56

#	Program:	/corina/corina34_cracker 3.40 0067  02.08.2006

@<TRIPOS>MOLECULE
ASD01910530
  44   47    0    0    0
SMALL
NO_CHARGES


@<TRIPOS>ATOM
   1 O1            -0.0749     2.9343     0.7995 O.3     
   2 C2            -0.1590     1.8806    -0.0303 C.2     
   3 N3             1.0839     1.5541    -0.3532 N.2     
   4 C4             1.8652     2.4281     0.2982 C.2     
   5 N5             1.0895     3.2268     0.9708 N.2     
   6 C6            -1.3879     1.2201    -0.4891 C.2     
   7 C7            -2.6657     1.5676    -0.1478 C.2     
   8 C8            -3.5274     0.6811    -0.8050 C.2     
   9 C9            -2.7674    -0.1774    -1.5241 C.2     
  10 N10           -1.4599     0.1452    -1.3434 N.pl3   
  11 C11            3.9260     2.2826     1.6733 C.3     
  12 C12            3.3709     2.4758     0.2586 C.3     
  13 C13            3.8249     3.8336    -0.2821 C.3     
  14 C14            5.3531     3.8711    -0.3536 C.3     
  15 C15            5.9307     3.6937     1.0541 C.3     
  16 N16            5.3839     2.4611     1.6377 N.am    
  17 C17            6.2042     1.5121     2.1307 C.2     
  18 C18            7.6639     1.6476     1.9776 C.2     
  19 O19            5.7400     0.5440     2.7018 O.2     
  20 C20           -5.0324     0.6826    -0.7259 C.3     
  21 C21            8.4260     2.0768     0.7948 C.2     
  22 N22            9.6743     2.0328     1.1557 N.2     
  23 O23            9.8080     1.6693     2.2984 O.3     
  24 C24            8.6480     1.4101     2.9060 C.2     
  25 C25            8.4567     0.9396     4.3248 C.3     
  26 H26           -2.9561     2.3756     0.5074 H       
  27 H27           -3.1384    -0.9819    -2.1418 H       
  28 H28           -0.7036    -0.3105    -1.7449 H       
  29 H29            3.4838     3.0200     2.3432 H       
  30 H30            3.6893     1.2783     2.0247 H       
  31 H31            3.7436     1.6829    -0.3898 H       
  32 H32            3.4109     3.9842    -1.2792 H       
  33 H33            3.4728     4.6244     0.3803 H       
  34 H34            5.7071     3.0650    -0.9963 H       
  35 H35            5.6749     4.8296    -0.7607 H       
  36 H36            7.0167     3.6204     0.9970 H       
  37 H37            5.6520     4.5462     1.6735 H       
  38 H38           -5.4369     1.3203    -1.5119 H       
  39 H39           -5.4040    -0.3339    -0.8555 H       
  40 H40           -5.3447     1.0624     0.2469 H       
  41 H41            8.0324     2.3666    -0.1683 H       
  42 H42            9.4287     0.8348     4.8070 H       
  43 H43            7.8567     1.6674     4.8712 H       
  44 H44            7.9465    -0.0236     4.3226 H       
@<TRIPOS>BOND
   1    1    2 1
   2    1    5 1
   3    2    3 2
   4    2    6 1
   5    3    4 1
   6    4    5 2
   7    4   12 1
   8    6    7 2
   9    6   10 1
  10    7    8 1
  11    7   26 1
  12    8    9 2
  13    8   20 1
  14    9   10 1
  15    9   27 1
  16   10   28 1
  17   11   12 1
  18   11   16 1
  19   11   29 1
  20   11   30 1
  21   12   13 1
  22   12   31 1
  23   13   14 1
  24   13   32 1
  25   13   33 1
  26   14   15 1
  27   14   34 1
  28   14   35 1
  29   15   16 1
  30   15   36 1
  31   15   37 1
  32   16   17 am
  33   17   18 1
  34   17   19 2
  35   18   21 1
  36   18   24 2
  37   20   38 1
  38   20   39 1
  39   20   40 1
  40   21   22 2
  41   21   41 1
  42   22   23 1
  43   23   24 1
  44   24   25 1
  45   25   42 1
  46   25   43 1
  47   25   44 1

#	End of record

