#	Name: ASD01814507
#	Creating user name:	WinNT
#	Creation time:	15. 06. 2019 19:32

#	Modifying user name:	WinNT
#	Modification time:	15. 06. 2019 19:32

#	Program:	/corina/corina34_cracker 3.40 0067  02.08.2006

@<TRIPOS>MOLECULE
ASD01814507
  50   55    0    0    0
SMALL
NO_CHARGES


@<TRIPOS>ATOM
   1 C1            -0.0167     1.3810     0.0096 C.2     
   2 C2             0.0021    -0.0041     0.0020 C.2     
   3 N3             1.1951     2.0645     0.0017 N.pl3   
   4 N4             2.3425     1.5023    -0.0126 N.2     
   5 C5             2.5064     0.2041    -0.0212 C.2     
   6 C6             1.3103    -0.6708    -0.0153 C.2     
   7 C7             1.1527     3.5289     0.0100 C.3     
   8 C8             1.1518     4.0234     1.4336 C.ar    
   9 C9             2.3491     4.2845     2.0741 C.ar    
  10 C10            2.3514     4.7374     3.3789 C.ar    
  11 C11            1.1500     4.9308     4.0473 C.ar    
  12 C12           -0.0506     4.6682     3.4013 C.ar    
  13 C13           -0.0466     4.2204     2.0947 C.ar    
  14 N14            1.1491     5.3899     5.3718 N.pl3   
  15 C15            3.6454    -0.7129    -0.0376 C.2     
  16 N16            3.1268    -1.9599    -0.0393 N.am    
  17 N17            1.7303    -1.9064    -0.0260 N.2     
  18 O18            4.8280    -0.4117    -0.0481 O.2     
  19 C19            3.8808    -3.1385    -0.0531 C.ar    
  20 C20            4.8463    -3.3586     0.9207 C.ar    
  21 C21            5.5885    -4.5233     0.9044 C.ar    
  22 C22            5.3715    -5.4695    -0.0803 C.ar    
  23 C23            4.4108    -5.2535    -1.0516 C.ar    
  24 C24            3.6614    -4.0939    -1.0378 C.ar    
  25 C25            2.6149    -3.8594    -2.0964 C.3     
  26 S26           -1.6405    -0.6241     0.0154 S.3     
  27 C27           -2.2971     1.0048     0.0308 C.2     
  28 C28           -1.3154     1.8978     0.0305 C.2     
  29 C29            0.0559     5.6193     6.1339 C.2     
  30 C30            0.4807     6.0521     7.3436 C.2     
  31 C31            1.8792     6.0889     7.3212 C.2     
  32 N32            2.2808     5.6866     6.1423 N.2     
  33 H33            2.0269     3.9206    -0.5101 H       
  34 H34            0.2477     3.8690    -0.4934 H       
  35 H35            3.2834     4.1339     1.5537 H       
  36 H36            3.2869     4.9405     3.8789 H       
  37 H37           -0.9867     4.8173     3.9188 H       
  38 H38           -0.9802     4.0160     1.5917 H       
  39 H39            5.0168    -2.6197     1.6897 H       
  40 H40            6.3394    -4.6951     1.6614 H       
  41 H41            5.9538    -6.3790    -0.0912 H       
  42 H42            4.2441    -5.9943    -1.8195 H       
  43 H43            1.6603    -4.2637    -1.7596 H       
  44 H44            2.5130    -2.7891    -2.2759 H       
  45 H45            2.9143    -4.3557    -3.0196 H       
  46 H46           -3.3499     1.2455     0.0425 H       
  47 H47           -1.5084     2.9604     0.0390 H       
  48 H48           -0.9718     5.4822     5.8313 H       
  49 H49           -0.1487     6.3216     8.1788 H       
  50 H50            2.5176     6.3926     8.1377 H       
@<TRIPOS>BOND
   1    1    2 2
   2    1    3 1
   3    1   28 1
   4    2   26 1
   5    2    6 1
   6    3    4 1
   7    3    7 1
   8    4    5 2
   9    5    6 1
  10    5   15 1
  11    6   17 2
  12    7    8 1
  13    7   33 1
  14    7   34 1
  15    8    9 ar
  16    8   13 ar
  17    9   10 ar
  18    9   35 1
  19   10   11 ar
  20   10   36 1
  21   11   12 ar
  22   11   14 1
  23   12   13 ar
  24   12   37 1
  25   13   38 1
  26   14   29 1
  27   14   32 1
  28   15   16 am
  29   15   18 2
  30   16   17 1
  31   16   19 1
  32   19   20 ar
  33   19   24 ar
  34   20   21 ar
  35   20   39 1
  36   21   22 ar
  37   21   40 1
  38   22   23 ar
  39   22   41 1
  40   23   24 ar
  41   23   42 1
  42   24   25 1
  43   25   43 1
  44   25   44 1
  45   25   45 1
  46   26   27 1
  47   27   28 2
  48   27   46 1
  49   28   47 1
  50   29   30 2
  51   29   48 1
  52   30   31 1
  53   30   49 1
  54   31   32 2
  55   31   50 1

#	End of record

