#	Name: ASD08178049
#	Creating user name:	WinNT
#	Creation time:	15. 06. 2019 21:18

#	Modifying user name:	WinNT
#	Modification time:	15. 06. 2019 21:18

#	Program:	/corina/corina34_cracker 3.40 0067  02.08.2006

@<TRIPOS>MOLECULE
ASD08178049
  38   39    0    0    0
SMALL
NO_CHARGES


@<TRIPOS>ATOM
   1 N1            -0.0155     1.2947     0.0092 N.2     
   2 C2             0.0021    -0.0041     0.0020 C.2     
   3 N3            -1.1168    -0.8300     0.0076 N.am    
   4 N4             1.0945     1.8960     0.0018 N.2     
   5 C5             2.1557     1.1534    -0.0123 C.2     
   6 S6             1.6320    -0.5310    -0.0164 S.3     
   7 C7             3.5816     1.6410    -0.0241 C.3     
   8 C8             4.0787     1.7984     1.4143 C.3     
   9 C9             5.5263     2.2934     1.4024 C.3     
  10 C10            6.0234     2.4507     2.8408 C.3     
  11 C11            7.4493     2.9383     2.8291 C.2     
  12 N12            7.8338     4.1751     2.8322 N.2     
  13 N13            9.0796     4.3793     2.8214 N.2     
  14 C14            9.8607     3.3416     2.8082 C.2     
  15 S15            8.8945     1.9270     2.8164 S.3     
  16 N16           11.2510     3.3736     2.7944 N.am    
  17 C17           11.8979     4.5560     2.7944 C.2     
  18 O18           11.2676     5.5921     2.8065 O.2     
  19 C19           -2.3521    -0.2911     0.0220 C.2     
  20 O20           -2.4879     0.9140     0.0301 O.2     
  21 C21           -3.5646    -1.1861     0.0280 C.3     
  22 C22           13.4044     4.5907     2.7793 C.3     
  23 F23           -3.5377    -2.0002     1.1654 F       
  24 F24           13.8403     5.9201     2.7823 F       
  25 F25           13.8973     3.9358     3.9131 F       
  26 F26           13.8742     3.9484     1.6287 F       
  27 F27           -4.7230    -0.4019     0.0431 F       
  28 F28           -3.5586    -1.9871    -1.1190 F       
  29 H29           -1.0082    -1.7939     0.0010 H       
  30 H30            4.2081     0.9191    -0.5480 H       
  31 H31            3.6324     2.6033    -0.5334 H       
  32 H32            3.4522     2.5202     1.9383 H       
  33 H33            4.0279     0.8360     1.9237 H       
  34 H34            6.1528     1.5715     0.8785 H       
  35 H35            5.5771     3.2557     0.8931 H       
  36 H36            5.3969     3.1726     3.3648 H       
  37 H37            5.9726     1.4884     3.3501 H       
  38 H38           11.7552     2.5450     2.7847 H       
@<TRIPOS>BOND
   1    1    2 2
   2    1    4 1
   3    2    3 1
   4    2    6 1
   5    3   19 am
   6    3   29 1
   7    4    5 2
   8    5    6 1
   9    5    7 1
  10    7    8 1
  11    7   30 1
  12    7   31 1
  13    8    9 1
  14    8   32 1
  15    8   33 1
  16    9   10 1
  17    9   34 1
  18    9   35 1
  19   10   11 1
  20   10   36 1
  21   10   37 1
  22   11   12 2
  23   11   15 1
  24   12   13 1
  25   13   14 2
  26   14   15 1
  27   14   16 1
  28   16   17 am
  29   16   38 1
  30   17   18 2
  31   17   22 1
  32   19   20 2
  33   19   21 1
  34   21   27 1
  35   21   28 1
  36   21   23 1
  37   22   24 1
  38   22   26 1
  39   22   25 1

#	End of record

