#	Name: ASD03570021
#	Creating user name:	WinNT
#	Creation time:	15. 06. 2019 20:43

#	Modifying user name:	WinNT
#	Modification time:	15. 06. 2019 20:43

#	Program:	/corina/corina34_cracker 3.40 0067  02.08.2006

@<TRIPOS>MOLECULE
ASD03570021
  38   40    0    0    0
SMALL
NO_CHARGES


@<TRIPOS>ATOM
   1 C1            -0.0169     1.3959     0.0097 C.ar    
   2 C2             0.0021    -0.0041     0.0020 C.ar    
   3 C3             1.2097    -0.6900    -0.0132 C.ar    
   4 C4             2.4044     0.0191    -0.0208 C.ar    
   5 C5             2.3767     1.4288    -0.0129 C.ar    
   6 C6             1.1470     2.1029     0.0024 C.ar    
   7 N7             3.7248    -0.3663    -0.0354 N.pl3   
   8 C8             4.5180     0.7657    -0.0369 C.2     
   9 C9             3.7213     1.8680    -0.0234 C.2     
  10 C10            4.1878     3.3010    -0.0209 C.3     
  11 C11            4.3317     3.7930    -1.4625 C.3     
  12 C12           -1.2743    -0.7587     0.0106 C.ar    
  13 C13           -2.4899    -0.0763     0.0263 C.ar    
  14 C14           -3.6749    -0.7826     0.0338 C.ar    
  15 C15           -3.6582    -2.1681     0.0257 C.ar    
  16 C16           -2.4523    -2.8506     0.0101 C.ar    
  17 C17           -1.2624    -2.1527    -0.0028 C.ar    
  18 F18           -4.8211    -2.8557     0.0336 F       
  19 C19            5.9863     0.7764    -0.0513 C.2     
  20 O20            6.5864     1.8338    -0.0509 O.2     
  21 O21            6.6690    -0.3865    -0.0650 O.3     
  22 C22            4.7981     5.2260    -1.4600 C.2     
  23 O23            4.9952     5.7954    -0.4127 O.2     
  24 O24            4.9946     5.8699    -2.6213 O.3     
  25 H25           -0.9617     1.9190     0.0170 H       
  26 H26            1.2199    -1.7699    -0.0187 H       
  27 H27            1.1230     3.1826     0.0081 H       
  28 H28            4.0463    -1.2815    -0.0431 H       
  29 H29            3.4589     3.9194     0.5030 H       
  30 H30            5.1514     3.3686     0.4840 H       
  31 H31            5.0605     3.1746    -1.9864 H       
  32 H32            3.3681     3.7254    -1.9674 H       
  33 H33           -2.5038     1.0036     0.0330 H       
  34 H34           -4.6170    -0.2548     0.0463 H       
  35 H35           -2.4441    -3.9306     0.0039 H       
  36 H36           -0.3231    -2.6854    -0.0153 H       
  37 H37            7.6342    -0.3288    -0.0742 H       
  38 H38            5.2940     6.7879    -2.5691 H       
@<TRIPOS>BOND
   1    1    2 ar
   2    1    6 ar
   3    1   25 1
   4    2    3 ar
   5    2   12 1
   6    3    4 ar
   7    3   26 1
   8    4    5 ar
   9    4    7 1
  10    5    6 ar
  11    5    9 1
  12    6   27 1
  13    7    8 1
  14    7   28 1
  15    8    9 2
  16    8   19 1
  17    9   10 1
  18   10   11 1
  19   10   29 1
  20   10   30 1
  21   11   22 1
  22   11   31 1
  23   11   32 1
  24   12   13 ar
  25   12   17 ar
  26   13   14 ar
  27   13   33 1
  28   14   15 ar
  29   14   34 1
  30   15   16 ar
  31   15   18 1
  32   16   17 ar
  33   16   35 1
  34   17   36 1
  35   19   20 2
  36   19   21 1
  37   21   37 1
  38   22   23 2
  39   22   24 1
  40   24   38 1

#	End of record

