#	Name: ASD01730035
#	Creating user name:	WinNT
#	Creation time:	15. 06. 2019 19:23

#	Modifying user name:	WinNT
#	Modification time:	15. 06. 2019 19:23

#	Program:	/corina/corina34_cracker 3.40 0067  02.08.2006

@<TRIPOS>MOLECULE
ASD01730035
  31   32    0    0    0
SMALL
NO_CHARGES


@<TRIPOS>ATOM
   1 C1             0.2568     1.9296    -0.9042 C.2     
   2 C2             0.6716     0.9159    -1.9393 C.3     
   3 N3             1.0744     2.2430     0.0700 N.2     
   4 N4            -0.9647     2.5234    -0.9847 N.pl3   
   5 C5            -1.3679     3.5088     0.0215 C.3     
   6 C6            -2.7745     4.0186    -0.2988 C.3     
   7 S7             4.7249     1.6453     1.2743 S.3     
   8 C8             3.5144     2.3640     0.1230 C.3     
   9 C9             2.2350     1.5782     0.2144 C.2     
  10 N10            2.1817     0.3080     0.4226 N.2     
  11 C11            3.2278    -0.5415     0.5908 C.ar    
  12 C12            4.4923    -0.0815     0.9926 C.ar    
  13 C13            3.0506    -1.9100     0.3620 C.ar    
  14 C14            4.1042    -2.7829     0.5358 C.ar    
  15 C15            5.3446    -2.3187     0.9368 C.ar    
  16 C16            5.5398    -0.9677     1.1644 C.ar    
  17 H17            0.4574    -0.0875    -1.5714 H       
  18 H18            0.1175     1.0907    -2.8615 H       
  19 H19            1.7399     1.0113    -2.1336 H       
  20 H20           -1.5686     2.2942    -1.7084 H       
  21 H21           -1.3659     3.0434     1.0072 H       
  22 H22           -0.6679     4.3443     0.0128 H       
  23 H23           -2.7766     4.4840    -1.2844 H       
  24 H24           -3.4745     3.1831    -0.2901 H       
  25 H25           -3.0745     4.7518     0.4499 H       
  26 H26            3.3255     3.4031     0.3929 H       
  27 H27            3.9024     2.3129    -0.8943 H       
  28 H28            2.0869    -2.2838     0.0491 H       
  29 H29            3.9597    -3.8383     0.3577 H       
  30 H30            6.1618    -3.0119     1.0721 H       
  31 H31            6.5086    -0.6061     1.4761 H       
@<TRIPOS>BOND
   1    1    2 1
   2    1    3 2
   3    1    4 1
   4    2   17 1
   5    2   18 1
   6    2   19 1
   7    3    9 1
   8    4    5 1
   9    4   20 1
  10    5    6 1
  11    5   21 1
  12    5   22 1
  13    6   23 1
  14    6   24 1
  15    6   25 1
  16    7    8 1
  17    7   12 1
  18    8    9 1
  19    8   26 1
  20    8   27 1
  21    9   10 2
  22   10   11 1
  23   11   12 ar
  24   11   13 ar
  25   12   16 ar
  26   13   14 ar
  27   13   28 1
  28   14   15 ar
  29   14   29 1
  30   15   16 ar
  31   15   30 1
  32   16   31 1

#	End of record

