#	Name: ASD01901511
#	Creating user name:	WinNT
#	Creation time:	15. 06. 2019 19:53

#	Modifying user name:	WinNT
#	Modification time:	15. 06. 2019 19:53

#	Program:	/corina/corina34_cracker 3.40 0067  02.08.2006

@<TRIPOS>MOLECULE
ASD01901511
  40   43    0    0    0
SMALL
NO_CHARGES


@<TRIPOS>ATOM
   1 Cl1            0.0064     0.0379    -0.5346 Cl      
   2 C2            -0.0213     1.7475    -0.2345 C.ar    
   3 C3            -1.2230     2.4243    -0.2068 C.ar    
   4 C4            -1.2451     3.7932     0.0340 C.ar    
   5 N5            -2.4626     4.4764     0.0622 N.am    
   6 C6            -3.5593     3.8784     0.5681 C.2     
   7 O7            -3.5095     2.7167     0.9217 O.2     
   8 C8            -4.8254     4.6370     0.6932 C.ar    
   9 C9            -5.9539     4.0149     1.2221 C.ar    
  10 C10           -7.1315     4.7378     1.3329 C.ar    
  11 C11           -7.1392     6.0578     0.9107 C.ar    
  12 C12           -5.9789     6.6126     0.3941 C.ar    
  13 N13           -4.8737     5.9057     0.3053 N.ar    
  14 C14           -0.0571     4.4831     0.2472 C.ar    
  15 C15            1.1462     3.8113     0.2204 C.ar    
  16 C16            1.1716     2.4377    -0.0155 C.ar    
  17 C17            2.4649     1.7119    -0.0391 C.2     
  18 N18            2.6320     0.4322    -0.2581 N.2     
  19 O19            3.8098     0.1472    -0.2117 O.3     
  20 C20            4.5362     1.2452     0.0489 C.2     
  21 N21            3.6874     2.2500     0.1554 N.2     
  22 C22            6.0066     1.3165     0.1846 C.ar    
  23 C23            6.6263     2.5353     0.4647 C.ar    
  24 C24            7.9989     2.5948     0.5906 C.ar    
  25 C25            8.7608     1.4499     0.4394 C.ar    
  26 C26            8.1527     0.2386     0.1617 C.ar    
  27 C27            6.7806     0.1642     0.0390 C.ar    
  28 H28           -2.1471     1.8904    -0.3724 H       
  29 H29           -2.5190     5.3814    -0.2824 H       
  30 H30           -5.9121     2.9839     1.5411 H       
  31 H31           -8.0229     4.2825     1.7387 H       
  32 H32           -8.0406     6.6482     0.9832 H       
  33 H33           -5.9815     7.6409     0.0639 H       
  34 H34           -0.0770     5.5467     0.4336 H       
  35 H35            2.0686     4.3483     0.3857 H       
  36 H36            6.0327     3.4298     0.5823 H       
  37 H37            8.4797     3.5373     0.8074 H       
  38 H38            9.8350     1.5021     0.5382 H       
  39 H39            8.7532    -0.6514     0.0444 H       
  40 H40            6.3067    -0.7827    -0.1734 H       
@<TRIPOS>BOND
   1    1    2 1
   2    2   16 ar
   3    2    3 ar
   4    3    4 ar
   5    3   28 1
   6    4    5 1
   7    4   14 ar
   8    5    6 am
   9    5   29 1
  10    6    7 2
  11    6    8 1
  12    8   13 ar
  13    8    9 ar
  14    9   10 ar
  15    9   30 1
  16   10   11 ar
  17   10   31 1
  18   11   12 ar
  19   11   32 1
  20   12   13 ar
  21   12   33 1
  22   14   15 ar
  23   14   34 1
  24   15   16 ar
  25   15   35 1
  26   16   17 1
  27   17   21 1
  28   17   18 2
  29   18   19 1
  30   19   20 1
  31   20   21 2
  32   20   22 1
  33   22   27 ar
  34   22   23 ar
  35   23   24 ar
  36   23   36 1
  37   24   25 ar
  38   24   37 1
  39   25   26 ar
  40   25   38 1
  41   26   27 ar
  42   26   39 1
  43   27   40 1

#	End of record

