#	Name: ASD00071111
#	Creating user name:	WinNT
#	Creation time:	15. 06. 2019 18:30

#	Modifying user name:	WinNT
#	Modification time:	15. 06. 2019 18:30

#	Program:	/corina/corina34_cracker 3.40 0067  02.08.2006

@<TRIPOS>MOLECULE
ASD00071111
  41   43    0    0    0
SMALL
NO_CHARGES


@<TRIPOS>ATOM
   1 N1             2.2065     0.6727    -1.5653 N.2     
   2 C2             2.2961    -0.1329    -0.5352 C.2     
   3 N3             1.1628    -0.6862     0.0139 N.pl3   
   4 C4            -0.0907     0.0817    -0.0324 C.3     
   5 C5            -0.1819     0.7430    -1.3866 C.ar    
   6 C6            -1.4062     1.0747    -1.9231 C.ar    
   7 C7            -1.4749     1.6913    -3.1605 C.ar    
   8 C8            -0.3158     1.9772    -3.8625 C.ar    
   9 C9             0.9164     1.6449    -3.3360 C.ar    
  10 C10            0.9923     1.0181    -2.0908 C.ar    
  11 N11            3.5262    -0.4260    -0.0024 N.pl3   
  12 C12            1.2035    -2.0139     0.6319 C.3     
  13 C13            0.7648    -3.0488    -0.3719 C.ar    
  14 C14            1.6805    -3.5795    -1.2674 C.ar    
  15 C15            1.2741    -4.5324    -2.1907 C.ar    
  16 C16           -0.0421    -4.9523    -2.2181 C.ar    
  17 C17           -0.9566    -4.4249    -1.3266 C.ar    
  18 C18           -0.5538    -3.4760    -0.3975 C.ar    
  19 O19           -1.4525    -2.9617     0.4827 O.3     
  20 C20           -2.7937    -3.4479     0.3990 C.3     
  21 O21            2.9749    -3.1665    -1.2413 O.3     
  22 C22            3.8633    -3.7559    -2.1929 C.3     
  23 Cl23          -0.4127     2.7561    -5.4110 Cl      
  24 H24           -0.9389    -0.5883     0.1084 H       
  25 H25           -0.0867     0.8414     0.7493 H       
  26 H26           -2.3123     0.8534    -1.3788 H       
  27 H27           -2.4359     1.9500    -3.5801 H       
  28 H28            1.8187     1.8684    -3.8858 H       
  29 H29            4.3321    -0.1082    -0.4390 H       
  30 H30            3.5900    -0.9509     0.8108 H       
  31 H31            2.2205    -2.2319     0.9577 H       
  32 H32            0.5341    -2.0350     1.4918 H       
  33 H33            1.9869    -4.9458    -2.8888 H       
  34 H34           -0.3565    -5.6937    -2.9376 H       
  35 H35           -1.9847    -4.7547    -1.3499 H       
  36 H36           -3.1970    -3.2329    -0.5906 H       
  37 H37           -2.8011    -4.5246     0.5683 H       
  38 H38           -3.4059    -2.9569     1.1554 H       
  39 H39            3.8968    -4.8345    -2.0391 H       
  40 H40            3.5083    -3.5435    -3.2013 H       
  41 H41            4.8622    -3.3393    -2.0640 H       
@<TRIPOS>BOND
   1    1    2 2
   2    1   10 1
   3    2    3 1
   4    2   11 1
   5    3    4 1
   6    3   12 1
   7    4    5 1
   8    4   24 1
   9    4   25 1
  10    5    6 ar
  11    5   10 ar
  12    6    7 ar
  13    6   26 1
  14    7    8 ar
  15    7   27 1
  16    8    9 ar
  17    8   23 1
  18    9   10 ar
  19    9   28 1
  20   11   29 1
  21   11   30 1
  22   12   13 1
  23   12   31 1
  24   12   32 1
  25   13   14 ar
  26   13   18 ar
  27   14   15 ar
  28   14   21 1
  29   15   16 ar
  30   15   33 1
  31   16   17 ar
  32   16   34 1
  33   17   18 ar
  34   17   35 1
  35   18   19 1
  36   19   20 1
  37   20   36 1
  38   20   37 1
  39   20   38 1
  40   21   22 1
  41   22   39 1
  42   22   40 1
  43   22   41 1

#	End of record

