#	Name: ASD04870003
#	Creating user name:	WinNT
#	Creation time:	15. 06. 2019 20:52

#	Modifying user name:	WinNT
#	Modification time:	15. 06. 2019 20:52

#	Program:	/corina/corina34_cracker 3.40 0067  02.08.2006

@<TRIPOS>MOLECULE
ASD04870003
  61   61    0    0    0
SMALL
NO_CHARGES


@<TRIPOS>ATOM
   1 C1            -0.3414     1.0375     0.0034 C.3     
   2 C2            -0.3204    -0.4923    -0.0051 C.3     
   3 C3             0.3959    -0.9855    -1.2639 C.3     
   4 C4             1.8312    -0.4557    -1.2746 C.3     
   5 C5             1.8102     1.0741    -1.2661 C.3     
   6 C6             1.0939     1.5673    -0.0073 C.3     
   7 O7             0.3708    -0.9657     1.1526 O.3     
   8 C8            -1.7557    -1.0222     0.0056 C.3     
   9 C9             3.2455     1.6039    -1.2768 C.3     
  10 O10            1.1191     1.5475    -2.4238 O.3     
  11 O11            2.5223    -0.9291    -0.1169 O.3     
  12 C12            2.5475    -0.9489    -2.5334 C.3     
  13 O13            0.4155    -2.4144    -1.2719 O.3     
  14 C14           -0.3441    -0.4787    -2.5035 C.3     
  15 O15            1.0743     2.9961     0.0007 O.3     
  16 O16           -1.0325     1.5109    -1.1543 O.3     
  17 C17           -1.0577     1.5307     1.2622 C.3     
  18 C18            1.8339     1.0605     1.2322 C.3     
  19 P19            0.2899    -2.4918     1.6592 P.3     
  20 O20            1.0796    -2.6365     3.0548 O.3     
  21 O21           -1.1893    -2.8897     1.8609 O.co2   
  22 O22            0.9336    -3.4194     0.6046 O.co2   
  23 C23            1.1028    -3.8469     3.8140 C.3     
  24 C24            1.9395    -3.6401     5.0781 C.3     
  25 O25            1.2907    -2.6625     5.9334 O.3     
  26 C26            1.6230    -1.3751     5.7487 C.2     
  27 O27            2.4293    -1.0751     4.9003 O.2     
  28 *28            0.9681    -0.2664     6.6292 Du      
  29 C29            2.0682    -4.9678     5.8274 C.3     
  30 O30            2.9586    -4.7989     6.9619 O.3     
  31 C31            3.1797    -5.8780     7.7290 C.2     
  32 O32            2.6469    -6.9289     7.4613 O.2     
  33 *33            4.1245    -5.7753     8.9661 Du      
  34 H34           -2.2829    -0.6611    -0.8775 H       
  35 H35           -1.7407    -2.1120    -0.0005 H       
  36 H36           -2.2660    -0.6708     0.9024 H       
  37 H37            3.7558     1.2526    -2.1736 H       
  38 H38            3.2306     2.6938    -1.2707 H       
  39 H39            3.7727     1.2428    -0.3937 H       
  40 H40            1.0670     2.5112    -2.4842 H       
  41 H41            3.4405    -0.6315    -0.0579 H       
  42 H42            2.0203    -0.5878    -3.4165 H       
  43 H43            3.5700    -0.5715    -2.5411 H       
  44 H44            2.5625    -2.0388    -2.5395 H       
  45 H45            0.8553    -2.7974    -2.0433 H       
  46 H46           -0.3591     0.6112    -2.4973 H       
  47 H47            0.1662    -0.8300    -3.4002 H       
  48 H48           -1.3666    -0.8562    -2.4958 H       
  49 H49            1.9522     3.4016    -0.0054 H       
  50 H50           -1.0846     2.4746    -1.2146 H       
  51 H51           -0.5305     1.1696     2.1453 H       
  52 H52           -1.0726     2.6206     1.2683 H       
  53 H53           -2.0802     1.1532     1.2699 H       
  54 H54            1.8486    -0.0294     1.2263 H       
  55 H55            2.8565     1.4377     1.2245 H       
  56 H56            1.3238     1.4120     2.1290 H       
  57 H57            0.0852    -4.1206     4.0926 H       
  58 H58            1.5420    -4.6439     3.2139 H       
  59 H59            2.9311    -3.2807     4.8027 H       
  60 H60            1.0861    -5.2826     6.1801 H       
  61 H61            2.4737    -5.7255     5.1570 H       
@<TRIPOS>BOND
   1    1    2 1
   2    1    6 1
   3    1   16 1
   4    1   17 1
   5    2    3 1
   6    2    7 1
   7    2    8 1
   8    3    4 1
   9    3   13 1
  10    3   14 1
  11    4    5 1
  12    4   11 1
  13    4   12 1
  14    5    6 1
  15    5    9 1
  16    5   10 1
  17    6   15 1
  18    6   18 1
  19    7   19 1
  20    8   34 1
  21    8   35 1
  22    8   36 1
  23    9   37 1
  24    9   38 1
  25    9   39 1
  26   10   40 1
  27   11   41 1
  28   12   42 1
  29   12   43 1
  30   12   44 1
  31   13   45 1
  32   14   46 1
  33   14   47 1
  34   14   48 1
  35   15   49 1
  36   16   50 1
  37   17   51 1
  38   17   52 1
  39   17   53 1
  40   18   54 1
  41   18   55 1
  42   18   56 1
  43   19   20 1
  44   19   21 ar
  45   19   22 ar
  46   20   23 1
  47   23   24 1
  48   23   57 1
  49   23   58 1
  50   24   25 1
  51   24   29 1
  52   24   59 1
  53   25   26 1
  54   26   27 2
  55   26   28 1
  56   29   30 1
  57   29   60 1
  58   29   61 1
  59   30   31 1
  60   31   33 1
  61   31   32 2

#	End of record

