#	Name: ASD00170077
#	Creating user name:	WinNT
#	Creation time:	15. 06. 2019 18:31

#	Modifying user name:	WinNT
#	Modification time:	15. 06. 2019 18:31

#	Program:	/corina/corina34_cracker 3.40 0067  02.08.2006

@<TRIPOS>MOLECULE
ASD00170077
  40   42    0    0    0
SMALL
NO_CHARGES


@<TRIPOS>ATOM
   1 C1             0.0502     1.2488    -0.0629 C.2     
   2 C2            -0.0708    -0.1042     0.0388 C.2     
   3 C3            -1.4565    -0.5305     0.1163 C.2     
   4 C4            -2.3417     0.5172     0.0706 C.2     
   5 S5            -1.5307     2.0092    -0.0578 S.3     
   6 N6            -3.7127     0.3797     0.1263 N.pl3   
   7 C7             1.3318     1.9737    -0.1576 C.ar    
   8 C8             1.0799    -1.0343     0.0670 C.ar    
   9 C9             1.5107     2.9586    -1.1323 C.ar    
  10 C10            2.7115     3.6321    -1.2149 C.ar    
  11 C11            3.7377     3.3342    -0.3357 C.ar    
  12 C12            3.5678     2.3596     0.6319 C.ar    
  13 C13            2.3702     1.6826     0.7306 C.ar    
  14 C14           -1.8659    -1.9290     0.2304 C.2     
  15 O15           -2.0942    -2.6581    -0.8816 O.3     
  16 O16           -2.0007    -2.4358     1.3284 O.2     
  17 C17           -2.4913    -4.0181    -0.6956 C.3     
  18 C18           -2.7028    -4.6788    -2.0593 C.3     
  19 C19            1.3640    -1.7624     1.2229 C.ar    
  20 C20            2.4383    -2.6279     1.2428 C.ar    
  21 C21            3.2334    -2.7742     0.1200 C.ar    
  22 C22            2.9570    -2.0551    -1.0292 C.ar    
  23 C23            1.8820    -1.1911    -1.0640 C.ar    
  24 H24           -4.1090    -0.5024     0.2029 H       
  25 H25           -4.2809     1.1650     0.0889 H       
  26 H26            0.7109     3.1916    -1.8195 H       
  27 H27            2.8512     4.3937    -1.9679 H       
  28 H28            4.6759     3.8645    -0.4053 H       
  29 H29            4.3733     2.1318     1.3143 H       
  30 H30            2.2389     0.9223     1.4863 H       
  31 H31           -1.7136    -4.5523    -0.1498 H       
  32 H32           -3.4213    -4.0507    -0.1280 H       
  33 H33           -3.0057    -5.7162    -1.9174 H       
  34 H34           -3.4805    -4.1446    -2.6051 H       
  35 H35           -1.7728    -4.6462    -2.6269 H       
  36 H36            0.7446    -1.6485     2.1002 H       
  37 H37            2.6593    -3.1920     2.1368 H       
  38 H38            4.0737    -3.4524     0.1409 H       
  39 H39            3.5814    -2.1738    -1.9024 H       
  40 H40            1.6672    -0.6303    -1.9617 H       
@<TRIPOS>BOND
   1    1    2 2
   2    1    7 1
   3    1    5 1
   4    2    3 1
   5    2    8 1
   6    3    4 2
   7    3   14 1
   8    4    5 1
   9    4    6 1
  10    6   24 1
  11    6   25 1
  12    7    9 ar
  13    7   13 ar
  14    8   19 ar
  15    8   23 ar
  16    9   10 ar
  17    9   26 1
  18   10   11 ar
  19   10   27 1
  20   11   12 ar
  21   11   28 1
  22   12   13 ar
  23   12   29 1
  24   13   30 1
  25   14   15 1
  26   14   16 2
  27   15   17 1
  28   17   18 1
  29   17   31 1
  30   17   32 1
  31   18   33 1
  32   18   34 1
  33   18   35 1
  34   19   20 ar
  35   19   36 1
  36   20   21 ar
  37   20   37 1
  38   21   22 ar
  39   21   38 1
  40   22   23 ar
  41   22   39 1
  42   23   40 1

#	End of record

