#	Name: ASD01148411
#	Creating user name:	WinNT
#	Creation time:	15. 06. 2019 19:02

#	Modifying user name:	WinNT
#	Modification time:	15. 06. 2019 19:02

#	Program:	/corina/corina34_cracker 3.40 0067  02.08.2006

@<TRIPOS>MOLECULE
ASD01148411
  58   61    0    0    0
SMALL
NO_CHARGES


@<TRIPOS>ATOM
   1 C1            -0.0165     1.5748    -0.1084 C.ar    
   2 C2             0.0152     0.1913    -0.1462 C.ar    
   3 C3            -1.1681    -0.5273    -0.1479 C.ar    
   4 C4            -2.3806     0.1377    -0.1119 C.ar    
   5 C5            -2.4110     1.5192    -0.0746 C.ar    
   6 C6            -1.2301     2.2375    -0.0666 C.ar    
   7 C7            -3.7326     2.2424    -0.0363 C.3     
   8 O8            -4.7269     1.4642     0.6602 O.3     
   9 C9            -3.6458     3.5081     0.8496 C.3     
  10 C10           -4.1256     3.0013     2.1964 C.2     
  11 N11           -4.7106     1.8648     2.0160 N.2     
  12 C12           -3.9533     3.6894     3.4909 C.ar    
  13 C13           -4.4463     3.1083     4.6622 C.ar    
  14 C14           -3.2922     4.9190     3.5457 C.ar    
  15 C15           -3.1314     5.5608     4.7529 C.ar    
  16 C16           -3.6294     4.9825     5.9233 C.ar    
  17 C17           -4.2856     3.7498     5.8691 C.ar    
  18 C18           -3.4569     5.6711     7.2186 C.2     
  19 O19           -4.4285     6.0775     7.8248 O.2     
  20 N20           -2.2218     5.8487     7.7281 N.am    
  21 C21           -4.8231     3.1263     7.1314 C.3     
  22 C22           -4.2027     2.5933    -1.4493 C.3     
  23 F23           -4.3380     1.4208    -2.2004 F       
  24 F24           -5.4371     3.2483    -1.3809 F       
  25 F25           -3.2631     3.4317    -2.0588 F       
  26 Cl26          -1.1303    -2.2622    -0.1959 Cl      
  27 Cl27           1.5375    -0.6418    -0.1921 Cl      
  28 Cl28           1.4663     2.4775    -0.1063 Cl      
  29 C29           -2.0386     6.6454     8.9439 C.3     
  30 C30           -2.1337     5.7486    10.1512 C.ar    
  31 N31           -3.3161     5.4670    10.6623 N.ar    
  32 C32           -1.1554     5.2934     7.1193 C.2     
  33 C33           -3.4476     4.6871    11.7177 C.ar    
  34 C34           -2.3394     4.1337    12.3301 C.ar    
  35 C35           -1.0789     4.4073    11.8209 C.ar    
  36 C36           -0.9808     5.2263    10.7067 C.ar    
  37 O37           -1.2957     4.7046     6.0661 O.2     
  38 O38            0.0652     5.3912     7.6782 O.3     
  39 C39            1.1677     4.7692     6.9669 C.3     
  40 H40           -3.3039    -0.4227    -0.1132 H       
  41 H41           -1.2550     3.3168    -0.0370 H       
  42 H42           -2.6180     3.8653     0.9145 H       
  43 H43           -4.3053     4.2900     0.4731 H       
  44 H44           -4.9537     2.1558     4.6204 H       
  45 H45           -2.9070     5.3658     2.6411 H       
  46 H46           -2.6201     6.5111     4.7954 H       
  47 H47           -5.8147     3.5273     7.3410 H       
  48 H48           -4.8877     2.0457     7.0038 H       
  49 H49           -4.1556     3.3548     7.9623 H       
  50 H50           -1.0586     7.1221     8.9216 H       
  51 H51           -2.8135     7.4101     8.9973 H       
  52 H52           -4.4328     4.4790    12.1081 H       
  53 H53           -2.4535     3.4965    13.1945 H       
  54 H54           -0.1948     3.9889    12.2791 H       
  55 H55           -0.0152     5.4602    10.2833 H       
  56 H56            1.2615     5.2182     5.9781 H       
  57 H57            2.0918     4.9217     7.5244 H       
  58 H58            0.9773     3.7009     6.8643 H       
@<TRIPOS>BOND
   1    1    2 ar
   2    1   28 1
   3    1    6 ar
   4    2    3 ar
   5    2   27 1
   6    3    4 ar
   7    3   26 1
   8    4    5 ar
   9    4   40 1
  10    5    6 ar
  11    5    7 1
  12    6   41 1
  13    7    8 1
  14    7    9 1
  15    7   22 1
  16    8   11 1
  17    9   10 1
  18    9   42 1
  19    9   43 1
  20   10   11 2
  21   10   12 1
  22   12   13 ar
  23   12   14 ar
  24   13   17 ar
  25   13   44 1
  26   14   15 ar
  27   14   45 1
  28   15   16 ar
  29   15   46 1
  30   16   17 ar
  31   16   18 1
  32   17   21 1
  33   18   19 2
  34   18   20 am
  35   20   29 1
  36   20   32 am
  37   21   47 1
  38   21   48 1
  39   21   49 1
  40   22   23 1
  41   22   24 1
  42   22   25 1
  43   29   30 1
  44   29   50 1
  45   29   51 1
  46   30   31 ar
  47   30   36 ar
  48   31   33 ar
  49   32   37 2
  50   32   38 1
  51   33   34 ar
  52   33   52 1
  53   34   35 ar
  54   34   53 1
  55   35   36 ar
  56   35   54 1
  57   36   55 1
  58   38   39 1
  59   39   56 1
  60   39   57 1
  61   39   58 1

#	End of record

