#	Name: ASD01912329
#	Creating user name:	WinNT
#	Creation time:	15. 06. 2019 19:59

#	Modifying user name:	WinNT
#	Modification time:	15. 06. 2019 19:59

#	Program:	/corina/corina34_cracker 3.40 0067  02.08.2006

@<TRIPOS>MOLECULE
ASD01912329
  47   49    0    0    0
SMALL
NO_CHARGES


@<TRIPOS>ATOM
   1 C1            -0.0662     1.5118    -0.7016 C.ar    
   2 C2            -0.0457     0.1185    -0.8142 C.ar    
   3 C3             1.1707    -0.5267    -0.9400 C.ar    
   4 C4             2.3298     0.2381    -0.9497 C.ar    
   5 C5             2.2380     1.6131    -0.8342 C.ar    
   6 N6             1.0680     2.2061    -0.7153 N.ar    
   7 C7             3.4947     2.4449    -0.8445 C.3     
   8 C8            -1.3176     2.1966    -0.5765 C.1     
   9 C9            -2.3435     2.7581    -0.4740 C.1     
  10 C10           -3.5949     3.4429    -0.3489 C.2     
  11 N11           -3.6046     7.1911     1.0674 N.am    
  12 C12           -4.8526     6.4193     1.1267 C.3     
  13 C13           -4.9316     5.5128    -0.1083 C.3     
  14 C14           -3.6199     4.7707    -0.2413 C.2     
  15 C15           -2.3372     5.5729    -0.2497 C.3     
  16 C16           -2.3232     6.4780     0.9887 C.3     
  17 O17           -0.8331    10.8174     0.7878 O.3     
  18 C18           -2.0706    10.4412     0.4510 C.2     
  19 C19           -2.3770     9.3036     1.1387 C.2     
  20 C20           -1.1900     9.0008     1.9516 C.2     
  21 C21           -0.3003     9.9677     1.6797 C.2     
  22 C22           -3.6352     8.5385     1.0796 C.2     
  23 O23           -4.7011     9.1229     1.0419 O.2     
  24 C24            1.0776    10.0810     2.2793 C.3     
  25 C25           -2.9741    11.1531    -0.5226 C.3     
  26 H26           -0.9666    -0.4457    -0.8026 H       
  27 H27            1.2184    -1.6020    -1.0285 H       
  28 H28            3.2949    -0.2370    -1.0462 H       
  29 H29            3.7352     2.7272    -1.8695 H       
  30 H30            3.3406     3.3434    -0.2469 H       
  31 H31            4.3171     1.8659    -0.4246 H       
  32 H32           -4.5185     2.8832    -0.3418 H       
  33 H33           -4.8621     5.8086     2.0295 H       
  34 H34           -5.7035     7.1005     1.1349 H       
  35 H35           -5.7465     4.7989     0.0120 H       
  36 H36           -5.1022     6.1188    -0.9980 H       
  37 H37           -1.4819     4.8978    -0.2205 H       
  38 H38           -2.2924     6.1839    -1.1513 H       
  39 H39           -1.5089     7.1978     0.9061 H       
  40 H40           -2.1875     5.8706     1.8836 H       
  41 H41           -1.0606     8.1699     2.6293 H       
  42 H42            1.5776    10.9621     1.8770 H       
  43 H43            0.9962    10.1723     3.3624 H       
  44 H44            1.6557     9.1906     2.0322 H       
  45 H45           -2.4630    12.0313    -0.9172 H       
  46 H46           -3.2265    10.4806    -1.3425 H       
  47 H47           -3.8863    11.4624    -0.0124 H       
@<TRIPOS>BOND
   1    1    2 ar
   2    1    6 ar
   3    1    8 1
   4    2    3 ar
   5    2   26 1
   6    3    4 ar
   7    3   27 1
   8    4    5 ar
   9    4   28 1
  10    5    6 ar
  11    5    7 1
  12    7   29 1
  13    7   30 1
  14    7   31 1
  15    8    9 3
  16    9   10 1
  17   10   14 2
  18   10   32 1
  19   11   12 1
  20   11   16 1
  21   11   22 am
  22   12   13 1
  23   12   33 1
  24   12   34 1
  25   13   14 1
  26   13   35 1
  27   13   36 1
  28   14   15 1
  29   15   16 1
  30   15   37 1
  31   15   38 1
  32   16   39 1
  33   16   40 1
  34   17   18 1
  35   17   21 1
  36   18   19 2
  37   18   25 1
  38   19   20 1
  39   19   22 1
  40   20   21 2
  41   20   41 1
  42   21   24 1
  43   22   23 2
  44   24   42 1
  45   24   43 1
  46   24   44 1
  47   25   45 1
  48   25   46 1
  49   25   47 1

#	End of record

