#	Name: ASD04910257
#	Creating user name:	WinNT
#	Creation time:	15. 06. 2019 20:55

#	Modifying user name:	WinNT
#	Modification time:	15. 06. 2019 20:55

#	Program:	/corina/corina34_cracker 3.40 0067  02.08.2006

@<TRIPOS>MOLECULE
ASD04910257
  54   56    0    0    0
SMALL
NO_CHARGES


@<TRIPOS>ATOM
   1 C1             3.1539    -2.9353     3.8986 C.2     
   2 C2             2.4105    -3.3376     2.6902 C.ar    
   3 C3             2.8105    -2.8728     1.4340 C.ar    
   4 C4             2.1136    -3.2508     0.3084 C.ar    
   5 C5             1.0136    -4.0935     0.4198 C.ar    
   6 C6             0.6122    -4.5576     1.6671 C.ar    
   7 C7             1.3072    -4.1895     2.7972 C.ar    
   8 O8             4.1155    -2.1989     3.8032 O.2     
   9 O9             2.7633    -3.3800     5.1091 O.3     
  10 O10            0.3295    -4.4636    -0.6922 O.3     
  11 C11           -0.8608    -5.2297    -0.4965 C.3     
  12 C12           -1.7633    -5.0924    -1.7244 C.3     
  13 C13           -2.2640    -3.6505    -1.8306 C.3     
  14 C14           -1.0801    -2.7175    -2.0931 C.3     
  15 C15           -0.4986    -6.6791    -0.2989 C.ar    
  16 C16           -1.2387    -7.4635     0.5666 C.ar    
  17 C17           -0.9090    -8.7923     0.7497 C.ar    
  18 C18            0.1661    -9.3402     0.0635 C.ar    
  19 C19            0.9070    -8.5504    -0.8051 C.ar    
  20 C20            0.5696    -7.2235    -0.9878 C.ar    
  21 C21           -0.1279   -11.5754     1.0604 C.2     
  22 N22            0.4737   -12.7296     0.9634 N.2     
  23 C23            1.4951   -12.6271     0.1001 C.2     
  24 C24            1.5324   -11.3618    -0.3589 C.2     
  25 N25            0.5035   -10.6888     0.2477 N.pl3   
  26 C26            2.4383   -13.7363    -0.2886 C.3     
  27 F27            2.0199   -14.9330     0.3031 F       
  28 F28            2.4408   -13.8801    -1.6802 F       
  29 F29            3.7297   -13.4256     0.1505 F       
  30 C30           -3.2644    -3.5417    -2.9831 C.3     
  31 C31            3.5418    -2.9435     6.2544 C.3     
  32 H32            3.6648    -2.2179     1.3466 H       
  33 H33            2.4218    -2.8919    -0.6625 H       
  34 H34           -0.2432    -5.2118     1.7494 H       
  35 H35            0.9978    -4.5547     3.7653 H       
  36 H36           -1.3879    -4.8635     0.3845 H       
  37 H37           -1.1983    -5.3478    -2.6209 H       
  38 H38           -2.6144    -5.7663    -1.6270 H       
  39 H39           -2.7514    -3.3656    -0.8982 H       
  40 H40           -1.4496    -1.7219    -2.3384 H       
  41 H41           -0.4553    -2.6638    -1.2016 H       
  42 H42           -0.4920    -3.1023    -2.9263 H       
  43 H43           -2.0750    -7.0366     1.1001 H       
  44 H44           -1.4870    -9.4042     1.4263 H       
  45 H45            1.7442    -8.9739    -1.3399 H       
  46 H46            1.1433    -6.6095    -1.6662 H       
  47 H47           -0.9868   -11.3622     1.6795 H       
  48 H48            2.2375   -10.9551    -1.0687 H       
  49 H49           -4.1078    -4.2063    -2.7961 H       
  50 H50           -3.6211    -2.5145    -3.0588 H       
  51 H51           -2.7770    -3.8266    -3.9155 H       
  52 H52            4.5739    -3.2748     6.1397 H       
  53 H53            3.5144    -1.8558     6.3191 H       
  54 H54            3.1215    -3.3723     7.1642 H       
@<TRIPOS>BOND
   1    1    2 1
   2    1    8 2
   3    1    9 1
   4    2    3 ar
   5    2    7 ar
   6    3    4 ar
   7    3   32 1
   8    4    5 ar
   9    4   33 1
  10    5    6 ar
  11    5   10 1
  12    6    7 ar
  13    6   34 1
  14    7   35 1
  15    9   31 1
  16   10   11 1
  17   11   12 1
  18   11   15 1
  19   11   36 1
  20   12   13 1
  21   12   37 1
  22   12   38 1
  23   13   14 1
  24   13   30 1
  25   13   39 1
  26   14   40 1
  27   14   41 1
  28   14   42 1
  29   15   16 ar
  30   15   20 ar
  31   16   17 ar
  32   16   43 1
  33   17   18 ar
  34   17   44 1
  35   18   19 ar
  36   18   25 1
  37   19   20 ar
  38   19   45 1
  39   20   46 1
  40   21   22 2
  41   21   25 1
  42   21   47 1
  43   22   23 1
  44   23   24 2
  45   23   26 1
  46   24   25 1
  47   24   48 1
  48   26   27 1
  49   26   28 1
  50   26   29 1
  51   30   49 1
  52   30   50 1
  53   30   51 1
  54   31   52 1
  55   31   53 1
  56   31   54 1

#	End of record

