#	Name: ASD02500110
#	Creating user name:	WinNT
#	Creation time:	15. 06. 2019 20:22

#	Modifying user name:	WinNT
#	Modification time:	15. 06. 2019 20:22

#	Program:	/corina/corina34_cracker 3.40 0067  02.08.2006

@<TRIPOS>MOLECULE
ASD02500110
  68   72    0    0    0
SMALL
NO_CHARGES


@<TRIPOS>ATOM
   1 N1            -3.5718     5.9251    -1.4655 N.ar    
   2 C2            -4.3766     6.5901    -2.2581 C.ar    
   3 C3            -5.7548     6.6107    -2.0541 C.ar    
   4 C4            -6.2989     5.9253    -1.0056 C.ar    
   5 C5            -5.4316     5.2119    -0.1566 C.ar    
   6 C6            -5.9177     4.4847     0.9414 C.ar    
   7 C7            -5.0462     3.8078     1.7393 C.ar    
   8 C8            -3.6774     3.8276     1.4809 C.ar    
   9 C9            -3.1719     4.5223     0.4253 C.ar    
  10 C10           -4.0396     5.2336    -0.4214 C.ar    
  11 S11           -1.4362     4.5309     0.1218 S.o2    
  12 O12           -1.0620     5.8934    -0.0289 O.2     
  13 O13           -0.8554     3.6679     1.0899 O.2     
  14 N14           -1.1925     3.8133    -1.3506 N.am    
  15 C15           -1.4580     2.4585    -1.5162 C.ar    
  16 C16           -0.6805     1.6995    -2.3869 C.ar    
  17 C17           -0.9407     0.3587    -2.5529 C.ar    
  18 C18           -1.9872    -0.2415    -1.8463 C.ar    
  19 C19           -2.7660     0.5232    -0.9730 C.ar    
  20 C20           -2.4970     1.8627    -0.8070 C.ar    
  21 C21            0.4471     2.3474    -3.1485 C.3     
  22 C22           -2.2693    -1.6787    -2.0224 C.2     
  23 O23           -2.2144    -2.1779    -3.1298 O.2     
  24 N24           -2.5878    -2.4386    -0.9558 N.am    
  25 C25           -2.7467    -3.8248    -1.1335 C.3     
  26 C26           -4.1676    -4.2682    -0.7015 C.3     
  27 N27           -4.2472    -4.2137     0.7439 N.3     
  28 C28           -4.7894    -2.9558     1.2981 C.3     
  29 C29           -4.2432    -1.7016     0.6177 C.3     
  30 C30           -2.7518    -1.7870     0.3597 C.3     
  31 C31           -4.9348    -5.3225     1.2505 C.ar    
  32 C32           -4.2762    -6.2394     2.0677 C.ar    
  33 C33           -4.9616    -7.3342     2.5665 C.ar    
  34 C34           -6.2965    -7.5165     2.2533 C.ar    
  35 C35           -6.9503    -6.6079     1.4425 C.ar    
  36 C36           -6.2747    -5.5087     0.9454 C.ar    
  37 O37           -2.9634    -6.0594     2.3742 O.3     
  38 C38           -2.3537    -7.0392     3.2170 C.3     
  39 H39           -3.9604     7.1367    -3.0914 H       
  40 H40           -6.3921     7.1685    -2.7242 H       
  41 H41           -7.3649     5.9307    -0.8323 H       
  42 H42           -6.9767     4.4624     1.1522 H       
  43 H43           -5.4211     3.2486     2.5838 H       
  44 H44           -3.0065     3.2833     2.1290 H       
  45 H45           -0.8644     4.3381    -2.0975 H       
  46 H46           -0.3375    -0.2294    -3.2286 H       
  47 H47           -3.5751     0.0624    -0.4258 H       
  48 H48           -3.0953     2.4530    -0.1288 H       
  49 H49            1.3646     2.2834    -2.5635 H       
  50 H50            0.5858     1.8331    -4.0994 H       
  51 H51            0.2063     3.3943    -3.3333 H       
  52 H52           -2.5966    -4.0723    -2.1844 H       
  53 H53           -2.0067    -4.3519    -0.5312 H       
  54 H54           -4.9084    -3.5961    -1.1346 H       
  55 H55           -4.3518    -5.2878    -1.0402 H       
  56 H56           -5.8740    -2.9664     1.1907 H       
  57 H57           -4.5475    -2.9098     2.3600 H       
  58 H58           -4.7595    -1.5622    -0.3320 H       
  59 H59           -4.4417    -0.8398     1.2549 H       
  60 H60           -2.2721    -2.3856     1.1341 H       
  61 H61           -2.3168    -0.7878     0.3371 H       
  62 H62           -4.4536    -8.0463     3.2000 H       
  63 H63           -6.8293    -8.3713     2.6430 H       
  64 H64           -7.9924    -6.7547     1.2000 H       
  65 H65           -6.7892    -4.7978     0.3157 H       
  66 H66           -2.4114    -8.0168     2.7383 H       
  67 H67           -1.3088    -6.7767     3.3824 H       
  68 H68           -2.8759    -7.0715     4.1732 H       
@<TRIPOS>BOND
   1    1    2 ar
   2    1   10 ar
   3    2    3 ar
   4    2   39 1
   5    3    4 ar
   6    3   40 1
   7    4    5 ar
   8    4   41 1
   9    5    6 ar
  10    5   10 ar
  11    6    7 ar
  12    6   42 1
  13    7    8 ar
  14    7   43 1
  15    8    9 ar
  16    8   44 1
  17    9   10 ar
  18    9   11 1
  19   11   12 2
  20   11   13 2
  21   11   14 am
  22   14   15 1
  23   14   45 1
  24   15   16 ar
  25   15   20 ar
  26   16   17 ar
  27   16   21 1
  28   17   18 ar
  29   17   46 1
  30   18   19 ar
  31   18   22 1
  32   19   20 ar
  33   19   47 1
  34   20   48 1
  35   21   49 1
  36   21   50 1
  37   21   51 1
  38   22   23 2
  39   22   24 am
  40   24   25 1
  41   24   30 1
  42   25   26 1
  43   25   52 1
  44   25   53 1
  45   26   27 1
  46   26   54 1
  47   26   55 1
  48   27   28 1
  49   27   31 1
  50   28   29 1
  51   28   56 1
  52   28   57 1
  53   29   30 1
  54   29   58 1
  55   29   59 1
  56   30   60 1
  57   30   61 1
  58   31   32 ar
  59   31   36 ar
  60   32   33 ar
  61   32   37 1
  62   33   34 ar
  63   33   62 1
  64   34   35 ar
  65   34   63 1
  66   35   36 ar
  67   35   64 1
  68   36   65 1
  69   37   38 1
  70   38   66 1
  71   38   67 1
  72   38   68 1

#	End of record

