#	Name: ASD01208724
#	Creating user name:	WinNT
#	Creation time:	15. 06. 2019 19:10

#	Modifying user name:	WinNT
#	Modification time:	15. 06. 2019 19:10

#	Program:	/corina/corina34_cracker 3.40 0067  02.08.2006

@<TRIPOS>MOLECULE
ASD01208724
  55   58    0    0    0
SMALL
NO_CHARGES


@<TRIPOS>ATOM
   1 C1            -0.0121     0.4749    -1.1923 C.2     
   2 C2             0.0197    -0.8483    -0.5468 C.ar    
   3 C3             1.2487    -1.4546    -0.2425 C.ar    
   4 C4             1.2693    -2.6986     0.3643 C.ar    
   5 C5             0.0788    -3.3420     0.6697 C.ar    
   6 C6            -1.1401    -2.7422     0.3686 C.ar    
   7 C7            -1.1740    -1.5034    -0.2293 C.ar    
   8 O8             1.0278     1.0447    -1.4629 O.2     
   9 N9            -1.1935     1.0520    -1.4883 N.am    
  10 O10            2.4116    -0.8241    -0.5423 O.3     
  11 C11            3.5755    -1.4657    -0.2622 C.ar    
  12 C12            4.0245    -2.4818    -1.0962 C.ar    
  13 C13            5.2049    -3.1352    -0.8154 C.ar    
  14 C14            5.9501    -2.7744     0.3090 C.ar    
  15 C15            5.4957    -1.7522     1.1446 C.ar    
  16 C16            4.3167    -1.1003     0.8544 C.ar    
  17 O17            8.0319    -3.2295     1.6593 O.3     
  18 C18            7.2160    -3.4728     0.6140 C.2     
  19 N19            7.7557    -4.4462    -0.0822 N.2     
  20 N20            8.8546    -4.8105     0.4792 N.2     
  21 C21            9.0584    -4.0905     1.5466 C.2     
  22 C22           10.2326    -4.2027     2.4846 C.3     
  23 O23            0.1031    -4.5618     1.2641 O.3     
  24 C24           -0.9499    -6.1339     2.7675 C.3     
  25 C25           -1.1557    -5.1295     1.6319 C.3     
  26 C26           -1.7655    -5.8434     0.4238 C.3     
  27 O27           -0.1637    -7.2305     2.2969 O.3     
  28 C28            0.0884    -8.2313     3.2853 C.3     
  29 S29           -2.6806     3.1838    -2.5461 S.3     
  30 C30           -1.2236     2.3010    -2.0977 C.2     
  31 N31           -0.1827     3.0032    -2.4263 N.2     
  32 C32           -0.4047     4.1720    -2.9983 C.2     
  33 C33           -1.6873     4.4977    -3.1732 C.2     
  34 F34           -2.1452     5.6381    -3.7343 F       
  35 H35            2.2127    -3.1687     0.5998 H       
  36 H36           -2.0630    -3.2489     0.6092 H       
  37 H37           -2.1222    -1.0393    -0.4572 H       
  38 H38           -2.0228     0.5958    -1.2762 H       
  39 H39            3.4476    -2.7604    -1.9657 H       
  40 H40            5.5530    -3.9256    -1.4639 H       
  41 H41            6.0693    -1.4704     2.0152 H       
  42 H42            3.9666    -0.3068     1.4980 H       
  43 H43           10.0002    -4.9179     3.2737 H       
  44 H44           11.1080    -4.5434     1.9317 H       
  45 H45           10.4388    -3.2280     2.9268 H       
  46 H46           -0.4347    -5.6462     3.5950 H       
  47 H47           -1.9182    -6.5008     3.1080 H       
  48 H48           -1.8279    -4.3383     1.9639 H       
  49 H49           -2.7257    -6.2764     0.7043 H       
  50 H50           -1.9121    -5.1278    -0.3852 H       
  51 H51           -1.0933    -6.6345     0.0918 H       
  52 H52           -0.8584    -8.6417     3.6365 H       
  53 H53            0.6907    -9.0286     2.8497 H       
  54 H54            0.6251    -7.7871     4.1236 H       
  55 H55            0.4002     4.8234    -3.3052 H       
@<TRIPOS>BOND
   1    1    2 1
   2    1    8 2
   3    1    9 am
   4    2    3 ar
   5    2    7 ar
   6    3    4 ar
   7    3   10 1
   8    4    5 ar
   9    4   35 1
  10    5    6 ar
  11    5   23 1
  12    6    7 ar
  13    6   36 1
  14    7   37 1
  15    9   30 1
  16    9   38 1
  17   10   11 1
  18   11   12 ar
  19   11   16 ar
  20   12   13 ar
  21   12   39 1
  22   13   14 ar
  23   13   40 1
  24   14   15 ar
  25   14   18 1
  26   15   16 ar
  27   15   41 1
  28   16   42 1
  29   17   18 1
  30   17   21 1
  31   18   19 2
  32   19   20 1
  33   20   21 2
  34   21   22 1
  35   22   43 1
  36   22   44 1
  37   22   45 1
  38   23   25 1
  39   24   25 1
  40   24   27 1
  41   24   46 1
  42   24   47 1
  43   25   26 1
  44   25   48 1
  45   26   49 1
  46   26   50 1
  47   26   51 1
  48   27   28 1
  49   28   52 1
  50   28   53 1
  51   28   54 1
  52   29   30 1
  53   29   33 1
  54   30   31 2
  55   31   32 1
  56   32   33 2
  57   32   55 1
  58   33   34 1

#	End of record

