#	Name: ASD03240598
#	Creating user name:	WinNT
#	Creation time:	15. 06. 2019 20:35

#	Modifying user name:	WinNT
#	Modification time:	15. 06. 2019 20:35

#	Program:	/corina/corina34_cracker 3.40 0067  02.08.2006

@<TRIPOS>MOLECULE
ASD03240598
  69   76    0    0    0
SMALL
NO_CHARGES


@<TRIPOS>ATOM
   1 C1            -0.4791     2.1546     0.4389 C.ar    
   2 C2            -0.5087     0.8042     0.7201 C.ar    
   3 N3             0.6012     0.1396     0.9802 N.ar    
   4 C4             1.7878     0.7318     0.9845 C.ar    
   5 C5             1.8935     2.0907     0.6948 C.ar    
   6 C6             0.7413     2.8172     0.4236 C.ar    
   7 N7             2.9178    -0.0170     1.3018 N.pl3   
   8 C8             3.6752     0.2842     2.4305 C.ar    
   9 C9             4.3169     1.5219     2.5467 C.ar    
  10 C10            4.2208     2.5148     1.4543 C.2     
  11 N11            3.1377     2.7359     0.6540 N.pl3   
  12 C12            3.7947    -0.6481     3.4524 C.ar    
  13 C13            4.5347    -0.3477     4.5801 C.ar    
  14 C14            5.1602     0.8812     4.7015 C.ar    
  15 C15            5.0559     1.8169     3.6921 C.ar    
  16 N16            5.1888     3.3358     1.0993 N.2     
  17 C17            4.7818     4.1000     0.0742 C.2     
  18 C18            3.4812     3.7388    -0.2311 C.2     
  19 C19            2.6306     4.3111    -1.2922 C.ar    
  20 C20            2.5682     5.6953    -1.4716 C.ar    
  21 C21            1.8882     3.4711    -2.1261 C.ar    
  22 C22            1.0956     4.0131    -3.1162 C.ar    
  23 C23            1.0346     5.3853    -3.2847 C.ar    
  24 C24            1.7713     6.2231    -2.4659 C.ar    
  25 C25            5.5814     5.1433    -0.6085 C.ar    
  26 C26            0.1666     5.9697    -4.3691 C.3     
  27 N27           -0.8781     5.0431    -4.8250 N.3     
  28 C28           -0.3578     7.3787    -4.0460 C.3     
  29 C29           -0.0966     7.7287    -5.5205 C.3     
  30 C30            0.9635     6.6123    -5.5167 C.3     
  31 C31            6.4838     5.9199     0.1188 C.ar    
  32 C32            7.2270     6.8898    -0.5192 C.ar    
  33 C33            7.0779     7.0945    -1.8859 C.ar    
  34 C34            6.1793     6.3226    -2.6130 C.ar    
  35 C35            5.4377     5.3474    -1.9812 C.ar    
  36 N36            7.8330     8.0790    -2.5304 N.pl3   
  37 C37            9.0750     8.4014    -2.0638 C.2     
  38 N38            9.7179     7.8006    -1.0868 N.2     
  39 S39           10.1175     9.7020    -2.6706 S.3     
  40 C40           11.4606     9.3477    -1.4855 C.3     
  41 C41           10.9076     8.1747    -0.7029 C.2     
  42 O42           11.5150     7.6333     0.2003 O.2     
  43 H43           -1.3937     2.6891     0.2286 H       
  44 H44           -1.4547     0.2832     0.7278 H       
  45 H45            0.7933     3.8736     0.2051 H       
  46 H46            3.1798    -0.7561     0.7309 H       
  47 H47            3.3087    -1.6087     3.3660 H       
  48 H48            4.6254    -1.0764     5.3720 H       
  49 H49            5.7320     1.1086     5.5891 H       
  50 H50            5.5447     2.7750     3.7893 H       
  51 H51            3.1423     6.3504    -0.8331 H       
  52 H52            1.9351     2.4000    -1.9959 H       
  53 H53            0.5215     3.3650    -3.7617 H       
  54 H54            1.7186     7.2931    -2.6029 H       
  55 H55           -0.4878     4.1401    -5.0492 H       
  56 H56           -1.6121     4.9593    -4.1377 H       
  57 H57           -1.4128     7.3999    -3.7725 H       
  58 H58            0.2725     7.9299    -3.3482 H       
  59 H59           -0.9436     7.5224    -6.1749 H       
  60 H60            0.3187     8.7259    -5.6656 H       
  61 H61            1.9557     6.9533    -5.2210 H       
  62 H62            0.9742     6.0171    -6.4298 H       
  63 H63            6.5997     5.7615     1.1808 H       
  64 H64            7.9254     7.4914     0.0435 H       
  65 H65            6.0649     6.4843    -3.6747 H       
  66 H66            4.7398     4.7477    -2.5467 H       
  67 H67            7.4746     8.5329    -3.3091 H       
  68 H68           12.3737     9.0641    -2.0090 H       
  69 H69           11.6369    10.2031    -0.8334 H       
@<TRIPOS>BOND
   1    1    2 ar
   2    1    6 ar
   3    1   43 1
   4    2    3 ar
   5    2   44 1
   6    3    4 ar
   7    4    5 ar
   8    4    7 1
   9    5    6 ar
  10    5   11 1
  11    6   45 1
  12    7    8 1
  13    7   46 1
  14    8    9 ar
  15    8   12 ar
  16    9   10 1
  17    9   15 ar
  18   10   11 1
  19   10   16 2
  20   11   18 1
  21   12   13 ar
  22   12   47 1
  23   13   14 ar
  24   13   48 1
  25   14   15 ar
  26   14   49 1
  27   15   50 1
  28   16   17 1
  29   17   18 2
  30   17   25 1
  31   18   19 1
  32   19   20 ar
  33   19   21 ar
  34   20   24 ar
  35   20   51 1
  36   21   22 ar
  37   21   52 1
  38   22   23 ar
  39   22   53 1
  40   23   24 ar
  41   23   26 1
  42   24   54 1
  43   25   31 ar
  44   25   35 ar
  45   26   27 1
  46   26   28 1
  47   26   30 1
  48   27   55 1
  49   27   56 1
  50   28   29 1
  51   28   57 1
  52   28   58 1
  53   29   30 1
  54   29   59 1
  55   29   60 1
  56   30   61 1
  57   30   62 1
  58   31   32 ar
  59   31   63 1
  60   32   33 ar
  61   32   64 1
  62   33   34 ar
  63   33   36 1
  64   34   35 ar
  65   34   65 1
  66   35   66 1
  67   36   37 1
  68   36   67 1
  69   37   38 2
  70   37   39 1
  71   38   41 1
  72   39   40 1
  73   40   41 1
  74   40   68 1
  75   40   69 1
  76   41   42 2

#	End of record

