#	Name: ASD06600049
#	Creating user name:	WinNT
#	Creation time:	15. 06. 2019 21:07

#	Modifying user name:	WinNT
#	Modification time:	15. 06. 2019 21:07

#	Program:	/corina/corina34_cracker 3.40 0067  02.08.2006

@<TRIPOS>MOLECULE
ASD06600049
 304  308    0    0    0
SMALL
NO_CHARGES


@<TRIPOS>ATOM
   1 C1            -0.0144     1.2086     0.0087 C.2     
   2 O2             0.0021    -0.0041     0.0020 O.2     
   3 N3             2.4066     1.0431    -0.0153 N.am    
   4 C4             1.2803     1.9798     0.0005 C.3     
   5 C5             1.3375     2.8671    -1.2446 C.3     
   6 C6             2.5731     3.7283    -1.1914 C.2     
   7 C7             3.5251     3.8058    -2.1407 C.2     
   8 N8             4.4597     4.6998    -1.6923 N.pl3   
   9 C9             4.0458     5.1378    -0.4838 C.2     
  10 N10            2.9143     4.5563    -0.1929 N.2     
  11 C11           -3.5426     1.9694    -0.5709 C.2     
  12 O12           -3.2948     3.0926    -0.9556 O.2     
  13 N13           -1.1906     1.8666     0.0178 N.am    
  14 C14           -2.4492     1.1169     0.0197 C.3     
  15 C15           -2.8163     0.7401     1.4565 C.3     
  16 C16           -7.1934     1.8552    -0.7166 C.2     
  17 O17           -7.2513     0.9284     0.0635 O.2     
  18 N18           -4.7957     1.4837    -0.6717 N.am    
  19 C19           -5.8586     2.3124    -1.2459 C.3     
  20 C20           -5.8417     2.1796    -2.7700 C.3     
  21 C21           -4.4865     2.6438    -3.3074 C.3     
  22 C22           -6.0700     0.7171    -3.1571 C.3     
  23 C23          -10.7041     2.4068    -1.5736 C.2     
  24 O24          -10.4202     2.9881    -2.5995 O.2     
  25 N25           -8.3230     2.4763    -1.1101 N.am    
  26 C26           -9.6207     2.0318    -0.5955 C.3     
  27 C27           -9.8934     2.7057     0.7507 C.3     
  28 C28           -8.8808     2.2347     1.7626 C.2     
  29 C29           -8.0754     3.0215     2.5014 C.2     
  30 N30           -7.3201     2.1909     3.2845 N.pl3   
  31 C31           -7.6905     0.9245     2.9967 C.2     
  32 N32           -8.6278     0.9587     2.0893 N.2     
  33 C33          -14.3550     2.5850    -1.5307 C.2     
  34 O34          -14.4062     2.3884    -0.3350 O.2     
  35 N35          -11.9884     2.0962    -1.3083 N.am    
  36 C36          -13.0416     2.4607    -2.2592 C.3     
  37 C37          -13.1552     1.3780    -3.3342 C.3     
  38 C38          -17.8831     2.7975    -2.4639 C.2     
  39 O39          -17.6476     2.5513    -3.6279 O.2     
  40 N40          -15.4727     2.9146    -2.2080 N.am    
  41 C41          -16.7494     3.0354    -1.4998 C.3     
  42 C42          -16.8719     4.4398    -0.9051 C.3     
  43 C43          -15.8118     4.6333     0.1483 C.ar    
  44 C44          -14.5744     5.1405    -0.2028 C.ar    
  45 C45          -13.6008     5.3185     0.7610 C.ar    
  46 C46          -13.8657     4.9883     2.0822 C.ar    
  47 O47          -12.9097     5.1629     3.0322 O.3     
  48 C48          -15.1082     4.4800     2.4319 C.ar    
  49 C49          -16.0802     4.3088     1.4653 C.ar    
  50 C50          -21.5012     3.3190    -2.4668 C.2     
  51 O51          -21.4682     3.9438    -1.4278 O.2     
  52 N52          -19.1585     2.8584    -2.0326 N.am    
  53 C53          -20.2605     2.6272    -2.9698 C.3     
  54 C54          -20.5255     1.1247    -3.0847 C.3     
  55 C55          -19.3101     0.4390    -3.7120 C.3     
  56 C56          -19.5750    -1.0635    -3.8269 C.3     
  57 N57          -18.4113    -1.7201    -4.4275 N.pl3   
  58 C58          -18.4183    -3.0797    -4.6316 C.2     
  59 N59          -17.3829    -3.6639    -5.1660 N.2     
  60 N60          -19.5175    -3.8231    -4.2720 N.pl3   
  61 C61          -25.0733     3.2269    -3.2380 C.2     
  62 O62          -24.9474     2.2682    -3.9701 O.2     
  63 N63          -22.6475     3.2436    -3.1716 N.am    
  64 C64          -23.8537     3.9162    -2.6826 C.3     
  65 C65          -23.8425     5.3772    -3.1367 C.3     
  66 C66          -22.6915     6.0976    -2.4830 C.2     
  67 C67          -21.7245     6.7857    -3.1195 C.2     
  68 N68          -20.8871     7.2766    -2.1544 N.pl3   
  69 C69          -21.3718     6.8712    -0.9610 C.2     
  70 N70          -22.4539     6.1707    -1.1650 N.2     
  71 C71          -28.6417     3.9764    -3.4988 C.2     
  72 O72          -28.4875     5.1158    -3.1130 O.2     
  73 N73          -26.3040     3.6758    -2.9210 N.am    
  74 C74          -27.4896     3.0057    -3.4609 C.3     
  75 C75          -27.8537     1.8167    -2.5694 C.3     
  76 C76          -26.7365     0.7732    -2.6295 C.3     
  77 C77          -27.1006    -0.4157    -1.7380 C.3     
  78 N78          -26.0308    -1.4150    -1.7955 N.pl3   
  79 C79          -26.1367    -2.5780    -1.0702 C.2     
  80 N80          -27.1890    -2.7917    -0.3313 N.2     
  81 N81          -25.1328    -3.5157    -1.1242 N.pl3   
  82 C82          -32.2631     3.7613    -3.9483 C.2     
  83 O83          -32.2548     2.5501    -3.8876 O.2     
  84 N84          -29.8433     3.5784    -3.9616 N.am    
  85 C85          -30.9632     4.5222    -3.9985 C.3     
  86 C86          -30.8998     5.3386    -5.2910 C.3     
  87 C87          -29.6395     6.2061    -5.2849 C.3     
  88 C88          -29.5761     7.0225    -6.5773 C.3     
  89 N89          -28.3693     7.8532    -6.5714 N.pl3   
  90 C90          -28.0975     8.6781    -7.6371 C.2     
  91 N91          -28.9134     8.7212    -8.6527 N.2     
  92 N92          -26.9650     9.4576    -7.6316 N.pl3   
  93 C93          -35.7887     4.5133    -4.5544 C.2     
  94 O94          -35.5352     5.6117    -5.0020 O.2     
  95 N95          -33.4348     4.4270    -3.9708 N.am    
  96 C96          -34.6985     3.6873    -3.9219 C.3     
  97 C97          -35.0614     3.3935    -2.4649 C.3     
  98 C98          -34.0180     2.4526    -1.8592 C.3     
  99 C99          -34.3103     2.2579    -0.3700 C.3     
 100 C100         -34.0765     1.0999    -2.5716 C.3     
 101 C101         -39.4409     4.4166    -4.6782 C.2     
 102 O102         -39.5014     3.5350    -3.8476 O.2     
 103 N103         -37.0456     4.0315    -4.6228 N.am    
 104 C104         -38.1055     4.8344    -5.2377 C.3     
 105 C105         -38.0965     4.6170    -6.7522 C.3     
 106 C106         -36.7894     5.1560    -7.3370 C.3     
 107 C107         -36.7250     4.8277    -8.8299 C.3     
 108 C108         -36.7322     6.6729    -7.1455 C.3     
 109 C109         -42.9516     4.9442    -5.5498 C.2     
 110 O110         -42.6686     5.4656    -6.6076 O.2     
 111 N111         -40.5681     5.0228    -5.1008 N.am    
 112 C112         -41.8663     4.6166    -4.5569 C.3     
 113 C113         -42.1283     5.3662    -3.2491 C.3     
 114 C114         -41.1143     4.9451    -2.2169 C.ar    
 115 C115         -39.9198     5.6313    -2.1013 C.ar    
 116 C116         -38.9896     5.2450    -1.1545 C.ar    
 117 C117         -39.2540     4.1728    -0.3230 C.ar    
 118 C118         -40.4488     3.4872    -0.4380 C.ar    
 119 C119         -41.3809     3.8762    -1.3819 C.ar    
 120 C120         -45.7219     6.4093    -6.0471 C.2     
 121 O121         -45.2005     7.0943    -5.1993 O.2     
 122 N122         -44.2368     4.6578    -5.2622 N.am    
 123 C123         -45.2919     4.9762    -6.2274 C.3     
 124 C124         -46.4892     4.0517    -5.9977 C.3     
 125 C125         -47.5397     4.2987    -7.0823 C.3     
 126 C126         -48.6799     3.2904    -6.9271 C.3     
 127 C127         -47.0980     4.3377    -4.6235 C.3     
 128 O128         -46.6841     6.9246    -6.8283 O.3     
 129 C129           3.6058     1.4228     0.4686 C.2     
 130 O130           3.7525     2.5401     0.9171 O.2     
 131 C131          21.6351    -1.6585     4.5475 C.3     
 132 C132          20.4589    -0.6802     4.5640 C.3     
 133 C133          19.2250    -1.3560     3.9625 C.3     
 134 C134          18.0488    -0.3777     3.9790 C.3     
 135 C135          16.8149    -1.0534     3.3775 C.3     
 136 C136          15.6387    -0.0751     3.3940 C.3     
 137 C137          14.4048    -0.7509     2.7924 C.3     
 138 C138          13.2286     0.2274     2.8089 C.3     
 139 C139          11.9947    -0.4484     2.2074 C.3     
 140 C140          10.8184     0.5299     2.2239 C.3     
 141 C141           9.5846    -0.1458     1.6224 C.3     
 142 C142           8.4083     0.8325     1.6389 C.3     
 143 C143           7.1745     0.1567     1.0374 C.3     
 144 C144           5.9982     1.1350     1.0539 C.3     
 145 C145           4.7644     0.4592     0.4523 C.3     
 146 H146           2.2893     0.1495    -0.3740 H       
 147 H147           1.3381     2.6024     0.8933 H       
 148 H148           1.3693     2.2407    -2.1361 H       
 149 H149           0.4527     3.5029    -1.2787 H       
 150 H150           3.5473     3.2660    -3.0759 H       
 151 H151           5.2681     4.9686    -2.1560 H       
 152 H152           4.5634     5.8539     0.1373 H       
 153 H153          -1.2037     2.8365     0.0232 H       
 154 H154          -2.3335     0.2109    -0.5752 H       
 155 H155          -2.9321     1.6460     2.0514 H       
 156 H156          -3.7527     0.1823     1.4579 H       
 157 H157          -2.0255     0.1235     1.8837 H       
 158 H158          -4.9939     0.5854    -0.3641 H       
 159 H159          -5.6959     3.3544    -0.9701 H       
 160 H160          -6.6325     2.7963    -3.1972 H       
 161 H161          -3.6957     2.0272    -2.8802 H       
 162 H162          -4.4744     2.5492    -4.3932 H       
 163 H163          -4.3238     3.6858    -3.0317 H       
 164 H164          -7.0355     0.3864    -2.7743 H       
 165 H165          -6.0580     0.6225    -4.2429 H       
 166 H166          -5.2792     0.1005    -2.7299 H       
 167 H167          -8.2768     3.2176    -1.7340 H       
 168 H168          -9.6082     0.9498    -0.4643 H       
 169 H169          -9.8181     3.7872     0.6376 H       
 170 H170         -10.8955     2.4450     1.0911 H       
 171 H171          -8.0332     4.1005     2.4799 H       
 172 H172          -6.6449     2.4613     3.9262 H       
 173 H173          -7.2817     0.0316     3.4461 H       
 174 H174         -12.2155     1.6313    -0.4878 H       
 175 H175         -12.7944     3.4133    -2.7276 H       
 176 H176         -13.4024     0.4253    -2.8658 H       
 177 H177         -13.9388     1.6492    -4.0417 H       
 178 H178         -12.2052     1.2881    -3.8611 H       
 179 H179         -15.4317     3.0718    -3.1643 H       
 180 H180         -16.7922     2.2968    -0.6993 H       
 181 H181         -16.7403     5.1809    -1.6935 H       
 182 H182         -17.8574     4.5591    -0.4551 H       
 183 H183         -14.3687     5.3975    -1.2314 H       
 184 H184         -12.6342     5.7141     0.4861 H       
 185 H185         -12.9277     6.0333     3.4530 H       
 186 H186         -15.3167     4.2218     3.4597 H       
 187 H187         -17.0491     3.9172     1.7378 H       
 188 H188         -19.3468     3.0553    -1.1016 H       
 189 H189         -19.9942     3.0251    -3.9490 H       
 190 H190         -20.7045     0.7104    -2.0925 H       
 191 H191         -21.4011     0.9571    -3.7119 H       
 192 H192         -19.1310     0.8533    -4.7041 H       
 193 H193         -18.4345     0.6065    -3.0848 H       
 194 H194         -19.7541    -1.4778    -2.8347 H       
 195 H195         -20.4506    -1.2311    -4.4540 H       
 196 H196         -17.6357    -1.1956    -4.6812 H       
 197 H197         -17.3879    -4.6231    -5.3100 H       
 198 H198         -20.2881    -3.3884    -3.8744 H       
 199 H199         -19.5225    -4.7823    -4.4160 H       
 200 H200         -22.6739     2.7439    -4.0026 H       
 201 H201         -23.8769     3.8743    -1.5937 H       
 202 H202         -23.7298     5.4201    -4.2201 H       
 203 H203         -24.7797     5.8540    -2.8498 H       
 204 H204         -21.6281     6.9234    -4.1864 H       
 205 H205         -20.0937     7.8152    -2.3005 H       
 206 H206         -20.9382     7.0933     0.0029 H       
 207 H207         -26.4046     4.4425    -2.3355 H       
 208 H208         -27.2791     2.6520    -4.4702 H       
 209 H209         -27.9774     2.1578    -1.5415 H       
 210 H210         -28.7854     1.3721    -2.9193 H       
 211 H211         -26.6127     0.4321    -3.6573 H       
 212 H212         -25.8048     1.2178    -2.2796 H       
 213 H213         -27.2243    -0.0747    -0.7101 H       
 214 H214         -28.0322    -0.8604    -2.0879 H       
 215 H215         -25.2477    -1.2560    -2.3454 H       
 216 H216         -27.2638    -3.6123     0.1805 H       
 217 H217         -24.3497    -3.3567    -1.6741 H       
 218 H218         -25.2075    -4.3364    -0.6124 H       
 219 H219         -29.9666     2.6672    -4.2702 H       
 220 H220         -30.9015     5.1930    -3.1416 H       
 221 H221         -30.8720     4.6634    -6.1462 H       
 222 H222         -31.7802     5.9774    -5.3608 H       
 223 H223         -29.6673     6.8813    -4.4296 H       
 224 H224         -28.7591     5.5673    -5.2150 H       
 225 H225         -29.5483     6.3473    -7.4325 H       
 226 H226         -30.4565     7.6613    -6.6471 H       
 227 H227         -27.7621     7.8211    -5.8157 H       
 228 H228         -28.7216     9.3032    -9.4046 H       
 229 H229         -26.3578     9.4256    -6.8759 H       
 230 H230         -26.7732    10.0397    -8.3835 H       
 231 H231         -33.4414     5.3957    -4.0193 H       
 232 H232         -34.5915     2.7490    -4.4660 H       
 233 H233         -35.0813     4.3257    -1.9003 H       
 234 H234         -36.0434     2.9223    -2.4230 H       
 235 H235         -33.0248     2.8848    -1.9810 H       
 236 H236         -35.3035     1.8257    -0.2482 H       
 237 H237         -33.5670     1.5875     0.0615 H       
 238 H238         -34.2687     3.2216     0.1375 H       
 239 H239         -35.0697     0.6677    -2.4498 H       
 240 H240         -33.8682     1.2386    -3.6325 H       
 241 H241         -33.3331     0.4295    -2.1400 H       
 242 H242         -37.2483     3.1530    -4.2648 H       
 243 H243         -37.9345     5.8889    -5.0210 H       
 244 H244         -38.1784     3.5515    -6.9668 H       
 245 H245         -38.9392     5.1437    -7.1998 H       
 246 H246         -35.9448     4.6932    -6.8264 H       
 247 H247         -37.5696     5.2904    -9.3405 H       
 248 H248         -35.7939     5.2116    -9.2466 H       
 249 H249         -36.7658     3.7470    -8.9664 H       
 250 H250         -37.5768     7.1357    -7.6560 H       
 251 H251         -36.7780     6.9068    -6.0818 H       
 252 H252         -35.8010     7.0568    -7.5621 H       
 253 H253         -40.5197     5.7279    -5.7652 H       
 254 H254         -41.8605     3.5435    -4.3658 H       
 255 H255         -42.0462     6.4391    -3.4225 H       
 256 H256         -43.1306     5.1317    -2.8905 H       
 257 H257         -39.7133     6.4690    -2.7509 H       
 258 H258         -38.0562     5.7807    -1.0647 H       
 259 H259         -38.5270     3.8706     0.4162 H       
 260 H260         -40.6553     2.6493     0.2114 H       
 261 H261         -42.3159     3.3428    -1.4692 H       
 262 H262         -44.4632     4.2408    -4.4162 H       
 263 H263         -44.9129     4.8352    -7.2397 H       
 264 H264         -46.1600     3.0135    -6.0404 H       
 265 H265         -47.9333     5.3103    -6.9833 H       
 266 H266         -47.0822     4.1814    -8.0647 H       
 267 H267         -49.4283     3.4663    -7.6998 H       
 268 H268         -48.2863     2.2787    -7.0261 H       
 269 H269         -49.1374     3.4077    -5.9447 H       
 270 H270         -47.4272     5.3759    -4.5808 H       
 271 H271         -47.9510     3.6791    -4.4599 H       
 272 H272         -46.3497     4.1617    -3.8508 H       
 273 H273         -46.9260     7.8483    -6.6752 H       
 274 H274          22.5141    -1.1771     4.9760 H       
 275 H275          21.3818    -2.5412     5.1347 H       
 276 H276          21.8474    -1.9542     3.5201 H       
 277 H277          20.2466    -0.3845     5.5914 H       
 278 H278          20.7122     0.2025     3.9769 H       
 279 H279          19.4373    -1.6516     2.9351 H       
 280 H280          18.9717    -2.2387     4.5497 H       
 281 H281          17.8365    -0.0820     5.0064 H       
 282 H282          18.3021     0.5051     3.3918 H       
 283 H283          17.0272    -1.3491     2.3500 H       
 284 H284          16.5616    -1.9361     3.9646 H       
 285 H285          15.4264     0.2206     4.4214 H       
 286 H286          15.8920     0.8076     2.8068 H       
 287 H287          14.6171    -1.0466     1.7650 H       
 288 H288          14.1515    -1.6336     3.3796 H       
 289 H289          13.0163     0.5231     3.8364 H       
 290 H290          13.4819     1.1101     2.2218 H       
 291 H291          12.2070    -0.7440     1.1800 H       
 292 H292          11.7414    -1.3311     2.7946 H       
 293 H293          10.6062     0.8256     3.2513 H       
 294 H294          11.0718     1.4127     1.6367 H       
 295 H295           9.7969    -0.4415     0.5950 H       
 296 H296           9.3313    -1.0285     2.2095 H       
 297 H297           8.1961     1.1282     2.6663 H       
 298 H298           8.6617     1.7152     1.0517 H       
 299 H299           7.3868    -0.1390     0.0099 H       
 300 H300           6.9211    -0.7260     1.6245 H       
 301 H301           5.7859     1.4307     2.0813 H       
 302 H302           6.2516     2.0177     0.4667 H       
 303 H303           4.5110    -0.4235     1.0395 H       
 304 H304           4.9766     0.1636    -0.5751 H       
@<TRIPOS>BOND
   1    1    2 2
   2    1    4 1
   3    1   13 am
   4    3  129 am
   5    3    4 1
   6    3  146 1
   7    4    5 1
   8    4  147 1
   9    5    6 1
  10    5  148 1
  11    5  149 1
  12    6    7 2
  13    6   10 1
  14    7    8 1
  15    7  150 1
  16    8    9 1
  17    8  151 1
  18    9   10 2
  19    9  152 1
  20   11   12 2
  21   11   14 1
  22   11   18 am
  23   13   14 1
  24   13  153 1
  25   14   15 1
  26   14  154 1
  27   15  155 1
  28   15  156 1
  29   15  157 1
  30   16   17 2
  31   16   19 1
  32   16   25 am
  33   18   19 1
  34   18  158 1
  35   19   20 1
  36   19  159 1
  37   20   21 1
  38   20   22 1
  39   20  160 1
  40   21  161 1
  41   21  162 1
  42   21  163 1
  43   22  164 1
  44   22  165 1
  45   22  166 1
  46   23   24 2
  47   23   26 1
  48   23   35 am
  49   25   26 1
  50   25  167 1
  51   26   27 1
  52   26  168 1
  53   27   28 1
  54   27  169 1
  55   27  170 1
  56   28   29 2
  57   28   32 1
  58   29   30 1
  59   29  171 1
  60   30   31 1
  61   30  172 1
  62   31   32 2
  63   31  173 1
  64   33   34 2
  65   33   36 1
  66   33   40 am
  67   35   36 1
  68   35  174 1
  69   36   37 1
  70   36  175 1
  71   37  176 1
  72   37  177 1
  73   37  178 1
  74   38   39 2
  75   38   41 1
  76   38   52 am
  77   40   41 1
  78   40  179 1
  79   41   42 1
  80   41  180 1
  81   42   43 1
  82   42  181 1
  83   42  182 1
  84   43   44 ar
  85   43   49 ar
  86   44   45 ar
  87   44  183 1
  88   45   46 ar
  89   45  184 1
  90   46   47 1
  91   46   48 ar
  92   47  185 1
  93   48   49 ar
  94   48  186 1
  95   49  187 1
  96   50   51 2
  97   50   53 1
  98   50   63 am
  99   52   53 1
 100   52  188 1
 101   53   54 1
 102   53  189 1
 103   54   55 1
 104   54  190 1
 105   54  191 1
 106   55   56 1
 107   55  192 1
 108   55  193 1
 109   56   57 1
 110   56  194 1
 111   56  195 1
 112   57   58 1
 113   57  196 1
 114   58   59 2
 115   58   60 1
 116   59  197 1
 117   60  198 1
 118   60  199 1
 119   61   62 2
 120   61   64 1
 121   61   73 am
 122   63   64 1
 123   63  200 1
 124   64   65 1
 125   64  201 1
 126   65   66 1
 127   65  202 1
 128   65  203 1
 129   66   67 2
 130   66   70 1
 131   67   68 1
 132   67  204 1
 133   68   69 1
 134   68  205 1
 135   69   70 2
 136   69  206 1
 137   71   72 2
 138   71   74 1
 139   71   84 am
 140   73   74 1
 141   73  207 1
 142   74   75 1
 143   74  208 1
 144   75   76 1
 145   75  209 1
 146   75  210 1
 147   76   77 1
 148   76  211 1
 149   76  212 1
 150   77   78 1
 151   77  213 1
 152   77  214 1
 153   78   79 1
 154   78  215 1
 155   79   80 2
 156   79   81 1
 157   80  216 1
 158   81  217 1
 159   81  218 1
 160   82   83 2
 161   82   85 1
 162   82   95 am
 163   84   85 1
 164   84  219 1
 165   85   86 1
 166   85  220 1
 167   86   87 1
 168   86  221 1
 169   86  222 1
 170   87   88 1
 171   87  223 1
 172   87  224 1
 173   88   89 1
 174   88  225 1
 175   88  226 1
 176   89   90 1
 177   89  227 1
 178   90   91 2
 179   90   92 1
 180   91  228 1
 181   92  229 1
 182   92  230 1
 183   93   94 2
 184   93   96 1
 185   93  103 am
 186   95   96 1
 187   95  231 1
 188   96   97 1
 189   96  232 1
 190   97   98 1
 191   97  233 1
 192   97  234 1
 193   98   99 1
 194   98  100 1
 195   98  235 1
 196   99  236 1
 197   99  237 1
 198   99  238 1
 199  100  239 1
 200  100  240 1
 201  100  241 1
 202  101  102 2
 203  101  104 1
 204  101  111 am
 205  103  104 1
 206  103  242 1
 207  104  105 1
 208  104  243 1
 209  105  106 1
 210  105  244 1
 211  105  245 1
 212  106  107 1
 213  106  108 1
 214  106  246 1
 215  107  247 1
 216  107  248 1
 217  107  249 1
 218  108  250 1
 219  108  251 1
 220  108  252 1
 221  109  110 2
 222  109  112 1
 223  109  122 am
 224  111  112 1
 225  111  253 1
 226  112  113 1
 227  112  254 1
 228  113  114 1
 229  113  255 1
 230  113  256 1
 231  114  115 ar
 232  114  119 ar
 233  115  116 ar
 234  115  257 1
 235  116  117 ar
 236  116  258 1
 237  117  118 ar
 238  117  259 1
 239  118  119 ar
 240  118  260 1
 241  119  261 1
 242  120  121 2
 243  120  123 1
 244  120  128 1
 245  122  123 1
 246  122  262 1
 247  123  124 1
 248  123  263 1
 249  124  125 1
 250  124  127 1
 251  124  264 1
 252  125  126 1
 253  125  265 1
 254  125  266 1
 255  126  267 1
 256  126  268 1
 257  126  269 1
 258  127  270 1
 259  127  271 1
 260  127  272 1
 261  128  273 1
 262  129  130 2
 263  129  145 1
 264  131  132 1
 265  131  274 1
 266  131  275 1
 267  131  276 1
 268  132  133 1
 269  132  277 1
 270  132  278 1
 271  133  134 1
 272  133  279 1
 273  133  280 1
 274  134  135 1
 275  134  281 1
 276  134  282 1
 277  135  136 1
 278  135  283 1
 279  135  284 1
 280  136  137 1
 281  136  285 1
 282  136  286 1
 283  137  138 1
 284  137  287 1
 285  137  288 1
 286  138  139 1
 287  138  289 1
 288  138  290 1
 289  139  140 1
 290  139  291 1
 291  139  292 1
 292  140  141 1
 293  140  293 1
 294  140  294 1
 295  141  142 1
 296  141  295 1
 297  141  296 1
 298  142  143 1
 299  142  297 1
 300  142  298 1
 301  143  144 1
 302  143  299 1
 303  143  300 1
 304  144  145 1
 305  144  301 1
 306  144  302 1
 307  145  303 1
 308  145  304 1

#	End of record

