#	Name: ASD08710013
#	Creating user name:	WinNT
#	Creation time:	15. 06. 2019 21:19

#	Modifying user name:	WinNT
#	Modification time:	15. 06. 2019 21:19

#	Program:	/corina/corina34_cracker 3.40 0067  02.08.2006

@<TRIPOS>MOLECULE
ASD08710013
  35   36    0    0    0
SMALL
NO_CHARGES


@<TRIPOS>ATOM
   1 C1            -0.0167     1.3781     0.0096 C.ar    
   2 C2             0.0021    -0.0041     0.0020 C.ar    
   3 C3             1.1709     2.0855     0.0021 C.ar    
   4 C4             2.3773     1.4107    -0.0131 C.ar    
   5 C5             2.3960     0.0285    -0.0203 C.ar    
   6 C6             1.2084    -0.6789    -0.0132 C.ar    
   7 S7             1.2323    -2.4407    -0.0218 S.o2    
   8 O8            -0.0166    -2.8563    -0.5572 O.2     
   9 O9             2.4825    -2.8223    -0.5791 O.2     
  10 N10            1.2530    -2.9383     1.5576 N.am    
  11 C11            0.0002    -3.1824     2.2886 C.3     
  12 C12            2.5245    -3.1539     2.2646 C.3     
  13 C13            2.4941    -4.5444     2.9080 C.3     
  14 N14            1.2910    -4.6683     3.7418 N.3     
  15 C15            0.0743    -4.5716     2.9310 C.3     
  16 C16            3.7392    -4.7321     3.7772 C.3     
  17 C17            1.1505     3.5924     0.0099 C.3     
  18 F18            1.1565     4.0520     1.3313 F       
  19 F19            2.2801     4.0776    -0.6577 F       
  20 F20           -0.0041     4.0465    -0.6365 F       
  21 H21           -0.9592     1.9054     0.0170 H       
  22 H22           -0.9258    -0.5567     0.0083 H       
  23 H23            3.3051     1.9634    -0.0197 H       
  24 H24            3.3385    -0.4987    -0.0329 H       
  25 H25           -0.1244    -2.4266     3.0640 H       
  26 H26           -0.8411    -3.1433     1.5966 H       
  27 H27            3.3514    -3.0961     1.5568 H       
  28 H28            2.6468    -2.3953     3.0377 H       
  29 H29            2.4762    -5.3057     2.1282 H       
  30 H30            1.3042    -5.5278     4.2702 H       
  31 H31           -0.7989    -4.7211     3.5662 H       
  32 H32            0.0938    -5.3351     2.1533 H       
  33 H33            3.7557    -3.9712     4.5574 H       
  34 H34            3.7171    -5.7212     4.2346 H       
  35 H35            4.6317    -4.6377     3.1586 H       
@<TRIPOS>BOND
   1    1    2 ar
   2    1    3 ar
   3    1   21 1
   4    2    6 ar
   5    2   22 1
   6    3    4 ar
   7    3   17 1
   8    4    5 ar
   9    4   23 1
  10    5    6 ar
  11    5   24 1
  12    6    7 1
  13    7    8 2
  14    7    9 2
  15    7   10 am
  16   10   11 1
  17   10   12 1
  18   11   15 1
  19   11   25 1
  20   11   26 1
  21   12   13 1
  22   12   27 1
  23   12   28 1
  24   13   14 1
  25   13   16 1
  26   13   29 1
  27   14   15 1
  28   14   30 1
  29   15   31 1
  30   15   32 1
  31   16   33 1
  32   16   34 1
  33   16   35 1
  34   17   18 1
  35   17   19 1
  36   17   20 1

#	End of record

