#	Name: ASD01148423
#	Creating user name:	WinNT
#	Creation time:	15. 06. 2019 19:02

#	Modifying user name:	WinNT
#	Modification time:	15. 06. 2019 19:02

#	Program:	/corina/corina34_cracker 3.40 0067  02.08.2006

@<TRIPOS>MOLECULE
ASD01148423
  50   52    0    0    0
SMALL
NO_CHARGES


@<TRIPOS>ATOM
   1 C1             0.3635     1.8419     0.0678 C.ar    
   2 C2             0.4620     0.4642    -0.0075 C.ar    
   3 C3            -0.6823    -0.3066    -0.0943 C.ar    
   4 C4            -1.9246     0.2992    -0.1060 C.ar    
   5 C5            -2.0237     1.6762    -0.0308 C.ar    
   6 C6            -0.8807     2.4474     0.0614 C.ar    
   7 C7            -3.3786     2.3358    -0.0436 C.3     
   8 O8            -4.3699     1.4909     0.5753 O.3     
   9 C9            -3.3996     3.5759     0.8817 C.3     
  10 C10           -3.9251     3.0056     2.1854 C.2     
  11 N11           -4.4445     1.8493     1.9409 N.2     
  12 C12           -3.8546     3.6602     3.5064 C.ar    
  13 C13           -4.3804     3.0205     4.6322 C.ar    
  14 C14           -3.2572     4.9168     3.6324 C.ar    
  15 C15           -3.1916     5.5273     4.8645 C.ar    
  16 C16           -3.7223     4.8904     5.9889 C.ar    
  17 C17           -4.3148     3.6310     5.8639 C.ar    
  18 C18           -3.6519     5.5456     7.3111 C.2     
  19 O19           -4.2099     5.0451     8.2679 O.2     
  20 N20           -2.9688     6.6983     7.4564 N.am    
  21 C21           -4.8878     2.9441     7.0767 C.3     
  22 C22           -3.7897     2.7084    -1.4694 C.3     
  23 F23           -3.8286     1.5549    -2.2601 F       
  24 F24           -5.0559     3.3030    -1.4494 F       
  25 F25           -2.8605     3.6081    -2.0026 F       
  26 Cl26           1.8000     2.8104     0.1775 Cl      
  27 C27           -2.9029     7.3111     8.6929 C.2     
  28 N28           -3.4956     6.7795     9.7091 N.2     
  29 O29           -3.4280     7.4075    10.9765 O.3     
  30 C30           -4.1284     6.7103    12.0087 C.3     
  31 C31           -0.5751    -1.8075    -0.1768 C.3     
  32 F32            0.7728    -2.1811    -0.1483 F       
  33 F33           -1.2416    -2.3830     0.9102 F       
  34 F34           -1.1570    -2.2517    -1.3690 F       
  35 H35            1.4327    -0.0092     0.0013 H       
  36 H36           -2.8183    -0.3034    -0.1742 H       
  37 H37           -0.9582     3.5230     0.1201 H       
  38 H38           -2.3950     3.9782     1.0124 H       
  39 H39           -4.0751     4.3377     0.4925 H       
  40 H40           -4.8386     2.0473     4.5355 H       
  41 H41           -2.8466     5.4090     2.7632 H       
  42 H42           -2.7294     6.4986     4.9620 H       
  43 H43           -2.5234     7.0977     6.6928 H       
  44 H44           -5.8956     3.3156     7.2624 H       
  45 H45           -4.9234     1.8687     6.9024 H       
  46 H46           -4.2589     3.1512     7.9426 H       
  47 H47           -2.3555     8.2348     8.8094 H       
  48 H48           -4.0285     7.2552    12.9474 H       
  49 H49           -5.1829     6.6328    11.7439 H       
  50 H50           -3.7079     5.7111    12.1221 H       
@<TRIPOS>BOND
   1    1    2 ar
   2    1   26 1
   3    1    6 ar
   4    2    3 ar
   5    2   35 1
   6    3    4 ar
   7    3   31 1
   8    4    5 ar
   9    4   36 1
  10    5    6 ar
  11    5    7 1
  12    6   37 1
  13    7    8 1
  14    7    9 1
  15    7   22 1
  16    8   11 1
  17    9   10 1
  18    9   38 1
  19    9   39 1
  20   10   11 2
  21   10   12 1
  22   12   13 ar
  23   12   14 ar
  24   13   17 ar
  25   13   40 1
  26   14   15 ar
  27   14   41 1
  28   15   16 ar
  29   15   42 1
  30   16   17 ar
  31   16   18 1
  32   17   21 1
  33   18   19 2
  34   18   20 am
  35   20   27 1
  36   20   43 1
  37   21   44 1
  38   21   45 1
  39   21   46 1
  40   22   23 1
  41   22   24 1
  42   22   25 1
  43   27   28 2
  44   27   47 1
  45   28   29 1
  46   29   30 1
  47   30   48 1
  48   30   49 1
  49   30   50 1
  50   31   32 1
  51   31   33 1
  52   31   34 1

#	End of record

