#	Name: ASD00890002
#	Creating user name:	WinNT
#	Creation time:	15. 06. 2019 18:53

#	Modifying user name:	WinNT
#	Modification time:	15. 06. 2019 18:53

#	Program:	/corina/corina34_cracker 3.40 0067  02.08.2006

@<TRIPOS>MOLECULE
ASD00890002
  50   53    0    0    0
SMALL
NO_CHARGES


@<TRIPOS>ATOM
   1 C1             0.8410     0.7660    -0.9061 C.ar    
   2 C2             1.2163    -0.5216    -1.2454 C.ar    
   3 C3             2.5449    -0.8916    -1.1948 C.ar    
   4 C4             3.5088     0.0343    -0.8016 C.ar    
   5 C5             3.1255     1.3294    -0.4616 C.ar    
   6 C6             1.7938     1.6890    -0.5151 C.ar    
   7 S7             1.3072     3.3271    -0.0858 S.o2    
   8 O8            -0.0246     3.2355     0.4013 O.2     
   9 O9             2.3758     3.8775     0.6720 O.2     
  10 N10            1.2321     4.2003    -1.4909 N.am    
  11 C11            4.9396    -0.3584    -0.7449 C.2     
  12 C12            5.4514    -1.5861    -1.0488 C.2     
  13 N13            6.7863    -1.5273    -0.8691 N.pl3   
  14 N14            7.1141    -0.2343    -0.4437 N.2     
  15 C15            6.0160     0.4705    -0.3735 C.2     
  16 C16            7.7308    -2.6269    -1.0817 C.3     
  17 C17            8.8050    -2.1875    -2.0429 C.ar    
  18 C18            9.9594    -1.5953    -1.5658 C.ar    
  19 C19           10.9447    -1.1922    -2.4475 C.ar    
  20 C20           10.7760    -1.3818    -3.8063 C.ar    
  21 C21            9.6221    -1.9749    -4.2834 C.ar    
  22 C22            8.6386    -2.3819    -3.4014 C.ar    
  23 C23            0.2736     3.8942    -2.4485 C.ar    
  24 C24            0.6556     3.3184    -3.6707 C.ar    
  25 C25           -0.3195     3.0150    -4.6253 C.ar    
  26 C26           -1.6451     3.2815    -4.3626 C.ar    
  27 C27           -2.0197     3.8502    -3.1556 C.ar    
  28 C28           -1.0699     4.1508    -2.1997 C.ar    
  29 C29            2.0749     3.0364    -3.9456 C.2     
  30 O30            2.4390     2.5016    -5.1278 O.3     
  31 O31            2.9176     3.2859    -3.1063 O.2     
  32 Cl32          -1.5521     4.8626    -0.6915 Cl      
  33 H33           -0.1993     1.0527    -0.9510 H       
  34 H34            0.4683    -1.2385    -1.5500 H       
  35 H35            2.8368    -1.8973    -1.4591 H       
  36 H36            3.8688     2.0509    -0.1558 H       
  37 H37            1.8575     4.9256    -1.6452 H       
  38 H38            4.8890    -2.4487    -1.3743 H       
  39 H39            5.9453     1.5061    -0.0750 H       
  40 H40            8.1855    -2.9043    -0.1307 H       
  41 H41            7.2018    -3.4853    -1.4957 H       
  42 H42           10.0912    -1.4471    -0.5041 H       
  43 H43           11.8463    -0.7288    -2.0747 H       
  44 H44           11.5456    -1.0663    -4.4953 H       
  45 H45            9.4902    -2.1228    -5.3451 H       
  46 H46            7.7371    -2.8453    -3.7741 H       
  47 H47           -0.0336     2.5723    -5.5680 H       
  48 H48           -2.3968     3.0462    -5.1016 H       
  49 H49           -3.0618     4.0559    -2.9598 H       
  50 H50            3.3819     2.3343    -5.2622 H       
@<TRIPOS>BOND
   1    1    2 ar
   2    1    6 ar
   3    1   33 1
   4    2    3 ar
   5    2   34 1
   6    3    4 ar
   7    3   35 1
   8    4    5 ar
   9    4   11 1
  10    5    6 ar
  11    5   36 1
  12    6    7 1
  13    7    8 2
  14    7    9 2
  15    7   10 am
  16   10   23 1
  17   10   37 1
  18   11   12 2
  19   11   15 1
  20   12   13 1
  21   12   38 1
  22   13   14 1
  23   13   16 1
  24   14   15 2
  25   15   39 1
  26   16   17 1
  27   16   40 1
  28   16   41 1
  29   17   18 ar
  30   17   22 ar
  31   18   19 ar
  32   18   42 1
  33   19   20 ar
  34   19   43 1
  35   20   21 ar
  36   20   44 1
  37   21   22 ar
  38   21   45 1
  39   22   46 1
  40   23   24 ar
  41   23   28 ar
  42   24   25 ar
  43   24   29 1
  44   25   26 ar
  45   25   47 1
  46   26   27 ar
  47   26   48 1
  48   27   28 ar
  49   27   49 1
  50   28   32 1
  51   29   30 1
  52   29   31 2
  53   30   50 1

#	End of record

