#	Name: ASD01917120
#	Creating user name:	WinNT
#	Creation time:	15. 06. 2019 20:08

#	Modifying user name:	WinNT
#	Modification time:	15. 06. 2019 20:08

#	Program:	/corina/corina34_cracker 3.40 0067  02.08.2006

@<TRIPOS>MOLECULE
ASD01917120
  38   40    0    0    0
SMALL
NO_CHARGES


@<TRIPOS>ATOM
   1 C1            -0.0425     1.4705     0.1519 C.ar    
   2 C2            -0.0085    -0.0060     0.0636 C.2     
   3 N3             1.0564    -0.7656     0.2107 N.2     
   4 C4             0.7167    -2.0513     0.0667 C.2     
   5 N5            -0.5743    -2.1277    -0.1750 N.2     
   6 N6            -1.0680    -0.8132    -0.1769 N.pl3   
   7 C7            -2.4544    -0.3971    -0.4029 C.3     
   8 C8            -3.1967    -0.3892     0.9086 C.2     
   9 O9            -4.4916    -0.0377     0.9449 O.3     
  10 O10           -2.6261    -0.6993     1.9276 O.2     
  11 C11            1.6456    -3.2047     0.1634 C.ar    
  12 C12            1.1306     2.2084    -0.0085 C.ar    
  13 C13            1.0935     3.5846     0.0743 C.ar    
  14 C14           -0.1064     4.2345     0.3163 C.ar    
  15 C15           -1.2743     3.5060     0.4768 C.ar    
  16 C16           -1.2489     2.1298     0.3901 C.ar    
  17 C17            2.9975    -2.9923     0.4249 C.ar    
  18 C18            1.1667    -4.5024    -0.0016 C.ar    
  19 C19            2.0321    -5.5745     0.0891 C.ar    
  20 C20            3.3759    -5.3635     0.3432 C.ar    
  21 C21            3.8597    -4.0713     0.5141 C.ar    
  22 O22            5.1805    -3.8673     0.7636 O.3     
  23 F23            4.2186    -6.4158     0.4310 F       
  24 F24           -0.1375     5.5828     0.3965 F       
  25 C25            5.6081    -2.5138     0.9284 C.3     
  26 H26           -2.4677     0.6040    -0.8339 H       
  27 H27           -2.9358    -1.0943    -1.0886 H       
  28 H28           -4.9252    -0.0478     1.8091 H       
  29 H29            2.0662     1.7029    -0.1967 H       
  30 H30            2.0012     4.1568    -0.0493 H       
  31 H31           -2.2068     4.0171     0.6655 H       
  32 H32           -2.1596     1.5630     0.5149 H       
  33 H33            3.3719    -1.9880     0.5574 H       
  34 H34            0.1184    -4.6700    -0.2000 H       
  35 H35            1.6593    -6.5801    -0.0383 H       
  36 H36            5.3913    -1.9511     0.0204 H       
  37 H37            5.0786    -2.0653     1.7690 H       
  38 H38            6.6807    -2.4926     1.1216 H       
@<TRIPOS>BOND
   1    1    2 1
   2    1   12 ar
   3    1   16 ar
   4    2    3 2
   5    2    6 1
   6    3    4 1
   7    4    5 2
   8    4   11 1
   9    5    6 1
  10    6    7 1
  11    7    8 1
  12    7   26 1
  13    7   27 1
  14    8    9 1
  15    8   10 2
  16    9   28 1
  17   11   17 ar
  18   11   18 ar
  19   12   13 ar
  20   12   29 1
  21   13   14 ar
  22   13   30 1
  23   14   15 ar
  24   14   24 1
  25   15   16 ar
  26   15   31 1
  27   16   32 1
  28   17   21 ar
  29   17   33 1
  30   18   19 ar
  31   18   34 1
  32   19   20 ar
  33   19   35 1
  34   20   21 ar
  35   20   23 1
  36   21   22 1
  37   22   25 1
  38   25   36 1
  39   25   37 1
  40   25   38 1

#	End of record

