#	Name: ASD07000012
#	Creating user name:	WinNT
#	Creation time:	15. 06. 2019 21:08

#	Modifying user name:	WinNT
#	Modification time:	15. 06. 2019 21:08

#	Program:	/corina/corina34_cracker 3.40 0067  02.08.2006

@<TRIPOS>MOLECULE
ASD07000012
  39   40    0    0    0
SMALL
NO_CHARGES


@<TRIPOS>ATOM
   1 C1            -0.0167     1.3775     0.0096 C.ar    
   2 C2             0.0021    -0.0041     0.0020 C.ar    
   3 C3             1.2109    -0.6795    -0.0132 C.ar    
   4 C4             2.3993     0.0305    -0.0208 C.ar    
   5 C5             2.3781     1.4125    -0.0132 C.ar    
   6 C6             1.1709     2.0856     0.0021 C.ar    
   7 C7            -1.3320     2.1129     0.0199 C.3     
   8 O8            -1.7414     2.3380     1.3703 O.3     
   9 C9            -2.9153     2.9938     1.5573 C.ar    
  10 C10           -3.3709     3.2450     2.8459 C.ar    
  11 C11           -4.5611     3.9104     3.0401 C.ar    
  12 C12           -5.3107     4.3332     1.9390 C.ar    
  13 C13           -4.8488     4.0785     0.6449 C.ar    
  14 C14           -3.6549     3.4171     0.4597 C.ar    
  15 C15           -6.5856     5.0454     2.1421 C.2     
  16 N16           -7.2784     5.4360     1.1212 N.2     
  17 C17           -8.5451     6.1437     1.3230 C.3     
  18 C18           -8.4622     7.5307     0.6824 C.3     
  19 C19           -9.6645     5.3619     0.6851 C.2     
  20 O20           -9.4274     4.3165     0.1178 O.2     
  21 N21          -10.9290     5.8244     0.7451 N.am    
  22 F22            1.2304    -2.0304    -0.0202 F       
  23 H23           -0.9257    -0.5570     0.0083 H       
  24 H24            3.3426    -0.4952    -0.0323 H       
  25 H25            3.3051     1.9666    -0.0191 H       
  26 H26            1.1553     3.1655     0.0077 H       
  27 H27           -1.2173     3.0698    -0.4893 H       
  28 H28           -2.0859     1.5162    -0.4937 H       
  29 H29           -2.7911     2.9177     3.6962 H       
  30 H30           -4.9147     4.1049     4.0419 H       
  31 H31           -5.4253     4.4031    -0.2088 H       
  32 H32           -3.2952     3.2235    -0.5401 H       
  33 H33           -6.9414     5.2411     3.1429 H       
  34 H34           -8.7371     6.2476     2.3909 H       
  35 H35           -9.4047     8.0572     0.8326 H       
  36 H36           -7.6526     8.0962     1.1438 H       
  37 H37           -8.2702     7.4267    -0.3855 H       
  38 H38          -11.1186     6.6605     1.1988 H       
  39 H39          -11.6494     5.3212     0.3345 H       
@<TRIPOS>BOND
   1    1    2 ar
   2    1    6 ar
   3    1    7 1
   4    2    3 ar
   5    2   23 1
   6    3    4 ar
   7    3   22 1
   8    4    5 ar
   9    4   24 1
  10    5    6 ar
  11    5   25 1
  12    6   26 1
  13    7    8 1
  14    7   27 1
  15    7   28 1
  16    8    9 1
  17    9   10 ar
  18    9   14 ar
  19   10   11 ar
  20   10   29 1
  21   11   12 ar
  22   11   30 1
  23   12   13 ar
  24   12   15 1
  25   13   14 ar
  26   13   31 1
  27   14   32 1
  28   15   16 2
  29   15   33 1
  30   16   17 1
  31   17   18 1
  32   17   19 1
  33   17   34 1
  34   18   35 1
  35   18   36 1
  36   18   37 1
  37   19   20 2
  38   19   21 am
  39   21   38 1
  40   21   39 1

#	End of record

