#	Name: ASD01190052
#	Creating user name:	WinNT
#	Creation time:	15. 06. 2019 19:07

#	Modifying user name:	WinNT
#	Modification time:	15. 06. 2019 19:07

#	Program:	/corina/corina34_cracker 3.40 0067  02.08.2006

@<TRIPOS>MOLECULE
ASD01190052
  47   50    0    0    0
SMALL
NO_CHARGES


@<TRIPOS>ATOM
   1 C1             0.0836     1.4603    -0.0259 C.2     
   2 C2             0.1214    -0.0435     0.0644 C.3     
   3 N3             1.2198     2.1723     0.1104 N.am    
   4 N4             2.4920     1.6369     0.3373 N.2     
   5 C5             3.3718     2.5918     0.4199 C.2     
   6 C6             2.6732     3.8636     0.2404 C.ar    
   7 C7             3.0808     5.2007     0.2280 C.ar    
   8 C8             2.1594     6.1888     0.0295 C.ar    
   9 C9             0.8193     5.8780    -0.1600 C.ar    
  10 C10            0.3951     4.5675    -0.1517 C.ar    
  11 C11            1.3172     3.5452     0.0428 C.ar    
  12 C12            2.6008     7.6297     0.0165 C.3     
  13 C13            2.1422     8.2919    -1.2843 C.3     
  14 C14            1.9913     8.3524     1.1901 C.ar    
  15 C15            2.8009     8.8323     2.2026 C.ar    
  16 C16            2.2418     9.4951     3.2792 C.ar    
  17 C17            0.8732     9.6785     3.3430 C.ar    
  18 C18            0.0637     9.1994     2.3300 C.ar    
  19 C19            0.6232     8.5404     1.2514 C.ar    
  20 O20            4.0256     7.6923     0.1063 O.3     
  21 F21            0.7473     8.2306    -1.3722 F       
  22 F22            2.5519     9.6295    -1.2963 F       
  23 F23            2.7080     7.6210    -2.3738 F       
  24 C24           -1.2697    -0.5929    -0.1206 C.ar    
  25 C25           -1.7244    -0.9112    -1.3866 C.ar    
  26 C26           -3.0004    -1.4151    -1.5563 C.ar    
  27 C27           -3.8215    -1.6012    -0.4599 C.ar    
  28 C28           -3.3664    -1.2837     0.8062 C.ar    
  29 C29           -2.0889    -0.7839     0.9764 C.ar    
  30 O30           -0.9679     2.0293    -0.2261 O.2     
  31 H31            0.7743    -0.4380    -0.7142 H       
  32 H32            0.5019    -0.3394     1.0420 H       
  33 H33            4.4308     2.4670     0.5911 H       
  34 H34            4.1210     5.4515     0.3753 H       
  35 H35            0.1029     6.6712    -0.3149 H       
  36 H36           -0.6491     4.3348    -0.2999 H       
  37 H37            3.8702     8.6890     2.1528 H       
  38 H38            2.8743     9.8694     4.0706 H       
  39 H39            0.4363    10.1958     4.1844 H       
  40 H40           -1.0057     9.3424     2.3801 H       
  41 H41           -0.0089     8.1693     0.4582 H       
  42 H42            4.3872     7.2903     0.9080 H       
  43 H43           -1.0829    -0.7659    -2.2432 H       
  44 H44           -3.3559    -1.6632    -2.5455 H       
  45 H45           -4.8186    -1.9942    -0.5925 H       
  46 H46           -4.0081    -1.4288     1.6628 H       
  47 H47           -1.7320    -0.5393     1.9659 H       
@<TRIPOS>BOND
   1    1    2 1
   2    1    3 am
   3    1   30 2
   4    2   24 1
   5    2   31 1
   6    2   32 1
   7    3    4 1
   8    3   11 1
   9    4    5 2
  10    5    6 1
  11    5   33 1
  12    6    7 ar
  13    6   11 ar
  14    7    8 ar
  15    7   34 1
  16    8    9 ar
  17    8   12 1
  18    9   10 ar
  19    9   35 1
  20   10   11 ar
  21   10   36 1
  22   12   13 1
  23   12   14 1
  24   12   20 1
  25   13   21 1
  26   13   22 1
  27   13   23 1
  28   14   15 ar
  29   14   19 ar
  30   15   16 ar
  31   15   37 1
  32   16   17 ar
  33   16   38 1
  34   17   18 ar
  35   17   39 1
  36   18   19 ar
  37   18   40 1
  38   19   41 1
  39   20   42 1
  40   24   25 ar
  41   24   29 ar
  42   25   26 ar
  43   25   43 1
  44   26   27 ar
  45   26   44 1
  46   27   28 ar
  47   27   45 1
  48   28   29 ar
  49   28   46 1
  50   29   47 1

#	End of record

