#	Name: ASD01917846
#	Creating user name:	WinNT
#	Creation time:	15. 06. 2019 20:10

#	Modifying user name:	WinNT
#	Modification time:	15. 06. 2019 20:10

#	Program:	/corina/corina34_cracker 3.40 0067  02.08.2006

@<TRIPOS>MOLECULE
ASD01917846
  44   47    0    0    0
SMALL
NO_CHARGES


@<TRIPOS>ATOM
   1 C1            -0.0151     1.3206    -0.0006 C.2     
   2 C2            -0.0103    -0.0255     0.0080 C.2     
   3 C3            -1.2833    -0.8577     0.0242 C.3     
   4 C4            -2.4466     0.0146     0.5019 C.3     
   5 N5            -2.4117     1.2984    -0.2149 N.am    
   6 C6            -1.2563     2.1830     0.0164 C.3     
   7 C7            -3.4039     1.6536    -1.0549 C.2     
   8 O8            -4.2925     0.8655    -1.3138 O.2     
   9 S9             1.6482     1.8895    -0.0270 S.3     
  10 C10            2.2082     0.2746    -0.0195 C.2     
  11 N11            1.2121    -0.5394    -0.0006 N.2     
  12 C12            3.6581    -0.1360    -0.0335 C.3     
  13 O13            4.1001    -0.2772    -1.3850 O.3     
  14 C14            5.3942    -0.6458    -1.5756 C.ar    
  15 C15            5.8901    -0.8015    -2.8619 C.ar    
  16 C16            7.2059    -1.1763    -3.0529 C.ar    
  17 C17            8.0285    -1.3963    -1.9636 C.ar    
  18 C18            7.5365    -1.2422    -0.6806 C.ar    
  19 C19            6.2231    -0.8616    -0.4843 C.ar    
  20 C20           -3.4117     3.0010    -1.6612 C.ar    
  21 C21           -3.8864     3.1794    -2.9637 C.ar    
  22 C22           -3.8951     4.4356    -3.5329 C.ar    
  23 C23           -3.4342     5.5284    -2.8192 C.ar    
  24 C24           -2.9555     5.3627    -1.5134 C.ar    
  25 C25           -2.9511     4.0962    -0.9331 C.ar    
  26 F26           -3.4456     6.7561    -3.3830 F       
  27 C27           -2.4781     6.4928    -0.7747 C.1     
  28 N28           -2.0993     7.3893    -0.1887 N.1     
  29 H29           -1.4916    -1.2244    -0.9809 H       
  30 H30           -1.1583    -1.7017     0.7024 H       
  31 H31           -3.3899    -0.4916     0.2969 H       
  32 H32           -2.3526     0.1927     1.5731 H       
  33 H33           -1.3543     2.6747     0.9843 H       
  34 H34           -1.1975     2.9300    -0.7751 H       
  35 H35            4.2562     0.6256     0.4668 H       
  36 H36            3.7714    -1.0869     0.4871 H       
  37 H37            5.2479    -0.6301    -3.7131 H       
  38 H38            7.5924    -1.2979    -4.0541 H       
  39 H39            9.0569    -1.6892    -2.1150 H       
  40 H40            8.1808    -1.4153     0.1687 H       
  41 H41            5.8393    -0.7414     0.5180 H       
  42 H42           -4.2471     2.3310    -3.5262 H       
  43 H43           -4.2627     4.5671    -4.5398 H       
  44 H44           -2.5836     3.9622     0.0736 H       
@<TRIPOS>BOND
   1    1    2 2
   2    1    9 1
   3    1    6 1
   4    2    3 1
   5    2   11 1
   6    3    4 1
   7    3   29 1
   8    3   30 1
   9    4    5 1
  10    4   31 1
  11    4   32 1
  12    5    6 1
  13    5    7 am
  14    6   33 1
  15    6   34 1
  16    7    8 2
  17    7   20 1
  18    9   10 1
  19   10   11 2
  20   10   12 1
  21   12   13 1
  22   12   35 1
  23   12   36 1
  24   13   14 1
  25   14   15 ar
  26   14   19 ar
  27   15   16 ar
  28   15   37 1
  29   16   17 ar
  30   16   38 1
  31   17   18 ar
  32   17   39 1
  33   18   19 ar
  34   18   40 1
  35   19   41 1
  36   20   21 ar
  37   20   25 ar
  38   21   22 ar
  39   21   42 1
  40   22   23 ar
  41   22   43 1
  42   23   24 ar
  43   23   26 1
  44   24   27 1
  45   24   25 ar
  46   25   44 1
  47   27   28 3

#	End of record

