#	Name: ASD01940061
#	Creating user name:	WinNT
#	Creation time:	15. 06. 2019 20:11

#	Modifying user name:	WinNT
#	Modification time:	15. 06. 2019 20:11

#	Program:	/corina/corina34_cracker 3.40 0067  02.08.2006

@<TRIPOS>MOLECULE
ASD01940061
  35   36    0    0    0
SMALL
NO_CHARGES


@<TRIPOS>ATOM
   1 C1            -0.0154     1.3824    -0.0235 C.ar    
   2 C2            -0.0694     0.1414    -0.6440 C.ar    
   3 C3            -1.2554    -0.5666    -0.6677 C.ar    
   4 C4            -2.3888    -0.0410    -0.0744 C.ar    
   5 C5            -2.3391     1.1954     0.5449 C.ar    
   6 C6            -1.1547     1.9061     0.5772 C.ar    
   7 N7             1.1835     2.1014     0.0020 N.pl3   
   8 C8             2.3904     1.4309     0.0913 C.2     
   9 C9             3.6635     1.9754     0.0018 C.2     
  10 C10            3.9133     3.4102    -0.2114 C.2     
  11 N11            4.0217     3.9084    -1.4931 N.pl3   
  12 N12            4.0323     4.2122     0.8136 N.2     
  13 C13            4.2702     5.3365    -1.7053 C.3     
  14 I14           -4.1848    -1.1188    -0.1140 I       
  15 C15            4.9481     5.5401    -3.0618 C.3     
  16 C16            2.9415     6.0946    -1.6803 C.3     
  17 C17            4.6849     1.0332     0.1333 C.2     
  18 N18            4.3244    -0.2005     0.3177 N.2     
  19 S19            2.6310    -0.2532     0.3444 S.3     
  20 O20            5.9940     1.3899     0.0707 O.3     
  21 Cl21          -1.0928     3.4572     1.3543 Cl      
  22 H22            0.8150    -0.2699    -1.1079 H       
  23 H23           -1.2977    -1.5318    -1.1506 H       
  24 H24           -3.2259     1.6031     1.0073 H       
  25 H25            1.1691     3.0702    -0.0428 H       
  26 H26            3.9333     3.3132    -2.2539 H       
  27 H27            4.1968     5.1578     0.6731 H       
  28 H28            4.9188     5.7138    -0.9147 H       
  29 H29            4.2995     5.1627    -3.8523 H       
  30 H30            5.1330     6.6026    -3.2197 H       
  31 H31            5.8947     4.9999    -3.0796 H       
  32 H32            2.2929     5.7173    -2.4709 H       
  33 H33            2.4586     5.9496    -0.7139 H       
  34 H34            3.1264     7.1572    -1.8382 H       
  35 H35            6.3797     1.6222     0.9265 H       
@<TRIPOS>BOND
   1    1    2 ar
   2    1    7 1
   3    1    6 ar
   4    2    3 ar
   5    2   22 1
   6    3    4 ar
   7    3   23 1
   8    4    5 ar
   9    4   14 1
  10    5    6 ar
  11    5   24 1
  12    6   21 1
  13    7    8 1
  14    7   25 1
  15    8    9 2
  16    8   19 1
  17    9   10 1
  18    9   17 1
  19   10   11 1
  20   10   12 2
  21   11   13 1
  22   11   26 1
  23   12   27 1
  24   13   15 1
  25   13   16 1
  26   13   28 1
  27   15   29 1
  28   15   30 1
  29   15   31 1
  30   16   32 1
  31   16   33 1
  32   16   34 1
  33   17   18 2
  34   17   20 1
  35   18   19 1
  36   20   35 1

#	End of record

