#	Name: ASD03240204
#	Creating user name:	WinNT
#	Creation time:	15. 06. 2019 20:34

#	Modifying user name:	WinNT
#	Modification time:	15. 06. 2019 20:34

#	Program:	/corina/corina34_cracker 3.40 0067  02.08.2006

@<TRIPOS>MOLECULE
ASD03240204
  89   94    0    0    0
SMALL
NO_CHARGES


@<TRIPOS>ATOM
   1 C1             0.0759     1.5182     0.6028 C.2     
   2 N2             0.1814     0.2806     1.1924 N.pl3   
   3 C3            -2.6689     4.0238     0.1450 C.3     
   4 C4            -1.2380     3.5050    -0.0110 C.3     
   5 N5            -1.1256     2.1863     0.6173 N.pl3   
   6 N6             1.1163     2.0603     0.0349 N.2     
   7 N7            -2.7813     5.3425    -0.4833 N.pl3   
   8 C8            -3.9966     6.0183    -0.4687 C.ar    
   9 C9            -4.1018     7.2714    -1.0661 C.ar    
  10 C10           -5.3029     7.9427    -1.0534 C.ar    
  11 C11           -6.4185     7.3648    -0.4400 C.ar    
  12 C12           -6.3097     6.1061     0.1587 C.ar    
  13 C13           -5.1069     5.4378     0.1383 C.ar    
  14 C14           -7.7073     8.0818    -0.4241 C.2     
  15 N15           -8.7819     7.5234     0.1676 N.am    
  16 O16           -7.8005     9.1768    -0.9449 O.2     
  17 C17           -9.9746     8.2491     0.2818 C.ar    
  18 C18          -11.1964     7.5961     0.1862 C.ar    
  19 C19           -9.9351     9.6205     0.4963 C.ar    
  20 C20          -11.1105    10.3358     0.6093 C.ar    
  21 C21          -12.3326     9.6837     0.5080 C.ar    
  22 C22          -12.3720     8.3112     0.2987 C.ar    
  23 N23          -13.5238    10.4082     0.6229 N.pl3   
  24 C24          -14.8129     9.7203     0.5161 C.3     
  25 C25          -13.4822    11.8549     0.8501 C.3     
  26 C26          -13.4692    12.5714    -0.4756 C.ar    
  27 C27          -15.2536     9.2640     1.8830 C.ar    
  28 C28          -14.6622    12.9326    -1.0753 C.ar    
  29 C29          -14.6562    13.5890    -2.2894 C.ar    
  30 C30          -13.4454    13.8877    -2.9109 C.ar    
  31 C31          -12.2467    13.5216    -2.3023 C.ar    
  32 C32          -12.2643    12.8706    -1.0854 C.ar    
  33 C33          -16.0250    10.0978     2.6723 C.ar    
  34 C34          -16.4314     9.6849     3.9251 C.ar    
  35 C35          -16.0631     8.4257     4.3942 C.ar    
  36 C36          -15.2860     7.5899     3.5949 C.ar    
  37 C37          -14.8899     8.0107     2.3415 C.ar    
  38 C38          -13.4326    14.5929    -4.2166 C.ar    
  39 C39          -16.4967     7.9765     5.7405 C.ar    
  40 C40          -12.2219    14.8916    -4.8381 C.ar    
  41 C41          -12.2159    15.5477    -6.0524 C.ar    
  42 C42          -13.4088    15.9088    -6.6521 C.ar    
  43 C43          -14.6136    15.6151    -6.0394 C.ar    
  44 C44          -14.6315    14.9535    -4.8282 C.ar    
  45 C45          -16.1284     6.7172     6.2096 C.ar    
  46 C46          -16.5345     6.3046     7.4625 C.ar    
  47 C47          -17.3059     7.1383     8.2518 C.ar    
  48 C48          -17.6747     8.3892     7.7909 C.ar    
  49 C49          -17.2687     8.8147     6.5422 C.ar    
  50 H50            1.0301    -0.1890     1.1857 H       
  51 H51           -0.5929    -0.1228     1.6150 H       
  52 H52           -3.3606     3.3322    -0.3359 H       
  53 H53           -2.9129     4.1041     1.2043 H       
  54 H54           -0.9940     3.4248    -1.0703 H       
  55 H55           -0.5463     4.1967     0.4699 H       
  56 H56           -1.8989     1.7846     1.0434 H       
  57 H57            1.0418     2.9335    -0.3810 H       
  58 H58           -2.0081     5.7443    -0.9094 H       
  59 H59           -3.2396     7.7172    -1.5398 H       
  60 H60           -5.3837     8.9150    -1.5164 H       
  61 H61           -7.1695     5.6572     0.6336 H       
  62 H62           -5.0222     4.4655     0.6006 H       
  63 H63           -8.7293     6.6190     0.5144 H       
  64 H64          -11.2271     6.5289     0.0234 H       
  65 H65           -8.9848    10.1276     0.5751 H       
  66 H66          -11.0798    11.4022     0.7768 H       
  67 H67          -13.3223     7.8040     0.2199 H       
  68 H68          -15.5559    10.4030     0.1039 H       
  69 H69          -14.7101     8.8559    -0.1399 H       
  70 H70          -14.3610    12.1588     1.4188 H       
  71 H71          -12.5818    12.1091     1.4094 H       
  72 H72          -15.6001    12.7002    -0.5929 H       
  73 H73          -15.5882    13.8701    -2.7570 H       
  74 H74          -11.3054    13.7508    -2.7796 H       
  75 H75          -11.3357    12.5863    -0.6127 H       
  76 H76          -16.3095    11.0738     2.3078 H       
  77 H77          -17.0334    10.3369     4.5407 H       
  78 H78          -14.9978     6.6128     3.9537 H       
  79 H79          -14.2875     7.3637     1.7211 H       
  80 H80          -11.2898    14.6107    -4.3703 H       
  81 H81          -11.2780    15.7797    -6.5350 H       
  82 H82          -13.3995    16.4224    -7.6022 H       
  83 H83          -15.5421    15.8997    -6.5119 H       
  84 H84          -15.5728    14.7244    -4.3508 H       
  85 H85          -15.5267     6.0652     5.5939 H       
  86 H86          -16.2496     5.3287     7.8272 H       
  87 H87          -17.6218     6.8113     9.2314 H       
  88 H88          -18.2775     9.0361     8.4111 H       
  89 H89          -17.5569     9.7918     6.1834 H       
@<TRIPOS>BOND
   1    1    2 1
   2    1    6 2
   3    1    5 1
   4    2   50 1
   5    2   51 1
   6    3    4 1
   7    3    7 1
   8    3   52 1
   9    3   53 1
  10    4    5 1
  11    4   54 1
  12    4   55 1
  13    5   56 1
  14    6   57 1
  15    7    8 1
  16    7   58 1
  17    8    9 ar
  18    8   13 ar
  19    9   10 ar
  20    9   59 1
  21   10   11 ar
  22   10   60 1
  23   11   12 ar
  24   11   14 1
  25   12   13 ar
  26   12   61 1
  27   13   62 1
  28   14   15 am
  29   14   16 2
  30   15   17 1
  31   15   63 1
  32   17   18 ar
  33   17   19 ar
  34   18   22 ar
  35   18   64 1
  36   19   20 ar
  37   19   65 1
  38   20   21 ar
  39   20   66 1
  40   21   22 ar
  41   21   23 1
  42   22   67 1
  43   23   24 1
  44   23   25 1
  45   24   27 1
  46   24   68 1
  47   24   69 1
  48   25   26 1
  49   25   70 1
  50   25   71 1
  51   26   28 ar
  52   26   32 ar
  53   27   33 ar
  54   27   37 ar
  55   28   29 ar
  56   28   72 1
  57   29   30 ar
  58   29   73 1
  59   30   31 ar
  60   30   38 1
  61   31   32 ar
  62   31   74 1
  63   32   75 1
  64   33   34 ar
  65   33   76 1
  66   34   35 ar
  67   34   77 1
  68   35   36 ar
  69   35   39 1
  70   36   37 ar
  71   36   78 1
  72   37   79 1
  73   38   40 ar
  74   38   44 ar
  75   39   45 ar
  76   39   49 ar
  77   40   41 ar
  78   40   80 1
  79   41   42 ar
  80   41   81 1
  81   42   43 ar
  82   42   82 1
  83   43   44 ar
  84   43   83 1
  85   44   84 1
  86   45   46 ar
  87   45   85 1
  88   46   47 ar
  89   46   86 1
  90   47   48 ar
  91   47   87 1
  92   48   49 ar
  93   48   88 1
  94   49   89 1

#	End of record

