#	Name: ASD03730907
#	Creating user name:	WinNT
#	Creation time:	15. 06. 2019 20:44

#	Modifying user name:	WinNT
#	Modification time:	15. 06. 2019 20:44

#	Program:	/corina/corina34_cracker 3.40 0067  02.08.2006

@<TRIPOS>MOLECULE
ASD03730907
  65   71    0    0    0
SMALL
NO_CHARGES


@<TRIPOS>ATOM
   1 C1            -0.0191     1.4720     0.0336 C.2     
   2 C2            -0.0015    -0.0060     0.0381 C.ar    
   3 C3             1.2141    -0.6927     0.0472 C.ar    
   4 C4             1.2234    -2.0720     0.0513 C.ar    
   5 C5             0.0315    -2.7751     0.0465 C.ar    
   6 C6            -1.1764    -2.1009     0.0375 C.ar    
   7 C7            -1.2000    -0.7213     0.0392 C.ar    
   8 O8             1.0263     2.0923     0.0378 O.2     
   9 N9            -1.1942     2.1319     0.0193 N.am    
  10 C10            2.5345    -2.8149     0.0606 C.3     
  11 O11           -0.9988    -3.2727     6.3053 O.3     
  12 C12           -1.0614    -3.5158     7.7231 C.3     
  13 O13           -0.1608    -4.6216     7.9208 O.3     
  14 C14            0.7524    -4.5351     6.9092 C.ar    
  15 C15            0.2361    -3.7064     5.9157 C.ar    
  16 C16            2.0032    -5.1050     6.7536 C.ar    
  17 C17            2.7529    -4.8581     5.6074 C.ar    
  18 C18            2.2230    -4.0351     4.6182 C.ar    
  19 C19            0.9788    -3.4605     4.7731 C.ar    
  20 O20            3.9976    -5.3004     5.2677 O.3     
  21 C21            3.2414    -3.9854     3.5108 C.3     
  22 C22            4.1845    -5.1485     3.8474 C.3     
  23 N23            2.9520    -3.0516     1.4448 N.am    
  24 C24            2.6154    -4.1464     2.1555 C.2     
  25 C25            3.9667    -2.6734     3.4606 C.ar    
  26 C26            4.7261    -1.9708     4.3694 C.ar    
  27 C27            5.2791    -0.7529     4.0157 C.ar    
  28 C28            5.0667    -0.2428     2.7478 C.ar    
  29 C29            4.3060    -0.9424     1.8343 C.ar    
  30 C30            3.7458    -2.1693     2.1816 C.ar    
  31 O31            1.9397    -5.0789     1.7747 O.2     
  32 C32           -1.2149     3.5256     0.1325 C.ar    
  33 C33           -2.1865     4.2635    -0.5316 C.ar    
  34 C34           -2.2042     5.6396    -0.4177 C.ar    
  35 C35           -1.2556     6.2832     0.3561 C.ar    
  36 C36           -0.2871     5.5516     1.0184 C.ar    
  37 C37           -0.2677     4.1744     0.9137 C.ar    
  38 C38           -1.2773     7.7851     0.4773 C.3     
  39 C39           -3.2199     3.5632    -1.3758 C.3     
  40 H40            2.1450    -0.1451     0.0506 H       
  41 H41            0.0444    -3.8550     0.0494 H       
  42 H42           -2.1031    -2.6556     0.0338 H       
  43 H43           -2.1437    -0.1961     0.0370 H       
  44 H44           -2.0255     1.6401    -0.0696 H       
  45 H45            2.4147    -3.7698    -0.4511 H       
  46 H46            3.2922    -2.2212    -0.4509 H       
  47 H47           -0.7210    -2.6409     8.2770 H       
  48 H48           -2.0739    -3.7886     8.0205 H       
  49 H49            2.4006    -5.7459     7.5267 H       
  50 H50            0.5826    -2.8175     4.0012 H       
  51 H51            5.2178    -4.8876     3.6186 H       
  52 H52            3.8866    -6.0539     3.3187 H       
  53 H53            4.8905    -2.3709     5.3590 H       
  54 H54            5.8755    -0.2020     4.7278 H       
  55 H55            5.4983     0.7080     2.4717 H       
  56 H56            4.1441    -0.5373     0.8463 H       
  57 H57           -2.9593     6.2139    -0.9338 H       
  58 H58            0.4524     6.0572     1.6216 H       
  59 H59            0.4861     3.6032     1.4352 H       
  60 H60           -1.8994     8.0723     1.3250 H       
  61 H61           -0.2624     8.1520     0.6307 H       
  62 H62           -1.6858     8.2175    -0.4361 H       
  63 H63           -4.0861     3.3184    -0.7610 H       
  64 H64           -3.5267     4.2176    -2.1917 H       
  65 H65           -2.7943     2.6470    -1.7853 H       
@<TRIPOS>BOND
   1    1    2 1
   2    1    8 2
   3    1    9 am
   4    2    3 ar
   5    2    7 ar
   6    3    4 ar
   7    3   40 1
   8    4    5 ar
   9    4   10 1
  10    5    6 ar
  11    5   41 1
  12    6    7 ar
  13    6   42 1
  14    7   43 1
  15    9   32 1
  16    9   44 1
  17   10   23 1
  18   10   45 1
  19   10   46 1
  20   11   12 1
  21   11   15 1
  22   12   13 1
  23   12   47 1
  24   12   48 1
  25   13   14 1
  26   14   15 ar
  27   14   16 ar
  28   15   19 ar
  29   16   17 ar
  30   16   49 1
  31   17   18 ar
  32   17   20 1
  33   18   19 ar
  34   18   21 1
  35   19   50 1
  36   20   22 1
  37   21   22 1
  38   21   24 1
  39   21   25 1
  40   22   51 1
  41   22   52 1
  42   23   24 am
  43   23   30 1
  44   24   31 2
  45   25   26 ar
  46   25   30 ar
  47   26   27 ar
  48   26   53 1
  49   27   28 ar
  50   27   54 1
  51   28   29 ar
  52   28   55 1
  53   29   30 ar
  54   29   56 1
  55   32   33 ar
  56   32   37 ar
  57   33   34 ar
  58   33   39 1
  59   34   35 ar
  60   34   57 1
  61   35   36 ar
  62   35   38 1
  63   36   37 ar
  64   36   58 1
  65   37   59 1
  66   38   60 1
  67   38   61 1
  68   38   62 1
  69   39   63 1
  70   39   64 1
  71   39   65 1

#	End of record

