#	Name: ASD03331522
#	Creating user name:	WinNT
#	Creation time:	15. 06. 2019 20:39

#	Modifying user name:	WinNT
#	Modification time:	15. 06. 2019 20:39

#	Program:	/corina/corina34_cracker 3.40 0067  02.08.2006

@<TRIPOS>MOLECULE
ASD03331522
  69   71    0    0    0
SMALL
NO_CHARGES


@<TRIPOS>ATOM
   1 C1             0.0225     1.9619    -0.6117 C.ar    
   2 C2            -0.0769     0.4866    -0.5621 C.2     
   3 N3            -1.1280    -0.2238    -0.0596 N.pl3   
   4 C4            -0.8233    -1.5389    -0.1815 C.2     
   5 C5             0.3981    -1.6178    -0.7758 C.2     
   6 N6             0.8285    -0.3567    -0.9993 N.2     
   7 C7             1.1194    -2.8562    -1.1191 C.2     
   8 N8             2.3295    -2.7898    -1.7088 N.am    
   9 C9            -1.1272     2.7454    -0.5082 C.ar    
  10 O10            0.6227    -3.9381    -0.8703 O.2     
  11 C11            3.0465    -4.0209    -2.0502 C.3     
  12 C12           -1.0277     4.1208    -0.5547 C.ar    
  13 C13            0.2087     4.7231    -0.7040 C.ar    
  14 C14            1.3526     3.9518    -0.8071 C.ar    
  15 C15            1.2671     2.5756    -0.7563 C.ar    
  16 C16           -2.3714     0.3169     0.4966 C.3     
  17 C17           -2.9474    -0.6782     1.5071 C.3     
  18 N18           -3.8373    -1.6250     0.8262 N.3     
  19 C19           -3.1317    -2.4202    -0.1806 C.3     
  20 C20           -1.6942    -2.6767     0.2829 C.3     
  21 C21            2.5722    -4.5259    -3.4143 C.3     
  22 N22            5.4084    -4.7305    -1.8583 N.am    
  23 C23            4.5264    -3.7416    -2.1047 C.2     
  24 C24            6.8443    -4.4877    -2.0172 C.3     
  25 O25            4.9237    -2.6269    -2.3703 O.2     
  26 C26            2.7431    -3.4182    -4.4558 C.3     
  27 C27            3.4025    -5.7438    -3.8242 C.3     
  28 C28            1.0966    -4.9206    -3.3271 C.3     
  29 C29           -4.5245    -2.4906     1.7939 C.3     
  30 C30           -5.6512    -1.7064     2.4695 C.3     
  31 C31           -6.7125    -1.3406     1.4298 C.3     
  32 C32           -6.2854    -2.5661     3.5648 C.3     
  33 H33            2.7256    -1.9269    -1.9073 H       
  34 H34           -2.0931     2.2763    -0.3924 H       
  35 H35            2.8476    -4.7791    -1.2928 H       
  36 H36           -1.9170     4.7284    -0.4747 H       
  37 H37            0.2813     5.8001    -0.7405 H       
  38 H38            2.3149     4.4280    -0.9238 H       
  39 H39            2.1607     1.9746    -0.8365 H       
  40 H40           -2.1655     1.2640     0.9952 H       
  41 H41           -3.0903     0.4767    -0.3070 H       
  42 H42           -2.1324    -1.2247     1.9815 H       
  43 H43           -3.5092    -0.1367     2.2681 H       
  44 H44           -3.6449    -3.3722    -0.3162 H       
  45 H45           -3.1170    -1.8782    -1.1262 H       
  46 H46           -1.3334    -3.6115    -0.1463 H       
  47 H47           -1.6665    -2.7374     1.3708 H       
  48 H48            5.0923    -5.6030    -1.5759 H       
  49 H49            7.0524    -4.2000    -3.0478 H       
  50 H50            7.1536    -3.6859    -1.3467 H       
  51 H51            7.3954    -5.3965    -1.7753 H       
  52 H52            3.7944    -3.1370    -4.5179 H       
  53 H53            2.4052    -3.7779    -5.4276 H       
  54 H54            2.1516    -2.5505    -4.1638 H       
  55 H55            3.2298    -6.5557    -3.1178 H       
  56 H56            3.1093    -6.0636    -4.8241 H       
  57 H57            4.4601    -5.4797    -3.8227 H       
  58 H58            0.5050    -4.0529    -3.0351 H       
  59 H59            0.7586    -5.2803    -4.2989 H       
  60 H60            0.9748    -5.7097    -2.5851 H       
  61 H61           -4.9424    -3.3541     1.2763 H       
  62 H62           -3.8138    -2.8282     2.5482 H       
  63 H63           -5.2461    -0.7959     2.9111 H       
  64 H64           -7.1785    -2.2501     1.0507 H       
  65 H65           -7.4712    -0.7090     1.8919 H       
  66 H66           -6.2438    -0.8019     0.6062 H       
  67 H67           -5.5293    -2.8267     4.3054 H       
  68 H68           -7.0881    -2.0074     4.0461 H       
  69 H69           -6.6905    -3.4766     3.1232 H       
@<TRIPOS>BOND
   1    1    2 1
   2    1    9 ar
   3    1   15 ar
   4    2    3 1
   5    2    6 2
   6    3    4 1
   7    3   16 1
   8    4    5 2
   9    4   20 1
  10    5    6 1
  11    5    7 1
  12    7    8 am
  13    7   10 2
  14    8   11 1
  15    8   33 1
  16    9   12 ar
  17    9   34 1
  18   11   21 1
  19   11   23 1
  20   11   35 1
  21   12   13 ar
  22   12   36 1
  23   13   14 ar
  24   13   37 1
  25   14   15 ar
  26   14   38 1
  27   15   39 1
  28   16   17 1
  29   16   40 1
  30   16   41 1
  31   17   18 1
  32   17   42 1
  33   17   43 1
  34   18   19 1
  35   18   29 1
  36   19   20 1
  37   19   44 1
  38   19   45 1
  39   20   46 1
  40   20   47 1
  41   21   26 1
  42   21   27 1
  43   21   28 1
  44   22   23 am
  45   22   24 1
  46   22   48 1
  47   23   25 2
  48   24   49 1
  49   24   50 1
  50   24   51 1
  51   26   52 1
  52   26   53 1
  53   26   54 1
  54   27   55 1
  55   27   56 1
  56   27   57 1
  57   28   58 1
  58   28   59 1
  59   28   60 1
  60   29   30 1
  61   29   61 1
  62   29   62 1
  63   30   31 1
  64   30   32 1
  65   30   63 1
  66   31   64 1
  67   31   65 1
  68   31   66 1
  69   32   67 1
  70   32   68 1
  71   32   69 1

#	End of record

