#	Name: ASD05730083
#	Creating user name:	WinNT
#	Creation time:	15. 06. 2019 21:02

#	Modifying user name:	WinNT
#	Modification time:	15. 06. 2019 21:02

#	Program:	/corina/corina34_cracker 3.40 0067  02.08.2006

@<TRIPOS>MOLECULE
ASD05730083
  79   84    0    0    0
SMALL
NO_CHARGES


@<TRIPOS>ATOM
   1 C1             0.0282     1.5030     0.0341 C.3     
   2 C2             0.0363    -0.0039     0.0195 C.ar    
   3 C3            -1.0077    -0.7050     0.5948 C.ar    
   4 C4            -1.0034    -2.0859     0.5831 C.ar    
   5 C5             0.0509    -2.7707    -0.0078 C.ar    
   6 C6             1.0976    -2.0634    -0.5851 C.ar    
   7 C7             1.0848    -0.6824    -0.5743 C.ar    
   8 N8             0.0586    -4.1686    -0.0209 N.pl3   
   9 C9             0.5902    -4.8464    -1.1011 C.ar    
  10 N10            0.6883    -6.1656    -1.0409 N.ar    
  11 C11            1.1940    -6.8519    -2.0594 C.ar    
  12 C12            1.6239    -6.1473    -3.2049 C.ar    
  13 C13            1.4987    -4.7499    -3.2195 C.ar    
  14 N14            0.9794    -4.1512    -2.1642 N.ar    
  15 N15            1.2998    -8.2187    -2.0054 N.am    
  16 C16            1.8143    -8.9095    -3.0410 C.2     
  17 C17            2.2694    -8.2094    -4.2440 C.2     
  18 C18            2.1666    -6.8456    -4.3075 C.2     
  19 C19            0.8490    -8.9341    -0.8091 C.3     
  20 C20           -0.2668    -9.9273    -1.1780 C.3     
  21 O21            1.9018   -10.1228    -2.9763 O.2     
  22 C22            2.8352    -8.9702    -5.3826 C.ar    
  23 C23            2.0321    -9.8554    -6.1012 C.ar    
  24 C24            4.6926    -9.5112    -6.8048 C.ar    
  25 C25            3.8924   -10.3920    -7.5102 C.ar    
  26 C26            2.5647   -10.5611    -7.1605 C.ar    
  27 C27            4.1714    -8.7998    -5.7435 C.ar    
  28 C28            1.2824     2.0373     0.7502 C.3     
  29 N29            2.0503     2.8179    -0.2441 N.3     
  30 C30            1.0597     3.2766    -1.2513 C.3     
  31 C31            0.1207     2.0541    -1.4074 C.3     
  32 C32            2.7241     3.9593     0.3893 C.3     
  33 C33            2.0071    -9.7694    -0.2251 C.3     
  34 C34            1.3241   -11.0645     0.2802 C.3     
  35 C35            0.2521   -11.3315    -0.8053 C.3     
  36 S36            4.5653   -11.2968    -8.8643 S.o2    
  37 C37            5.1988   -12.8240    -8.1180 C.3     
  38 C38            5.8159   -13.7053    -9.2058 C.3     
  39 O39            6.3150   -14.9084    -8.6179 O.3     
  40 C40            6.9153   -15.8068    -9.5531 C.3     
  41 O41            3.4441   -11.5742    -9.6921 O.2     
  42 O42            5.6366   -10.4872    -9.3290 O.2     
  43 H43           -0.8730     1.8712     0.5243 H       
  44 H44           -1.8271    -0.1720     1.0540 H       
  45 H45           -1.8186    -2.6329     1.0332 H       
  46 H46            1.9188    -2.5928    -1.0454 H       
  47 H47            1.8984    -0.1319    -1.0230 H       
  48 H48           -0.3094    -4.6627     0.7284 H       
  49 H49            1.8166    -4.1768    -4.0780 H       
  50 H50            2.4965    -6.3113    -5.1862 H       
  51 H51            0.4867    -8.2251    -0.0647 H       
  52 H52           -1.1704    -9.7009    -0.6121 H       
  53 H53           -0.4730    -9.8771    -2.2472 H       
  54 H54            0.9955    -9.9884    -5.8288 H       
  55 H55            5.7285    -9.3836    -7.0822 H       
  56 H56            1.9438   -11.2472    -7.7176 H       
  57 H57            4.7969    -8.1121    -5.1937 H       
  58 H58            0.9903     2.6795     1.5811 H       
  59 H59            1.8848     1.2052     1.1145 H       
  60 H60            0.5077     4.1410    -0.8822 H       
  61 H61            1.5509     3.5075    -2.1966 H       
  62 H62            0.5596     1.3135    -2.0760 H       
  63 H63           -0.8608     2.3648    -1.7653 H       
  64 H64            3.4104     3.5970     1.1548 H       
  65 H65            3.2813     4.5161    -0.3641 H       
  66 H66            1.9807     4.6117     0.8473 H       
  67 H67            2.7386   -10.0009    -0.9992 H       
  68 H68            2.4801    -9.2399     0.6020 H       
  69 H69            2.0396   -11.8855     0.3268 H       
  70 H70            0.8578   -10.9014     1.2518 H       
  71 H71           -0.5557   -11.9420    -0.4017 H       
  72 H72            0.7002   -11.8153    -1.6732 H       
  73 H73            5.9581   -12.5778    -7.3757 H       
  74 H74            4.3806   -13.3599    -7.6369 H       
  75 H75            5.0567   -13.9515    -9.9481 H       
  76 H76            6.6341   -13.1694    -9.6868 H       
  77 H77            7.7563   -15.3144   -10.0414 H       
  78 H78            7.2686   -16.6946    -9.0286 H       
  79 H79            6.1789   -16.0965   -10.3026 H       
@<TRIPOS>BOND
   1    1    2 1
   2    1   28 1
   3    1   31 1
   4    1   43 1
   5    2    3 ar
   6    2    7 ar
   7    3    4 ar
   8    3   44 1
   9    4    5 ar
  10    4   45 1
  11    5    6 ar
  12    5    8 1
  13    6    7 ar
  14    6   46 1
  15    7   47 1
  16    8    9 1
  17    8   48 1
  18    9   10 ar
  19    9   14 ar
  20   10   11 ar
  21   11   12 ar
  22   11   15 1
  23   12   13 ar
  24   12   18 1
  25   13   14 ar
  26   13   49 1
  27   15   16 am
  28   15   19 1
  29   16   17 1
  30   16   21 2
  31   17   18 2
  32   17   22 1
  33   18   50 1
  34   19   20 1
  35   19   33 1
  36   19   51 1
  37   20   35 1
  38   20   52 1
  39   20   53 1
  40   22   27 ar
  41   22   23 ar
  42   23   26 ar
  43   23   54 1
  44   24   25 ar
  45   24   27 ar
  46   24   55 1
  47   25   26 ar
  48   25   36 1
  49   26   56 1
  50   27   57 1
  51   28   29 1
  52   28   58 1
  53   28   59 1
  54   29   30 1
  55   29   32 1
  56   30   31 1
  57   30   60 1
  58   30   61 1
  59   31   62 1
  60   31   63 1
  61   32   64 1
  62   32   65 1
  63   32   66 1
  64   33   34 1
  65   33   67 1
  66   33   68 1
  67   34   35 1
  68   34   69 1
  69   34   70 1
  70   35   71 1
  71   35   72 1
  72   36   37 1
  73   36   41 2
  74   36   42 2
  75   37   38 1
  76   37   73 1
  77   37   74 1
  78   38   39 1
  79   38   75 1
  80   38   76 1
  81   39   40 1
  82   40   77 1
  83   40   78 1
  84   40   79 1

#	End of record

