#	Name: ASD01908330
#	Creating user name:	WinNT
#	Creation time:	15. 06. 2019 19:54

#	Modifying user name:	WinNT
#	Modification time:	15. 06. 2019 19:54

#	Program:	/corina/corina34_cracker 3.40 0067  02.08.2006

@<TRIPOS>MOLECULE
ASD01908330
  41   44    0    0    0
SMALL
NO_CHARGES


@<TRIPOS>ATOM
   1 C1            -0.0673     1.3613    -0.2361 C.2     
   2 O2             0.0260     0.1609    -0.0755 O.2     
   3 C3             1.1506     2.1843    -0.3761 C.ar    
   4 C4             2.4099     1.6131    -0.1790 C.ar    
   5 C5             3.5433     2.3878    -0.3113 C.ar    
   6 C6             3.4350     3.7280    -0.6385 C.ar    
   7 C7             2.1906     4.3006    -0.8348 C.ar    
   8 C8             1.0490     3.5363    -0.7118 C.ar    
   9 N9            -1.2826     1.9412    -0.2922 N.am    
  10 N10           -1.5352     3.3165    -0.3663 N.2     
  11 C11           -2.8264     3.5012    -0.4044 C.2     
  12 C12           -3.4566     2.2388    -0.3556 C.2     
  13 C13           -2.4787     1.2923    -0.2926 C.2     
  14 S14           -7.3143     2.2520    -0.4435 S.3     
  15 N15           -5.7765     2.9748    -0.4446 N.2     
  16 C16           -4.9192     1.9879    -0.3759 C.2     
  17 N17           -5.4042     0.7614    -0.3256 N.2     
  18 C18           -6.7131     0.6405    -0.3493 C.2     
  19 N19           -7.4498    -0.5303    -0.3075 N.pl3   
  20 C20           -8.8437    -0.4761    -0.2182 C.ar    
  21 C21           -9.6196    -1.4413    -0.8475 C.ar    
  22 C22          -10.9965    -1.3848    -0.7573 C.ar    
  23 C23          -11.6030    -0.3685    -0.0419 C.ar    
  24 C24          -10.8335     0.5942     0.5854 C.ar    
  25 C25           -9.4559     0.5398     0.5047 C.ar    
  26 C26           -3.5253     4.8338    -0.4859 C.3     
  27 H27            2.4958     0.5673     0.0768 H       
  28 H28            4.5176     1.9476    -0.1588 H       
  29 H29            4.3258     4.3300    -0.7408 H       
  30 H30            2.1133     5.3473    -1.0896 H       
  31 H31            0.0787     3.9832    -0.8704 H       
  32 H32           -2.6258     0.2233    -0.2482 H       
  33 H33           -6.9989    -1.3885    -0.3403 H       
  34 H34           -9.1466    -2.2348    -1.4070 H       
  35 H35          -11.6003    -2.1349    -1.2463 H       
  36 H36          -12.6800    -0.3264     0.0268 H       
  37 H37          -11.3104     1.3870     1.1427 H       
  38 H38           -8.8555     1.2893     0.9989 H       
  39 H39           -3.6712     5.1042    -1.5317 H       
  40 H40           -4.4934     4.7674     0.0106 H       
  41 H41           -2.9168     5.5938     0.0044 H       
@<TRIPOS>BOND
   1    1    2 2
   2    1    3 1
   3    1    9 am
   4    3    4 ar
   5    3    8 ar
   6    4    5 ar
   7    4   27 1
   8    5    6 ar
   9    5   28 1
  10    6    7 ar
  11    6   29 1
  12    7    8 ar
  13    7   30 1
  14    8   31 1
  15    9   10 1
  16    9   13 1
  17   10   11 2
  18   11   12 1
  19   11   26 1
  20   12   13 2
  21   12   16 1
  22   13   32 1
  23   14   15 1
  24   14   18 1
  25   15   16 2
  26   16   17 1
  27   17   18 2
  28   18   19 1
  29   19   20 1
  30   19   33 1
  31   20   21 ar
  32   20   25 ar
  33   21   22 ar
  34   21   34 1
  35   22   23 ar
  36   22   35 1
  37   23   24 ar
  38   23   36 1
  39   24   25 ar
  40   24   37 1
  41   25   38 1
  42   26   39 1
  43   26   40 1
  44   26   41 1

#	End of record

