#	Name: ASD03092030
#	Creating user name:	WinNT
#	Creation time:	15. 06. 2019 20:31

#	Modifying user name:	WinNT
#	Modification time:	15. 06. 2019 20:31

#	Program:	/corina/corina34_cracker 3.40 0067  02.08.2006

@<TRIPOS>MOLECULE
ASD03092030
  49   51    0    0    0
SMALL
NO_CHARGES


@<TRIPOS>ATOM
   1 N1             0.2744     0.9194    -0.3884 N.pl3   
   2 C2             0.0752    -0.3380     0.0988 C.2     
   3 C3            -1.2662    -0.4892     0.3049 C.2     
   4 C4            -1.8940     0.7066    -0.0668 C.2     
   5 N5            -0.9736     1.5491    -0.4753 N.2     
   6 C6             1.5655     1.5095    -0.7507 C.3     
   7 C7             1.8107     1.3151    -2.2248 C.2     
   8 N8            -3.2693     0.9621    -0.0072 N.pl3   
   9 C9            -3.7561     2.2406    -0.2970 C.ar    
  10 C10           -5.0345     2.3967    -0.8168 C.ar    
  11 C11           -5.5134     3.6606    -1.1017 C.ar    
  12 C12           -4.7201     4.7713    -0.8696 C.ar    
  13 C13           -3.4450     4.6180    -0.3513 C.ar    
  14 C14           -2.9639     3.3569    -0.0600 C.ar    
  15 C15            1.1207    -1.3532     0.3562 C.ar    
  16 C16            2.3546    -1.2852    -0.2993 C.ar    
  17 C17            3.2986    -2.2592    -0.0235 C.ar    
  18 C18            2.9949    -3.2589     0.8825 C.ar    
  19 N19            1.8223    -3.2976     1.4859 N.ar    
  20 C20            0.8943    -2.3907     1.2609 C.ar    
  21 N21            2.9442     1.7801    -2.7865 N.am    
  22 O22            0.9881     0.7402    -2.9057 O.2     
  23 C23            3.1826     1.5910    -4.2195 C.3     
  24 C24            4.0197    -4.3215     1.1852 C.3     
  25 F25           -5.1904     6.0064    -1.1495 F       
  26 C26            3.9378     2.4745    -1.9640 C.3     
  27 C27           -6.9003     3.8306    -1.6662 C.3     
  28 F28           -7.5017     2.5759    -1.8117 F       
  29 F29           -7.6646     4.6161    -0.7967 F       
  30 F30           -6.8221     4.4578    -2.9143 F       
  31 H31           -1.7557    -1.3733     0.6860 H       
  32 H32            1.5550     2.5751    -0.5215 H       
  33 H33            2.3591     1.0236    -0.1831 H       
  34 H34           -3.8844     0.2523     0.2350 H       
  35 H35           -5.6535     1.5305    -0.9983 H       
  36 H36           -2.8277     5.4858    -0.1714 H       
  37 H37           -1.9696     3.2379     0.3445 H       
  38 H38            2.5651    -0.4933    -1.0028 H       
  39 H39            4.2621    -2.2389    -0.5111 H       
  40 H40           -0.0537    -2.4560     1.7742 H       
  41 H41            2.7774     2.4399    -4.7703 H       
  42 H42            4.2545     1.5171    -4.4029 H       
  43 H43            2.6932     0.6754    -4.5516 H       
  44 H44            4.6407    -3.9997     2.0212 H       
  45 H45            3.5134    -5.2510     1.4453 H       
  46 H46            4.6463    -4.4823     0.3079 H       
  47 H47            4.2886     1.8069    -1.1769 H       
  48 H48            4.7798     2.7749    -2.5876 H       
  49 H49            3.4844     3.3584    -1.5153 H       
@<TRIPOS>BOND
   1    1    2 1
   2    1    6 1
   3    1    5 1
   4    2    3 2
   5    2   15 1
   6    3    4 1
   7    3   31 1
   8    4    5 2
   9    4    8 1
  10    6    7 1
  11    6   32 1
  12    6   33 1
  13    7   21 am
  14    7   22 2
  15    8    9 1
  16    8   34 1
  17    9   10 ar
  18    9   14 ar
  19   10   11 ar
  20   10   35 1
  21   11   12 ar
  22   11   27 1
  23   12   13 ar
  24   12   25 1
  25   13   14 ar
  26   13   36 1
  27   14   37 1
  28   15   16 ar
  29   15   20 ar
  30   16   17 ar
  31   16   38 1
  32   17   18 ar
  33   17   39 1
  34   18   19 ar
  35   18   24 1
  36   19   20 ar
  37   20   40 1
  38   21   23 1
  39   21   26 1
  40   23   41 1
  41   23   42 1
  42   23   43 1
  43   24   44 1
  44   24   45 1
  45   24   46 1
  46   26   47 1
  47   26   48 1
  48   26   49 1
  49   27   28 1
  50   27   29 1
  51   27   30 1

#	End of record

