#	Name: ASD01900166
#	Creating user name:	WinNT
#	Creation time:	15. 06. 2019 19:51

#	Modifying user name:	WinNT
#	Modification time:	15. 06. 2019 19:51

#	Program:	/corina/corina34_cracker 3.40 0067  02.08.2006

@<TRIPOS>MOLECULE
ASD01900166
  46   49    0    0    0
SMALL
NO_CHARGES


@<TRIPOS>ATOM
   1 C1             0.0849     1.6365     2.1236 C.ar    
   2 C2            -1.1778     2.1976     2.0209 C.ar    
   3 C3            -1.3004     3.5424     1.7073 C.ar    
   4 C4            -0.1461     4.2823     1.5064 C.ar    
   5 C5             1.0909     3.6522     1.6259 C.ar    
   6 N6             1.1644     2.3619     1.9278 N.ar    
   7 C7             2.3343     4.4290     1.4142 C.2     
   8 N8             3.5338     3.8252     1.5283 N.am    
   9 O9             2.2728     5.6109     1.1375 O.2     
  10 C10            4.7040     4.5299     1.2230 C.ar    
  11 C11            4.8171     5.8704     1.5677 C.ar    
  12 C12            5.9722     6.5657     1.2667 C.ar    
  13 C13            7.0207     5.9231     0.6190 C.ar    
  14 C14            6.9067     4.5825     0.2747 C.ar    
  15 C15            5.7543     3.8868     0.5804 C.ar    
  16 N16            8.1917     6.6274     0.3133 N.am    
  17 C17            9.3665     5.9735     0.2200 C.2     
  18 O18            9.3981     4.7617     0.3242 O.2     
  19 Cl19           6.1140     8.2416     1.6968 Cl      
  20 N20           10.6902     8.0760    -0.2819 N.pl3   
  21 C21           10.6098     6.7245    -0.0075 C.2     
  22 C22           11.8631     6.2000     0.0192 C.2     
  23 C23           12.7754     7.2496    -0.2466 C.ar    
  24 C24           14.1717     7.3089    -0.3454 C.ar    
  25 C25           14.7827     8.4974    -0.6206 C.ar    
  26 C26           14.0330     9.6526    -0.8044 C.ar    
  27 C27           12.6597     9.6202    -0.7119 C.ar    
  28 C28           12.0131     8.4193    -0.4324 C.ar    
  29 C29            9.5527     8.9916    -0.3995 C.3     
  30 H30            0.1841     0.5901     2.3721 H       
  31 H31           -2.0579     1.5931     2.1832 H       
  32 H32           -2.2735     4.0029     1.6212 H       
  33 H33           -0.2044     5.3322     1.2603 H       
  34 H34            3.5861     2.9022     1.8221 H       
  35 H35            4.0019     6.3694     2.0707 H       
  36 H36            7.7212     4.0832    -0.2289 H       
  37 H37            5.6661     2.8442     0.3128 H       
  38 H38            8.1573     7.5859     0.1686 H       
  39 H39           12.1176     5.1678     0.2095 H       
  40 H40           14.7629     6.4162    -0.2038 H       
  41 H41           15.8592     8.5406    -0.6960 H       
  42 H42           14.5324    10.5852    -1.0216 H       
  43 H43           12.0858    10.5236    -0.8556 H       
  44 H44            9.1625     9.2157     0.5933 H       
  45 H45            9.8776     9.9150    -0.8790 H       
  46 H46            8.7717     8.5256    -1.0002 H       
@<TRIPOS>BOND
   1    1    2 ar
   2    1    6 ar
   3    1   30 1
   4    2    3 ar
   5    2   31 1
   6    3    4 ar
   7    3   32 1
   8    4    5 ar
   9    4   33 1
  10    5    6 ar
  11    5    7 1
  12    7    8 am
  13    7    9 2
  14    8   10 1
  15    8   34 1
  16   10   11 ar
  17   10   15 ar
  18   11   12 ar
  19   11   35 1
  20   12   13 ar
  21   12   19 1
  22   13   14 ar
  23   13   16 1
  24   14   15 ar
  25   14   36 1
  26   15   37 1
  27   16   17 am
  28   16   38 1
  29   17   18 2
  30   17   21 1
  31   20   21 1
  32   20   28 1
  33   20   29 1
  34   21   22 2
  35   22   23 1
  36   22   39 1
  37   23   24 ar
  38   23   28 ar
  39   24   25 ar
  40   24   40 1
  41   25   26 ar
  42   25   41 1
  43   26   27 ar
  44   26   42 1
  45   27   28 ar
  46   27   43 1
  47   29   44 1
  48   29   45 1
  49   29   46 1

#	End of record

