#	Name: ASD01840239
#	Creating user name:	WinNT
#	Creation time:	15. 06. 2019 19:37

#	Modifying user name:	WinNT
#	Modification time:	15. 06. 2019 19:37

#	Program:	/corina/corina34_cracker 3.40 0067  02.08.2006

@<TRIPOS>MOLECULE
ASD01840239
  52   55    0    0    0
SMALL
NO_CHARGES


@<TRIPOS>ATOM
   1 C1            -2.0565     1.3087    -0.0830 C.3     
   2 C2            -1.4327    -0.0632    -0.0890 C.ar    
   3 C3            -1.3096    -0.7500    -1.2856 C.ar    
   4 C4            -0.7381    -2.0050    -1.2888 C.ar    
   5 C5            -0.5890    -2.7784    -2.5736 C.3     
   6 C6            -0.2955    -2.5500    -0.0656 C.ar    
   7 C7            -0.4532    -1.7989     1.0974 C.ar    
   8 N8            -1.0100    -0.5853     1.0395 N.ar    
   9 S9             0.1704    -2.6849     2.4815 S.3     
  10 C10            0.6413    -4.0612     1.4965 C.2     
  11 C11            1.2413    -5.3425     1.5977 C.2     
  12 N12            1.7007    -5.9404     2.7780 N.pl3   
  13 C13            2.3027    -7.2754     2.7367 C.3     
  14 C14            3.8248    -7.2763     2.9667 C.3     
  15 N15            3.5072    -7.4388     4.3988 N.am    
  16 C16            2.2017    -8.0422     4.0677 C.3     
  17 C17            4.1508    -7.1514     5.5475 C.2     
  18 O18            5.2522    -6.6391     5.5151 O.2     
  19 O19            3.5735    -7.4321     6.7310 O.3     
  20 C20            4.3245    -7.0953     7.9272 C.3     
  21 C21            4.5989    -5.5903     7.9502 C.3     
  22 C22            3.5139    -7.4849     9.1649 C.3     
  23 C23            5.6521    -7.8558     7.9268 C.3     
  24 N24            1.2926    -5.8713     0.4032 N.2     
  25 N25            0.7383    -4.9746    -0.5143 N.pl3   
  26 C26            0.6059    -5.1886    -1.9575 C.3     
  27 C27            0.3361    -3.8493     0.1830 C.2     
  28 H28           -1.2819     2.0607    -0.2331 H       
  29 H29           -2.7903     1.3777    -0.8860 H       
  30 H30           -2.5484     1.4799     0.8745 H       
  31 H31           -1.6581    -0.3072    -2.2069 H       
  32 H32            0.4234    -2.6533    -2.9575 H       
  33 H33           -0.7784    -3.8352    -2.3856 H       
  34 H34           -1.3043    -2.4059    -3.3070 H       
  35 H35            1.6204    -5.4705     3.6228 H       
  36 H36            1.9877    -7.8569     1.8702 H       
  37 H37            4.3347    -8.1349     2.5297 H       
  38 H38            4.3058    -6.3277     2.7283 H       
  39 H39            1.3868    -7.7051     4.7083 H       
  40 H40            2.2348    -9.1258     3.9540 H       
  41 H41            3.6531    -5.0485     7.9505 H       
  42 H42            5.1627    -5.3375     8.8482 H       
  43 H43            5.1764    -5.3127     7.0684 H       
  44 H44            3.3184    -8.5571     9.1485 H       
  45 H45            4.0777    -7.2321    10.0629 H       
  46 H46            2.5681    -6.9431     9.1652 H       
  47 H47            6.2296    -7.5782     7.0450 H       
  48 H48            6.2159    -7.6030     8.8248 H       
  49 H49            5.4566    -8.9280     7.9104 H       
  50 H50           -0.4029    -5.5348    -2.1824 H       
  51 H51            0.7940    -4.2520    -2.4824 H       
  52 H52            1.3279    -5.9381    -2.2815 H       
@<TRIPOS>BOND
   1    1    2 1
   2    1   28 1
   3    1   29 1
   4    1   30 1
   5    2    8 ar
   6    2    3 ar
   7    3    4 ar
   8    3   31 1
   9    4    5 1
  10    4    6 ar
  11    5   32 1
  12    5   33 1
  13    5   34 1
  14    6   27 1
  15    6    7 ar
  16    7    8 ar
  17    7    9 1
  18    9   10 1
  19   10   27 2
  20   10   11 1
  21   11   12 1
  22   11   24 2
  23   12   13 1
  24   12   35 1
  25   13   16 1
  26   13   14 1
  27   13   36 1
  28   14   15 1
  29   14   37 1
  30   14   38 1
  31   15   16 1
  32   15   17 am
  33   16   39 1
  34   16   40 1
  35   17   18 2
  36   17   19 1
  37   19   20 1
  38   20   21 1
  39   20   22 1
  40   20   23 1
  41   21   41 1
  42   21   42 1
  43   21   43 1
  44   22   44 1
  45   22   45 1
  46   22   46 1
  47   23   47 1
  48   23   48 1
  49   23   49 1
  50   24   25 1
  51   25   26 1
  52   25   27 1
  53   26   50 1
  54   26   51 1
  55   26   52 1

#	End of record

