#	Name: ASD03731682
#	Creating user name:	WinNT
#	Creation time:	15. 06. 2019 20:46

#	Modifying user name:	WinNT
#	Modification time:	15. 06. 2019 20:46

#	Program:	/corina/corina34_cracker 3.40 0067  02.08.2006

@<TRIPOS>MOLECULE
ASD03731682
  33   34    0    0    0
SMALL
NO_CHARGES


@<TRIPOS>ATOM
   1 C1            -0.4038     1.1045    -1.9610 C.2     
   2 C2            -0.2822    -0.2735    -1.4506 C.ar    
   3 C3             0.9017    -0.9937    -1.6490 C.ar    
   4 C4             1.0107    -2.2834    -1.1693 C.ar    
   5 C5            -0.0518    -2.8661    -0.4915 C.ar    
   6 C6            -1.2312    -2.1530    -0.2921 C.ar    
   7 C7            -1.3469    -0.8627    -0.7620 C.ar    
   8 O8             0.5251     1.6170    -2.5553 O.2     
   9 N9            -1.5466     1.7941    -1.7737 N.am    
  10 S10           -1.6832     3.3417    -2.3470 S.o2    
  11 O11           -2.9855     3.7488    -1.9499 O.2     
  12 O12           -0.5264     4.0021    -1.8521 O.2     
  13 C13           -1.5934     3.1660    -4.1502 C.3     
  14 F14           -2.2617    -2.7251     0.3681 F       
  15 F15            1.9356    -0.4276    -2.3092 F       
  16 O16            0.0593    -4.1350    -0.0222 O.3     
  17 C17            1.2618    -4.7566    -0.1420 C.ar    
  18 C18            2.2128    -4.6281     0.8600 C.ar    
  19 C19            3.4359    -5.2621     0.7360 C.ar    
  20 C20            3.7104    -6.0248    -0.3884 C.ar    
  21 C21            2.7625    -6.1524    -1.3874 C.ar    
  22 C22            1.5376    -5.5249    -1.2638 C.ar    
  23 F23            4.3631    -5.1376     1.7107 F       
  24 Cl24           5.2457    -6.8201    -0.5432 Cl      
  25 H25            1.9235    -2.8402    -1.3217 H       
  26 H26           -2.2604    -0.3092    -0.6028 H       
  27 H27           -2.2890     1.3838    -1.3032 H       
  28 H28           -2.4097     2.5310    -4.4945 H       
  29 H29           -1.6761     4.1482    -4.6155 H       
  30 H30           -0.6405     2.7132    -4.4242 H       
  31 H31            1.9985    -4.0335     1.7357 H       
  32 H32            2.9782    -6.7467    -2.2630 H       
  33 H33            0.7964    -5.6292    -2.0424 H       
@<TRIPOS>BOND
   1    1    2 1
   2    1    8 2
   3    1    9 am
   4    2    3 ar
   5    2    7 ar
   6    3    4 ar
   7    3   15 1
   8    4    5 ar
   9    4   25 1
  10    5    6 ar
  11    5   16 1
  12    6    7 ar
  13    6   14 1
  14    7   26 1
  15    9   10 am
  16    9   27 1
  17   10   11 2
  18   10   12 2
  19   10   13 1
  20   13   28 1
  21   13   29 1
  22   13   30 1
  23   16   17 1
  24   17   18 ar
  25   17   22 ar
  26   18   19 ar
  27   18   31 1
  28   19   20 ar
  29   19   23 1
  30   20   21 ar
  31   20   24 1
  32   21   22 ar
  33   21   32 1
  34   22   33 1

#	End of record

