#	Name: ASD00311190
#	Creating user name:	WinNT
#	Creation time:	15. 06. 2019 18:34

#	Modifying user name:	WinNT
#	Modification time:	15. 06. 2019 18:34

#	Program:	/corina/corina34_cracker 3.40 0067  02.08.2006

@<TRIPOS>MOLECULE
ASD00311190
  43   46    0    0    0
SMALL
NO_CHARGES


@<TRIPOS>ATOM
   1 C1            -0.0167     1.3777     0.0096 C.2     
   2 C2             0.0021    -0.0041     0.0020 C.2     
   3 C3             1.2585    -0.6766    -0.0131 C.2     
   4 C4             2.4315     0.0673    -0.0199 C.2     
   5 C5             2.3576     1.4750    -0.0117 C.2     
   6 N6             1.1650     2.0903     0.0022 N.am    
   7 C7            -1.3434    -0.5753     0.0118 C.2     
   8 C8            -2.3231     0.3266     0.0260 C.2     
   9 S9            -1.6792     1.9565     0.0358 S.3     
  10 O10            3.3825     2.1371    -0.0175 O.2     
  11 C11            3.7475    -0.6122    -0.0352 C.ar    
  12 C12            4.5937    -0.4749    -1.1354 C.ar    
  13 C13            5.8185    -1.1103    -1.1437 C.ar    
  14 C14            6.2075    -1.8827    -0.0639 C.ar    
  15 C15            5.3726    -2.0228     1.0303 C.ar    
  16 C16            4.1481    -1.3872     1.0530 C.ar    
  17 C17           -1.5961    -2.0354     0.0056 C.ar    
  18 C18           -1.7278    -2.7207    -1.2071 C.ar    
  19 C19           -1.9638    -4.0849    -1.2035 C.ar    
  20 C20           -2.0688    -4.7670    -0.0049 C.ar    
  21 C21           -1.9392    -4.0926     1.1958 C.ar    
  22 C22           -1.6980    -2.7332     1.2071 C.ar    
  23 C23           -2.3263    -6.2518    -0.0071 C.3     
  24 C24           -2.1068    -4.8274    -2.5071 C.3     
  25 O25           -1.6248    -2.0496    -2.3843 O.3     
  26 O26            1.3084    -2.0292    -0.0204 O.3     
  27 Cl27          -4.0152    -0.0612     0.0395 Cl      
  28 H28            1.1329     3.0598     0.0073 H       
  29 H29            4.2908     0.1273    -1.9792 H       
  30 H30            6.4746    -1.0047    -1.9950 H       
  31 H31            7.1668    -2.3787    -0.0753 H       
  32 H32            5.6817    -2.6274     1.8701 H       
  33 H33            3.4992    -1.4933     1.9098 H       
  34 H34           -2.0228    -4.6321     2.1277 H       
  35 H35           -1.5928    -2.2105     2.1464 H       
  36 H36           -1.3758    -6.7854    -0.0187 H       
  37 H37           -2.8853    -6.5250     0.8879 H       
  38 H38           -2.9039    -6.5192    -0.8920 H       
  39 H39           -1.1287    -5.1816    -2.8327 H       
  40 H40           -2.7740    -5.6783    -2.3692 H       
  41 H41           -2.5212    -4.1594    -3.2621 H       
  42 H42           -0.7245    -2.0056    -2.7346 H       
  43 H43            2.2056    -2.3896    -0.0306 H       
@<TRIPOS>BOND
   1    1    2 2
   2    1    6 1
   3    1    9 1
   4    2    3 1
   5    2    7 1
   6    3    4 2
   7    3   26 1
   8    4    5 1
   9    4   11 1
  10    5    6 am
  11    5   10 2
  12    6   28 1
  13    7    8 2
  14    7   17 1
  15    8    9 1
  16    8   27 1
  17   11   12 ar
  18   11   16 ar
  19   12   13 ar
  20   12   29 1
  21   13   14 ar
  22   13   30 1
  23   14   15 ar
  24   14   31 1
  25   15   16 ar
  26   15   32 1
  27   16   33 1
  28   17   18 ar
  29   17   22 ar
  30   18   19 ar
  31   18   25 1
  32   19   20 ar
  33   19   24 1
  34   20   21 ar
  35   20   23 1
  36   21   22 ar
  37   21   34 1
  38   22   35 1
  39   23   36 1
  40   23   37 1
  41   23   38 1
  42   24   39 1
  43   24   40 1
  44   24   41 1
  45   25   42 1
  46   26   43 1

#	End of record

