#	Name: ASD00844870
#	Creating user name:	WinNT
#	Creation time:	15. 06. 2019 18:51

#	Modifying user name:	WinNT
#	Modification time:	15. 06. 2019 18:51

#	Program:	/corina/corina34_cracker 3.40 0067  02.08.2006

@<TRIPOS>MOLECULE
ASD00844870
  93   98    0    0    0
SMALL
NO_CHARGES


@<TRIPOS>ATOM
   1 F1             5.7038    -2.1783    -1.9823 F       
   2 C2             0.7605     1.2747    -0.4533 C.ar    
   3 C3             1.0016    -0.0681    -0.7040 C.ar    
   4 C4             0.8704    -0.9968     0.3185 C.ar    
   5 C5             0.5001    -0.5824     1.5830 C.ar    
   6 C6             0.2599     0.7568     1.8303 C.ar    
   7 C7             0.3904     1.6842     0.8133 C.ar    
   8 C8             1.1310    -2.4565     0.0495 C.3     
   9 C9             0.7954    -3.2885     1.2687 C.2     
  10 C10            0.3236    -2.9296    -1.1609 C.3     
  11 C11           -1.1362    -2.6274    -0.9401 C.2     
  12 N12           -2.0540    -3.0480    -1.8330 N.am    
  13 O13           -1.4852    -2.0059     0.0412 O.2     
  14 C14           -3.4652    -2.6635    -1.6935 C.3     
  15 C15           -4.3255    -3.9310    -1.7098 C.3     
  16 C16           -4.0155    -4.7369    -2.9734 C.3     
  17 C17           -2.5427    -5.1527    -2.9668 C.3     
  18 C18           -1.6613    -3.8945    -2.9678 C.3     
  19 N19           -4.8626    -5.9365    -3.0089 N.3     
  20 C20           -4.6782    -6.6744    -4.2662 C.3     
  21 C21           -5.5154    -7.9551    -4.2305 C.3     
  22 N22           -6.9291    -7.6077    -4.0297 N.3     
  23 C23           -7.1136    -6.8697    -2.7723 C.3     
  24 C24           -6.2763    -5.5890    -2.8080 C.3     
  25 C25           -7.7762    -8.8073    -4.0652 C.3     
  26 O26           -0.2928    -3.3878     1.7952 O.2     
  27 N27            1.9282    -3.8966     1.6582 N.am    
  28 C28            2.6075    -2.6996    -0.1675 C.ar    
  29 C29            3.0112    -3.5730     0.8372 C.ar    
  30 C30            3.5013    -2.2338    -1.1064 C.ar    
  31 C31            4.8257    -2.6332    -1.0619 C.ar    
  32 C32            5.2496    -3.5109    -0.0589 C.ar    
  33 C33            4.3394    -3.9790     0.8884 C.ar    
  34 C34            1.7002    -6.5432     2.3780 C.ar    
  35 C35            0.4471    -6.8590     1.8728 C.ar    
  36 C36            2.6924    -7.5044     2.4187 C.ar    
  37 C37            2.4395    -8.7815     1.9563 C.ar    
  38 C38            1.1876    -9.1023     1.4500 C.ar    
  39 C39            0.1907    -8.1401     1.4085 C.ar    
  40 O40            0.9394   -10.3588     0.9957 O.3     
  41 O41           -0.5283    -5.9135     1.8334 O.3     
  42 C42           -1.7938    -6.3088     1.3004 C.3     
  43 C43            2.0129   -11.2992     1.0693 C.3     
  44 S44            2.0290    -4.9135     2.9614 S.o2    
  45 O45            3.3884    -4.9020     3.3750 O.2     
  46 O46            0.9518    -4.5705     3.8223 O.2     
  47 O47            1.3653    -0.4735    -1.9491 O.3     
  48 C48            1.3998     0.5239    -2.9718 C.3     
  49 C49            1.9116    -0.0973    -4.2730 C.3     
  50 F50            3.1621    -0.6834    -4.0496 F       
  51 F51            1.0101    -1.0739    -4.7097 F       
  52 C52            6.6180    -3.9295    -0.0052 C.1     
  53 N53            7.7035    -4.2616     0.0375 N.1     
  54 H54            0.8663     2.0000    -1.2464 H       
  55 H55            0.3978    -1.3049     2.3792 H       
  56 H56           -0.0302     1.0788     2.8195 H       
  57 H57            0.2022     2.7295     1.0089 H       
  58 H58            0.6708    -2.4109    -2.0545 H       
  59 H59            0.4569    -4.0037    -1.2893 H       
  60 H60           -3.6088    -2.1366    -0.7502 H       
  61 H61           -3.7515    -2.0169    -2.5229 H       
  62 H62           -4.1016    -4.5340    -0.8297 H       
  63 H63           -5.3799    -3.6551    -1.7038 H       
  64 H64           -4.2161    -4.1248    -3.8527 H       
  65 H65           -2.3357    -5.7442    -2.0749 H       
  66 H66           -2.3283    -5.7464    -3.8554 H       
  67 H67           -1.8018    -3.3507    -3.9020 H       
  68 H68           -0.6149    -4.1813    -2.8634 H       
  69 H69           -4.9989    -6.0535    -5.1027 H       
  70 H70           -3.6257    -6.9312    -4.3861 H       
  71 H71           -5.4028    -8.4897    -5.1738 H       
  72 H72           -5.1765    -8.5884    -3.4106 H       
  73 H73           -8.1661    -6.6129    -2.6524 H       
  74 H74           -6.7929    -7.4906    -1.9358 H       
  75 H75           -6.3890    -5.0545    -1.8648 H       
  76 H76           -6.6152    -4.9558    -3.6279 H       
  77 H77           -7.4691    -9.4925    -3.2751 H       
  78 H78           -8.8172    -8.5216    -3.9140 H       
  79 H79           -7.6710    -9.2979    -5.0328 H       
  80 H80            3.1681    -1.5562    -1.8785 H       
  81 H81            4.6671    -4.6568     1.6627 H       
  82 H82            3.6671    -7.2567     2.8123 H       
  83 H83            3.2167    -9.5307     1.9885 H       
  84 H84           -0.7841    -8.3879     1.0152 H       
  85 H85           -1.6664    -6.6412     0.2702 H       
  86 H86           -2.2008    -7.1247     1.8978 H       
  87 H87           -2.4797    -5.4620     1.3268 H       
  88 H88            2.8551   -10.9359     0.4805 H       
  89 H89            2.3205   -11.4187     2.1081 H       
  90 H90            1.6817   -12.2601     0.6755 H       
  91 H91            0.3960     0.9190    -3.1281 H       
  92 H92            2.0653     1.3323    -2.6687 H       
  93 H93            2.0043     0.6778    -5.0338 H       
@<TRIPOS>BOND
   1    1   31 1
   2    2    3 ar
   3    2    7 ar
   4    2   54 1
   5    3    4 ar
   6    3   47 1
   7    4    5 ar
   8    4    8 1
   9    5    6 ar
  10    5   55 1
  11    6    7 ar
  12    6   56 1
  13    7   57 1
  14    8    9 1
  15    8   10 1
  16    8   28 1
  17    9   26 2
  18    9   27 am
  19   10   11 1
  20   10   58 1
  21   10   59 1
  22   11   12 am
  23   11   13 2
  24   12   14 1
  25   12   18 1
  26   14   15 1
  27   14   60 1
  28   14   61 1
  29   15   16 1
  30   15   62 1
  31   15   63 1
  32   16   17 1
  33   16   19 1
  34   16   64 1
  35   17   18 1
  36   17   65 1
  37   17   66 1
  38   18   67 1
  39   18   68 1
  40   19   20 1
  41   19   24 1
  42   20   21 1
  43   20   69 1
  44   20   70 1
  45   21   22 1
  46   21   71 1
  47   21   72 1
  48   22   23 1
  49   22   25 1
  50   23   24 1
  51   23   73 1
  52   23   74 1
  53   24   75 1
  54   24   76 1
  55   25   77 1
  56   25   78 1
  57   25   79 1
  58   27   44 am
  59   27   29 1
  60   28   29 ar
  61   28   30 ar
  62   29   33 ar
  63   30   31 ar
  64   30   80 1
  65   31   32 ar
  66   32   33 ar
  67   32   52 1
  68   33   81 1
  69   34   35 ar
  70   34   36 ar
  71   34   44 1
  72   35   41 1
  73   35   39 ar
  74   36   37 ar
  75   36   82 1
  76   37   38 ar
  77   37   83 1
  78   38   39 ar
  79   38   40 1
  80   39   84 1
  81   40   43 1
  82   41   42 1
  83   42   85 1
  84   42   86 1
  85   42   87 1
  86   43   88 1
  87   43   89 1
  88   43   90 1
  89   44   45 2
  90   44   46 2
  91   47   48 1
  92   48   49 1
  93   48   91 1
  94   48   92 1
  95   49   50 1
  96   49   51 1
  97   49   93 1
  98   52   53 3

#	End of record

