#	Name: ASD09740253
#	Creating user name:	WinNT
#	Creation time:	15. 06. 2019 21:23

#	Modifying user name:	WinNT
#	Modification time:	15. 06. 2019 21:23

#	Program:	/corina/corina34_cracker 3.40 0067  02.08.2006

@<TRIPOS>MOLECULE
ASD09740253
  44   46    0    0    0
SMALL
NO_CHARGES


@<TRIPOS>ATOM
   1 N1            -0.0144     1.2085     0.0087 N.2     
   2 O2             0.0021    -0.0041     0.0020 O.3     
   3 C3             1.2060     1.6802    -0.0004 C.2     
   4 N4             2.0461     0.6244    -0.0141 N.2     
   5 C5             1.2702    -0.4440    -0.0125 C.2     
   6 C6             1.7127    -1.8530    -0.0242 C.ar    
   7 C7             1.5947     3.1129     0.0031 C.ar    
   8 C8             3.0750    -2.1582    -0.0389 C.ar    
   9 C9             3.4867    -3.4742    -0.0504 C.ar    
  10 C10            2.5497    -4.4974    -0.0475 C.ar    
  11 C11            1.1881    -4.1996    -0.0324 C.ar    
  12 C12            0.7691    -2.8832    -0.0150 C.ar    
  13 C13            0.6150     4.1027     0.0178 C.ar    
  14 C14            0.9824     5.4344     0.0216 C.ar    
  15 C15            2.3211     5.7850     0.0102 C.ar    
  16 C16            3.2974     4.8053    -0.0049 C.ar    
  17 C17            2.9411     3.4720    -0.0024 C.ar    
  18 C18           -0.8430     3.7218     0.0292 C.3     
  19 Br19          -0.3459     6.7801     0.0415 Br      
  20 O20            0.2721    -5.2049    -0.0295 O.3     
  21 C21           -1.9794    -6.0830    -0.0129 C.3     
  22 C22           -1.1059    -4.8268    -0.0138 C.3     
  23 O23            2.9603    -5.7925    -0.0597 O.3     
  24 C24            4.6372    -7.5326    -0.0875 C.3     
  25 C25            4.3700    -6.0261    -0.0753 C.3     
  26 H26            3.8064    -1.3636    -0.0416 H       
  27 H27            4.5408    -3.7090    -0.0621 H       
  28 H28           -0.2855    -2.6510    -0.0030 H       
  29 H29            2.6044     6.8271     0.0128 H       
  30 H30            4.3407     5.0842    -0.0140 H       
  31 H31            3.7045     2.7081    -0.0142 H       
  32 H32           -1.1850     3.6241     1.0595 H       
  33 H33           -1.4242     4.4939    -0.4749 H       
  34 H34           -0.9744     2.7718    -0.4889 H       
  35 H35           -1.7736    -6.6693    -0.9085 H       
  36 H36           -1.7563    -6.6800     0.8714 H       
  37 H37           -3.0305    -5.7947    -0.0009 H       
  38 H38           -1.3117    -4.2406     0.8818 H       
  39 H39           -1.3290    -4.2298    -0.8981 H       
  40 H40            4.2037    -7.9857     0.8040 H       
  41 H41            4.1858    -7.9745    -0.9758 H       
  42 H42            5.7125    -7.7107    -0.0994 H       
  43 H43            4.8035    -5.5730    -0.9669 H       
  44 H44            4.8213    -5.5842     0.8130 H       
@<TRIPOS>BOND
   1    1    2 1
   2    1    3 2
   3    2    5 1
   4    3    4 1
   5    3    7 1
   6    4    5 2
   7    5    6 1
   8    6    8 ar
   9    6   12 ar
  10    7   13 ar
  11    7   17 ar
  12    8    9 ar
  13    8   26 1
  14    9   10 ar
  15    9   27 1
  16   10   11 ar
  17   10   23 1
  18   11   12 ar
  19   11   20 1
  20   12   28 1
  21   13   14 ar
  22   13   18 1
  23   14   15 ar
  24   14   19 1
  25   15   16 ar
  26   15   29 1
  27   16   17 ar
  28   16   30 1
  29   17   31 1
  30   18   32 1
  31   18   33 1
  32   18   34 1
  33   20   22 1
  34   21   22 1
  35   21   35 1
  36   21   36 1
  37   21   37 1
  38   22   38 1
  39   22   39 1
  40   23   25 1
  41   24   25 1
  42   24   40 1
  43   24   41 1
  44   24   42 1
  45   25   43 1
  46   25   44 1

#	End of record

