#	Name: ASD03730298
#	Creating user name:	WinNT
#	Creation time:	15. 06. 2019 20:44

#	Modifying user name:	WinNT
#	Modification time:	15. 06. 2019 20:44

#	Program:	/corina/corina34_cracker 3.40 0067  02.08.2006

@<TRIPOS>MOLECULE
ASD03730298
  61   66    0    0    0
SMALL
NO_CHARGES


@<TRIPOS>ATOM
   1 O1            -0.4707     1.1429     1.3312 O.3     
   2 C2            -0.4027    -0.2935     1.4059 C.3     
   3 O3             0.6748    -0.6320     0.5130 O.3     
   4 C4             1.4961     0.4588     0.5018 C.ar    
   5 C5             0.7903     1.5506     1.0026 C.ar    
   6 C6             2.8110     0.6108     0.1002 C.ar    
   7 C7             3.4367     1.8505     0.1890 C.ar    
   8 C8             2.7177     2.9365     0.6790 C.ar    
   9 C9             1.4087     2.7867     1.0870 C.ar    
  10 O10            4.7138     2.2073    -0.1298 O.3     
  11 C11            3.6416     4.1236     0.6212 C.3     
  12 C12            4.7839     3.6381    -0.2816 C.3     
  13 N13            3.0743     6.3053     0.9976 N.am    
  14 C14            2.9664     5.3426     0.0606 C.2     
  15 C15            4.1346     4.5317     1.9773 C.ar    
  16 C16            4.8287     3.8743     2.9835 C.ar    
  17 C17            5.1480     4.5493     4.1610 C.ar    
  18 C18            4.7710     5.8686     4.3170 C.ar    
  19 C19            4.0809     6.5219     3.3164 C.ar    
  20 C20            3.7553     5.8601     2.1338 C.ar    
  21 O21            2.4301     5.4414    -1.0227 O.2     
  22 C22            2.5397     7.6605     0.8432 C.3     
  23 C23            1.1047     7.7060     1.3720 C.3     
  24 C24            0.5463     9.1213     1.2107 C.3     
  25 C25           -0.8887     9.1667     1.7395 C.3     
  26 C26           -1.4470    10.5821     1.5782 C.3     
  27 C27            5.2294     2.4563     2.8067 C.ar    
  28 C28            6.1272     2.1045     1.8008 C.ar    
  29 C29            6.4993     0.7828     1.6386 C.ar    
  30 C30            5.9811    -0.1926     2.4737 C.ar    
  31 C31            5.0868     0.1518     3.4770 C.ar    
  32 C32            4.7137     1.4751     3.6493 C.ar    
  33 O33            4.5801    -0.8086     4.2943 O.3     
  34 C34            5.0119    -2.1510     4.0632 C.3     
  35 F35            7.3698     0.4423     0.6632 F       
  36 H36           -0.1730    -0.6137     2.4221 H       
  37 H37           -1.3371    -0.7393     1.0649 H       
  38 H38            3.3558    -0.2387    -0.2845 H       
  39 H39            0.8646     3.6359     1.4733 H       
  40 H40            5.7432     4.0182     0.0695 H       
  41 H41            4.6078     3.9266    -1.3179 H       
  42 H42            5.6874     4.0426     4.9475 H       
  43 H43            5.0177     6.3926     5.2286 H       
  44 H44            3.7913     7.5537     3.4505 H       
  45 H45            3.1567     8.3609     1.4061 H       
  46 H46            2.5472     7.9361    -0.2114 H       
  47 H47            0.4877     7.0056     0.8091 H       
  48 H48            1.0972     7.4304     2.4265 H       
  49 H49            1.1633     9.8217     1.7736 H       
  50 H50            0.5538     9.3968     0.1561 H       
  51 H51           -1.5057     8.4664     1.1766 H       
  52 H52           -0.8962     8.8912     2.7941 H       
  53 H53           -2.4694    10.6144     1.9549 H       
  54 H54           -0.8300    11.2824     2.1411 H       
  55 H55           -1.4396    10.8576     0.5236 H       
  56 H56            6.5320     2.8637     1.1480 H       
  57 H57            6.2735    -1.2241     2.3436 H       
  58 H58            4.0208     1.7443     4.4327 H       
  59 H59            4.5334    -2.8155     4.7827 H       
  60 H60            4.7373    -2.4520     3.0522 H       
  61 H61            6.0942    -2.2095     4.1784 H       
@<TRIPOS>BOND
   1    1    2 1
   2    1    5 1
   3    2    3 1
   4    2   36 1
   5    2   37 1
   6    3    4 1
   7    4    5 ar
   8    4    6 ar
   9    5    9 ar
  10    6    7 ar
  11    6   38 1
  12    7    8 ar
  13    7   10 1
  14    8    9 ar
  15    8   11 1
  16    9   39 1
  17   10   12 1
  18   11   12 1
  19   11   14 1
  20   11   15 1
  21   12   40 1
  22   12   41 1
  23   13   14 am
  24   13   20 1
  25   13   22 1
  26   14   21 2
  27   15   16 ar
  28   15   20 ar
  29   16   17 ar
  30   16   27 1
  31   17   18 ar
  32   17   42 1
  33   18   19 ar
  34   18   43 1
  35   19   20 ar
  36   19   44 1
  37   22   23 1
  38   22   45 1
  39   22   46 1
  40   23   24 1
  41   23   47 1
  42   23   48 1
  43   24   25 1
  44   24   49 1
  45   24   50 1
  46   25   26 1
  47   25   51 1
  48   25   52 1
  49   26   53 1
  50   26   54 1
  51   26   55 1
  52   27   28 ar
  53   27   32 ar
  54   28   29 ar
  55   28   56 1
  56   29   30 ar
  57   29   35 1
  58   30   31 ar
  59   30   57 1
  60   31   32 ar
  61   31   33 1
  62   32   58 1
  63   33   34 1
  64   34   59 1
  65   34   60 1
  66   34   61 1

#	End of record

