#	Name: ASD01870032
#	Creating user name:	WinNT
#	Creation time:	15. 06. 2019 19:38

#	Modifying user name:	WinNT
#	Modification time:	15. 06. 2019 19:38

#	Program:	/corina/corina34_cracker 3.40 0067  02.08.2006

@<TRIPOS>MOLECULE
ASD01870032
  37   40    0    0    0
SMALL
NO_CHARGES


@<TRIPOS>ATOM
   1 C1             0.0116     1.2651    -0.3708 C.ar    
   2 C2            -0.0277     0.1142     0.3926 C.ar    
   3 N3             1.0646    -0.3883     0.9234 N.ar    
   4 C4             2.2671     0.1763     0.7590 C.ar    
   5 C5             2.3941     1.3372     0.0040 C.ar    
   6 C6             1.2286     1.8993    -0.5792 C.ar    
   7 S7             3.8350    -0.3263     1.3745 S.3     
   8 C8             4.6626     1.0231     0.6176 C.2     
   9 C9             3.7755     1.8203    -0.0741 C.2     
  10 C10            6.0379     1.3781     0.6242 C.2     
  11 N11            6.4263     2.4813    -0.0457 N.am    
  12 C12            5.5079     3.2307    -0.7110 C.2     
  13 N13            4.2487     2.9182    -0.7249 N.2     
  14 N14            1.3041     3.0564    -1.3413 N.3     
  15 C15            7.7761     2.8557    -0.0561 C.ar    
  16 O16            6.8524     0.6975     1.2255 O.2     
  17 C17            0.8283     2.8171    -2.7104 C.3     
  18 C18            0.5586     4.1529    -0.7090 C.3     
  19 C19            8.6216     2.3822    -1.0506 C.ar    
  20 C20            9.9518     2.7532    -1.0588 C.ar    
  21 C21           10.4424     3.5962    -0.0770 C.ar    
  22 C22            9.6018     4.0695     0.9152 C.ar    
  23 C23            8.2696     3.7057     0.9249 C.ar    
  24 Cl24          12.1152     4.0602    -0.0898 Cl      
  25 H25           -0.8936     1.6643    -0.8041 H       
  26 H26           -0.9733    -0.3814     0.5564 H       
  27 H27            5.8357     4.1116    -1.2428 H       
  28 H28           -0.2094     2.4848    -2.6814 H       
  29 H29            0.8983     3.7401    -3.2859 H       
  30 H30            1.4429     2.0488    -3.1795 H       
  31 H31            0.9771     4.3558     0.2768 H       
  32 H32            0.6343     5.0476    -1.3270 H       
  33 H33           -0.4889     3.8690    -0.6076 H       
  34 H34            8.2394     1.7240    -1.8168 H       
  35 H35           10.6099     2.3848    -1.8319 H       
  36 H36            9.9870     4.7273     1.6803 H       
  37 H37            7.6140     4.0753     1.6995 H       
@<TRIPOS>BOND
   1    1    2 ar
   2    1    6 ar
   3    1   25 1
   4    2    3 ar
   5    2   26 1
   6    3    4 ar
   7    4    5 ar
   8    4    7 1
   9    5    6 ar
  10    5    9 1
  11    6   14 1
  12    7    8 1
  13    8    9 2
  14    8   10 1
  15    9   13 1
  16   10   11 am
  17   10   16 2
  18   11   12 1
  19   11   15 1
  20   12   13 2
  21   12   27 1
  22   14   17 1
  23   14   18 1
  24   15   19 ar
  25   15   23 ar
  26   17   28 1
  27   17   29 1
  28   17   30 1
  29   18   31 1
  30   18   32 1
  31   18   33 1
  32   19   20 ar
  33   19   34 1
  34   20   21 ar
  35   20   35 1
  36   21   22 ar
  37   21   24 1
  38   22   23 ar
  39   22   36 1
  40   23   37 1

#	End of record

