#	Name: ASD01814269
#	Creating user name:	WinNT
#	Creation time:	15. 06. 2019 19:32

#	Modifying user name:	WinNT
#	Modification time:	15. 06. 2019 19:32

#	Program:	/corina/corina34_cracker 3.40 0067  02.08.2006

@<TRIPOS>MOLECULE
ASD01814269
  40   43    0    0    0
SMALL
NO_CHARGES


@<TRIPOS>ATOM
   1 C1            -0.0168     1.3869     0.0097 C.ar    
   2 C2             0.0021    -0.0041     0.0020 C.ar    
   3 C3             1.1801    -0.6897    -0.0129 C.ar    
   4 C4             2.3948     0.0129    -0.0207 C.ar    
   5 C5             2.3717     1.4290    -0.0129 C.ar    
   6 C6             1.1455     2.1015     0.0024 C.ar    
   7 C7             3.6293    -0.6694    -0.0365 C.ar    
   8 C8             4.8031     0.0063    -0.0446 C.ar    
   9 C9             4.8359     1.4095    -0.0374 C.ar    
  10 C10            3.6406     2.1511    -0.0211 C.ar    
  11 C11            6.1026     2.1526    -0.0470 C.2     
  12 N12            6.0328     3.5041    -0.0399 N.am    
  13 C13            4.8302     4.1313    -0.0241 C.2     
  14 N14            3.6961     3.4935    -0.0158 N.2     
  15 C15            3.6424    -2.1763    -0.0442 C.3     
  16 C16            3.5087    -2.6726    -1.4608 C.ar    
  17 C17            4.6398    -2.8889    -2.2260 C.ar    
  18 C18            4.5199    -3.3439    -3.5249 C.ar    
  19 C19            3.2632    -3.5837    -4.0613 C.ar    
  20 C20            2.1298    -3.3658    -3.2915 C.ar    
  21 C21            2.2553    -2.9162    -1.9913 C.ar    
  22 O22            7.1745     1.5748    -0.0604 O.2     
  23 O23            3.1425    -4.0308    -5.3390 O.3     
  24 C24            1.8178    -4.2562    -5.8251 C.3     
  25 H25           -0.9630     1.9076     0.0169 H       
  26 H26           -0.9305    -0.5488     0.0083 H       
  27 H27            1.1786    -1.7697    -0.0183 H       
  28 H28            1.1188     3.1811     0.0081 H       
  29 H29            5.7317    -0.5451    -0.0563 H       
  30 H30            6.8490     4.0282    -0.0459 H       
  31 H31            4.8132     5.2111    -0.0182 H       
  32 H32            4.5813    -2.5336     0.3789 H       
  33 H33            2.8098    -2.5499     0.5518 H       
  34 H34            5.6179    -2.7018    -1.8080 H       
  35 H35            5.4037    -3.5124    -4.1223 H       
  36 H36            1.1503    -3.5517    -3.7069 H       
  37 H37            1.3733    -2.7468    -1.3915 H       
  38 H38            1.3257    -5.0054    -5.2049 H       
  39 H39            1.2532    -3.3246    -5.7863 H       
  40 H40            1.8640    -4.6104    -6.8549 H       
@<TRIPOS>BOND
   1    1    2 ar
   2    1    6 ar
   3    1   25 1
   4    2    3 ar
   5    2   26 1
   6    3    4 ar
   7    3   27 1
   8    4    5 ar
   9    4    7 ar
  10    5    6 ar
  11    5   10 ar
  12    6   28 1
  13    7    8 ar
  14    7   15 1
  15    8    9 ar
  16    8   29 1
  17    9   10 ar
  18    9   11 1
  19   10   14 1
  20   11   12 am
  21   11   22 2
  22   12   13 1
  23   12   30 1
  24   13   14 2
  25   13   31 1
  26   15   16 1
  27   15   32 1
  28   15   33 1
  29   16   17 ar
  30   16   21 ar
  31   17   18 ar
  32   17   34 1
  33   18   19 ar
  34   18   35 1
  35   19   20 ar
  36   19   23 1
  37   20   21 ar
  38   20   36 1
  39   21   37 1
  40   23   24 1
  41   24   38 1
  42   24   39 1
  43   24   40 1

#	End of record

