#	Name: ASD01915075
#	Creating user name:	WinNT
#	Creation time:	15. 06. 2019 20:04

#	Modifying user name:	WinNT
#	Modification time:	15. 06. 2019 20:04

#	Program:	/corina/corina34_cracker 3.40 0067  02.08.2006

@<TRIPOS>MOLECULE
ASD01915075
  38   41    0    0    0
SMALL
NO_CHARGES


@<TRIPOS>ATOM
   1 C1            -0.0168     1.3911     0.0097 C.ar    
   2 C2             0.0021    -0.0041     0.0020 C.ar    
   3 N3            -1.1446    -0.6906     0.0093 N.ar    
   4 C4            -2.3162    -0.0900     0.0237 C.ar    
   5 C5            -2.4074     1.2999     0.0316 C.ar    
   6 C6            -1.2659     2.0489     0.0306 C.ar    
   7 C7             1.3293     1.9572    -0.0001 C.2     
   8 C8             2.3061     1.0538    -0.0143 C.2     
   9 S9             1.6657    -0.5775    -0.0169 S.3     
  10 C10            1.5862     3.4168     0.0048 C.ar    
  11 C11            1.2162     4.1887     1.1056 C.ar    
  12 S12            4.0235     1.4472    -0.0286 S.o2    
  13 O13            4.6884     0.3216    -0.5854 O.2     
  14 O14            4.1305     2.7579    -0.5670 O.2     
  15 C15            4.5480     1.5546     1.6501 C.ar    
  16 C16            5.0207     0.4302     2.2993 C.ar    
  17 C17            4.4917     2.7653     2.3156 C.ar    
  18 C18            4.9032     2.8512     3.6323 C.ar    
  19 C19            5.3715     1.7266     4.2854 C.ar    
  20 C20            5.4332     0.5150     3.6185 C.ar    
  21 C21            1.4581     5.5471     1.1052 C.ar    
  22 C22            2.0666     6.1440     0.0142 C.ar    
  23 C23            2.4355     5.3824    -1.0815 C.ar    
  24 C24            2.2039     4.0222    -1.0889 C.ar    
  25 F25            5.8903    -0.5850     4.2559 F       
  26 O26           -3.4502    -0.8351     0.0305 O.3     
  27 Cl27           2.3674     7.8537     0.0200 Cl      
  28 H28           -3.3740     1.7815     0.0427 H       
  29 H29           -1.3176     3.1276     0.0366 H       
  30 H30            0.7408     3.7241     1.9568 H       
  31 H31            5.0681    -0.5146     1.7781 H       
  32 H32            4.1263     3.6446     1.8060 H       
  33 H33            4.8591     3.7975     4.1510 H       
  34 H34            5.6933     1.7940     5.3141 H       
  35 H35            1.1719     6.1458     1.9572 H       
  36 H36            2.9093     5.8532    -1.9303 H       
  37 H37            2.4921     3.4290    -1.9442 H       
  38 H38           -3.7705    -1.0558     0.9158 H       
@<TRIPOS>BOND
   1    1    2 ar
   2    1    7 1
   3    1    6 ar
   4    2    3 ar
   5    2    9 1
   6    3    4 ar
   7    4    5 ar
   8    4   26 1
   9    5    6 ar
  10    5   28 1
  11    6   29 1
  12    7    8 2
  13    7   10 1
  14    8    9 1
  15    8   12 1
  16   10   11 ar
  17   10   24 ar
  18   11   21 ar
  19   11   30 1
  20   12   13 2
  21   12   14 2
  22   12   15 1
  23   15   16 ar
  24   15   17 ar
  25   16   20 ar
  26   16   31 1
  27   17   18 ar
  28   17   32 1
  29   18   19 ar
  30   18   33 1
  31   19   20 ar
  32   19   34 1
  33   20   25 1
  34   21   22 ar
  35   21   35 1
  36   22   23 ar
  37   22   27 1
  38   23   24 ar
  39   23   36 1
  40   24   37 1
  41   26   38 1

#	End of record

