#	Name: ASD03731641
#	Creating user name:	WinNT
#	Creation time:	15. 06. 2019 20:46

#	Modifying user name:	WinNT
#	Modification time:	15. 06. 2019 20:46

#	Program:	/corina/corina34_cracker 3.40 0067  02.08.2006

@<TRIPOS>MOLECULE
ASD03731641
  36   37    0    0    0
SMALL
NO_CHARGES


@<TRIPOS>ATOM
   1 C1            -0.1367     1.4672     0.0334 C.2     
   2 C2            -0.0854    -0.0063     0.0192 C.ar    
   3 C3             1.1398    -0.6647    -0.1384 C.ar    
   4 C4             1.1826    -2.0444    -0.1511 C.ar    
   5 C5             0.0128    -2.7784    -0.0078 C.ar    
   6 C6            -1.2081    -2.1272     0.1492 C.ar    
   7 C7            -1.2598    -0.7503     0.1689 C.ar    
   8 O8             0.8864     2.1124    -0.0919 O.2     
   9 N9            -1.3182     2.0990     0.1797 N.am    
  10 S10           -1.3757     3.7539     0.1956 S.o2    
  11 O11           -2.7509     4.0549     0.3895 O.2     
  12 O12           -0.4008     4.1292     1.1589 O.2     
  13 C13           -0.8460     4.2413    -1.4694 C.3     
  14 F14           -2.3431    -2.8467     0.2877 F       
  15 F15            2.2784     0.0489    -0.2783 F       
  16 O16            0.0593    -4.1350    -0.0213 O.3     
  17 C17           -0.1522    -4.7689    -1.2047 C.ar    
  18 C18           -0.0462    -6.1504    -1.2815 C.ar    
  19 C19           -0.2615    -6.7927    -2.4850 C.ar    
  20 C20           -0.5822    -6.0595    -3.6141 C.ar    
  21 C21           -0.6884    -4.6821    -3.5397 C.ar    
  22 C22           -0.4799    -4.0363    -2.3362 C.ar    
  23 C23            0.3040    -6.9492    -0.0526 C.3     
  24 Cl24          -0.8512    -6.8691    -5.1260 Cl      
  25 H25            2.1272    -2.5536    -0.2730 H       
  26 H26           -2.2066    -0.2465     0.2955 H       
  27 H27           -2.1348     1.5843     0.2757 H       
  28 H28           -1.5283     3.8175    -2.2064 H       
  29 H29           -0.8542     5.3283    -1.5497 H       
  30 H30            0.1626     3.8710    -1.6528 H       
  31 H31           -0.1791    -7.8679    -2.5452 H       
  32 H32           -0.9388    -4.1116    -4.4219 H       
  33 H33           -0.5676    -2.9614    -2.2775 H       
  34 H34           -0.6100    -7.2310     0.4703 H       
  35 H35            0.8466    -7.8479    -0.3458 H       
  36 H36            0.9287    -6.3466     0.6067 H       
@<TRIPOS>BOND
   1    1    2 1
   2    1    8 2
   3    1    9 am
   4    2    3 ar
   5    2    7 ar
   6    3    4 ar
   7    3   15 1
   8    4    5 ar
   9    4   25 1
  10    5    6 ar
  11    5   16 1
  12    6    7 ar
  13    6   14 1
  14    7   26 1
  15    9   10 am
  16    9   27 1
  17   10   11 2
  18   10   12 2
  19   10   13 1
  20   13   28 1
  21   13   29 1
  22   13   30 1
  23   16   17 1
  24   17   18 ar
  25   17   22 ar
  26   18   19 ar
  27   18   23 1
  28   19   20 ar
  29   19   31 1
  30   20   21 ar
  31   20   24 1
  32   21   22 ar
  33   21   32 1
  34   22   33 1
  35   23   34 1
  36   23   35 1
  37   23   36 1

#	End of record

