#	Name: ASD01040028
#	Creating user name:	WinNT
#	Creation time:	15. 06. 2019 18:58

#	Modifying user name:	WinNT
#	Modification time:	15. 06. 2019 18:58

#	Program:	/corina/corina34_cracker 3.40 0067  02.08.2006

@<TRIPOS>MOLECULE
ASD01040028
  41   43    0    0    0
SMALL
NO_CHARGES


@<TRIPOS>ATOM
   1 O1            -1.4178     1.1627    -0.2193 O.3     
   2 C2            -1.1268    -0.1618    -0.1513 C.ar    
   3 C3            -2.1108    -1.1027    -0.4291 C.ar    
   4 C4            -1.8194    -2.4473    -0.3616 C.ar    
   5 C5            -0.5326    -2.8646    -0.0133 C.ar    
   6 C6            -0.2156    -4.3060     0.0598 C.2     
   7 C7            -0.5776    -5.1985    -1.0578 C.ar    
   8 C8            -1.1148    -4.6677    -2.2339 C.ar    
   9 C9            -1.4514    -5.5036    -3.2744 C.ar    
  10 C10           -1.2590    -6.8766    -3.1601 C.ar    
  11 O11           -1.5936    -7.6944    -4.1910 O.3     
  12 C12           -0.7261    -7.4134    -1.9973 C.ar    
  13 C13           -0.3789    -6.5824    -0.9464 C.ar    
  14 O14            0.1478    -7.1054     0.1900 O.3     
  15 N15            0.3892    -4.7932     1.1208 N.2     
  16 C16            0.5631    -4.0113     2.2268 C.ar    
  17 C17            1.8249    -3.9028     2.8191 C.ar    
  18 C18            2.9985    -4.6488     2.2386 C.3     
  19 C19            1.9928    -3.1110     3.9353 C.ar    
  20 C20            0.9160    -2.4250     4.4698 C.ar    
  21 C21           -0.3358    -2.5274     3.8892 C.ar    
  22 C22           -0.5182    -3.3110     2.7689 C.ar    
  23 C23            0.4539    -1.9156     0.2652 C.ar    
  24 C24            0.1559    -0.5727     0.1904 C.ar    
  25 H25           -1.7355     1.5388     0.6129 H       
  26 H26           -3.1056    -0.7793    -0.6980 H       
  27 H27           -2.5849    -3.1780    -0.5774 H       
  28 H28           -1.2659    -3.6023    -2.3261 H       
  29 H29           -1.8667    -5.0922    -4.1825 H       
  30 H30           -0.8767    -7.8449    -4.8223 H       
  31 H31           -0.5783    -8.4800    -1.9136 H       
  32 H32           -0.5119    -7.3466     0.8546 H       
  33 H33            3.4951    -4.0240     1.4962 H       
  34 H34            3.7015    -4.8959     3.0342 H       
  35 H35            2.6480    -5.5662     1.7656 H       
  36 H36            2.9669    -3.0261     4.3940 H       
  37 H37            1.0526    -1.8099     5.3470 H       
  38 H38           -1.1714    -1.9895     4.3121 H       
  39 H39           -1.4958    -3.3901     2.3168 H       
  40 H40            1.4499    -2.2342     0.5352 H       
  41 H41            0.9192     0.1617     0.4013 H       
@<TRIPOS>BOND
   1    1    2 1
   2    1   25 1
   3    2    3 ar
   4    2   24 ar
   5    3    4 ar
   6    3   26 1
   7    4   27 1
   8    4    5 ar
   9    5    6 1
  10    5   23 ar
  11    6    7 1
  12    6   15 2
  13    7   13 ar
  14    7    8 ar
  15    8    9 ar
  16    8   28 1
  17    9   10 ar
  18    9   29 1
  19   10   11 1
  20   10   12 ar
  21   11   30 1
  22   12   31 1
  23   12   13 ar
  24   13   14 1
  25   14   32 1
  26   15   16 1
  27   16   17 ar
  28   16   22 ar
  29   17   18 1
  30   17   19 ar
  31   18   33 1
  32   18   34 1
  33   18   35 1
  34   19   36 1
  35   19   20 ar
  36   20   21 ar
  37   20   37 1
  38   21   22 ar
  39   21   38 1
  40   22   39 1
  41   23   40 1
  42   23   24 ar
  43   24   41 1

#	End of record

