#	Name: ASD00840133
#	Creating user name:	WinNT
#	Creation time:	15. 06. 2019 18:37

#	Modifying user name:	WinNT
#	Modification time:	15. 06. 2019 18:37

#	Program:	/corina/corina34_cracker 3.40 0067  02.08.2006

@<TRIPOS>MOLECULE
ASD00840133
  90   95    0    0    0
SMALL
NO_CHARGES


@<TRIPOS>ATOM
   1 N1            -0.0824     1.3696     0.0075 N.3     
   2 C2            -0.1704    -0.0895     0.1479 C.3     
   3 C3             0.5879    -0.5293     1.4023 C.3     
   4 C4             2.0520    -0.0965     1.2857 C.3     
   5 C5             2.1135     1.4211     1.0919 C.3     
   6 C6             1.3110     1.8044    -0.1536 C.3     
   7 N7            -2.2600     5.3665    -2.7897 N.am    
   8 C8            -1.7456     4.1256    -2.8179 C.2     
   9 C9            -2.6355     3.2545    -1.9571 C.3     
  10 C10           -3.7045     4.1997    -1.4589 C.ar    
  11 C11           -4.7995     4.0265    -0.6415 C.ar    
  12 C12           -5.6225     5.1023    -0.3517 C.ar    
  13 C13           -5.3387     6.3500    -0.8871 C.ar    
  14 C14           -4.2408     6.5231    -1.7071 C.ar    
  15 C15           -3.4099     5.4439    -2.0011 C.ar    
  16 O16           -0.7544     3.7701    -3.4200 O.2     
  17 F17           -6.1401     7.4006    -0.6057 F       
  18 F18           -6.6978     4.9368     0.4493 F       
  19 C19           -4.0045     1.1563    -2.1713 C.ar    
  20 C20           -3.2485     2.1505    -2.7796 C.ar    
  21 C21           -3.0662     2.1137    -4.1508 C.ar    
  22 C22           -3.6495     1.0785    -4.8688 C.ar    
  23 C23           -4.3883     0.1242    -4.1985 C.ar    
  24 N24           -4.5445     0.1860    -2.8896 N.ar    
  25 O25           -4.1859     1.1779    -0.8270 O.3     
  26 C26           -4.9732     0.1279    -0.2616 C.3     
  27 C27           -5.0658     0.3190     1.2536 C.3     
  28 S28           -1.6022     6.6572    -3.5921 S.o2    
  29 O29           -2.0479     7.8223    -2.9115 O.2     
  30 O30           -0.2289     6.3497    -3.7890 O.2     
  31 C31           -2.3359     6.7050    -5.1933 C.ar    
  32 C32           -2.1085     5.6714    -6.0914 C.ar    
  33 C33           -2.6860     5.7096    -7.3509 C.ar    
  34 C34           -3.4897     6.7807    -7.7104 C.ar    
  35 C35           -3.7139     7.8115    -6.8091 C.ar    
  36 C36           -3.1416     7.7684    -5.5519 C.ar    
  37 O37           -4.0569     6.8212    -8.9447 O.3     
  38 C38           -4.8729     7.9547    -9.2468 C.3     
  39 O39           -1.3200     4.6231    -5.7362 O.3     
  40 C40           -1.1296     3.5952    -6.7105 C.3     
  41 C41           -1.8558     2.6828    -0.8011 C.2     
  42 O42           -2.1285     3.0090     0.3347 O.2     
  43 N43           -0.8553     1.8091    -1.0295 N.am    
  44 N44            2.7719    -0.4643     2.5123 N.3     
  45 C45            4.2066    -0.1710     2.3890 C.3     
  46 C46            4.9059    -0.4931     3.7117 C.3     
  47 N47            4.6873    -1.9072     4.0467 N.3     
  48 C48            3.2526    -2.2006     4.1700 C.3     
  49 C49            2.5533    -1.8784     2.8472 C.3     
  50 C50            5.4071    -2.2750     5.2733 C.3     
  51 H51           -1.2164    -0.3836     0.2341 H       
  52 H52            0.2696    -0.5659    -0.7282 H       
  53 H53            0.1397    -0.0641     2.2803 H       
  54 H54            0.5355    -1.6139     1.4977 H       
  55 H55            2.5113    -0.5919     0.4303 H       
  56 H56            1.6894     1.9170     1.9650 H       
  57 H57            3.1512     1.7301     0.9655 H       
  58 H58            1.7441     1.3191    -1.0282 H       
  59 H59            1.3409     2.8859    -0.2863 H       
  60 H60           -5.0163     3.0530    -0.2274 H       
  61 H61           -4.0259     7.4971    -2.1214 H       
  62 H62           -2.4837     2.8732    -4.6511 H       
  63 H63           -3.5270     1.0206    -5.9402 H       
  64 H64           -4.8445    -0.6829    -4.7524 H       
  65 H65           -5.9741     0.1517    -0.6927 H       
  66 H66           -4.5069    -0.8331    -0.4788 H       
  67 H67           -5.6663    -0.4820     1.6848 H       
  68 H68           -4.0650     0.2951     1.6846 H       
  69 H69           -5.5321     1.2800     1.4707 H       
  70 H70           -2.5100     4.9064    -8.0512 H       
  71 H71           -4.3399     8.6460    -7.0886 H       
  72 H72           -3.3209     8.5695    -4.8501 H       
  73 H73           -5.7025     8.0035    -8.5415 H       
  74 H74           -4.2759     8.8633    -9.1689 H       
  75 H75           -5.2628     7.8619   -10.2605 H       
  76 H76           -2.0940     3.1605    -6.9732 H       
  77 H77           -0.6679     4.0203    -7.6017 H       
  78 H78           -0.4817     2.8208    -6.2999 H       
  79 H79           -0.6841     1.4924    -1.9302 H       
  80 H80            4.6352    -0.7801     1.5932 H       
  81 H81            4.3430     0.8844     2.1532 H       
  82 H82            5.9748    -0.3037     3.6135 H       
  83 H83            4.4960     0.1354     4.5023 H       
  84 H84            3.1162    -3.2560     4.4058 H       
  85 H85            2.8239    -1.5914     4.9658 H       
  86 H86            1.4843    -2.0678     2.9455 H       
  87 H87            2.9631    -2.5069     2.0567 H       
  88 H88            5.0521    -1.6609     6.1009 H       
  89 H89            5.2281    -3.3264     5.4982 H       
  90 H90            6.4752    -2.1107     5.1309 H       
@<TRIPOS>BOND
   1    1    2 1
   2    1    6 1
   3    1   43 1
   4    2    3 1
   5    2   51 1
   6    2   52 1
   7    3    4 1
   8    3   53 1
   9    3   54 1
  10    4    5 1
  11    4   44 1
  12    4   55 1
  13    5    6 1
  14    5   56 1
  15    5   57 1
  16    6   58 1
  17    6   59 1
  18    7    8 am
  19    7   15 1
  20    7   28 am
  21    8    9 1
  22    8   16 2
  23    9   10 1
  24    9   20 1
  25    9   41 1
  26   10   11 ar
  27   10   15 ar
  28   11   12 ar
  29   11   60 1
  30   12   13 ar
  31   12   18 1
  32   13   14 ar
  33   13   17 1
  34   14   15 ar
  35   14   61 1
  36   19   20 ar
  37   19   24 ar
  38   19   25 1
  39   20   21 ar
  40   21   22 ar
  41   21   62 1
  42   22   23 ar
  43   22   63 1
  44   23   24 ar
  45   23   64 1
  46   25   26 1
  47   26   27 1
  48   26   65 1
  49   26   66 1
  50   27   67 1
  51   27   68 1
  52   27   69 1
  53   28   29 2
  54   28   30 2
  55   28   31 1
  56   31   32 ar
  57   31   36 ar
  58   32   33 ar
  59   32   39 1
  60   33   34 ar
  61   33   70 1
  62   34   35 ar
  63   34   37 1
  64   35   36 ar
  65   35   71 1
  66   36   72 1
  67   37   38 1
  68   38   73 1
  69   38   74 1
  70   38   75 1
  71   39   40 1
  72   40   76 1
  73   40   77 1
  74   40   78 1
  75   41   42 2
  76   41   43 am
  77   43   79 1
  78   44   45 1
  79   44   49 1
  80   45   46 1
  81   45   80 1
  82   45   81 1
  83   46   47 1
  84   46   82 1
  85   46   83 1
  86   47   48 1
  87   47   50 1
  88   48   49 1
  89   48   84 1
  90   48   85 1
  91   49   86 1
  92   49   87 1
  93   50   88 1
  94   50   89 1
  95   50   90 1

#	End of record

