#	Name: ASD06590055
#	Creating user name:	WinNT
#	Creation time:	15. 06. 2019 21:06

#	Modifying user name:	WinNT
#	Modification time:	15. 06. 2019 21:06

#	Program:	/corina/corina34_cracker 3.40 0067  02.08.2006

@<TRIPOS>MOLECULE
ASD06590055
 303  306    0    0    0
SMALL
NO_CHARGES


@<TRIPOS>ATOM
   1 C1             0.0318    15.3508    -1.9378 C.2     
   2 O2             0.5963    14.3032    -2.1722 O.2     
   3 N3             2.2394    16.3460    -2.0968 N.am    
   4 C4             0.8225    16.6312    -1.8573 C.3     
   5 C5             0.3137    17.6122    -2.9155 C.3     
   6 O6             0.3624    16.9924    -4.2021 O.3     
   7 C7            -3.5310    14.4210    -1.5981 C.2     
   8 O8            -3.8920    15.5576    -1.3777 O.2     
   9 N9            -1.3033    15.3706    -1.7549 N.am    
  10 C10           -2.0728    14.1268    -1.8391 C.3     
  11 C11           -6.5352    12.4675    -0.8758 C.2     
  12 O12           -5.9007    11.4459    -0.7182 O.2     
  13 N13           -4.4340    13.4209    -1.6275 N.am    
  14 C14           -5.8516    13.7068    -1.3933 C.3     
  15 C15           -6.5079    14.1411    -2.7054 C.3     
  16 C16           -5.8984    15.4666    -3.1662 C.3     
  17 C17           -6.5547    15.9009    -4.4783 C.3     
  18 N18           -5.9711    17.1701    -4.9196 N.pl3   
  19 C19           -6.4067    17.7594    -6.0828 C.2     
  20 N20           -5.8875    18.8886    -6.4754 N.2     
  21 N21           -7.3900    17.1576    -6.8320 N.pl3   
  22 C22           -9.9856    11.3519    -0.4136 C.2     
  23 O23          -10.4336    12.3086    -1.0094 O.2     
  24 N24           -7.8516    12.4943    -0.5881 N.am    
  25 C25           -8.5162    11.2895    -0.0850 C.3     
  26 C26           -8.3360    11.2034     1.4319 C.3     
  27 C27           -6.8535    11.0146     1.7595 C.3     
  28 C28           -6.6733    10.9285     3.2764 C.3     
  29 N29           -5.2538    10.7478     3.5902 N.pl3   
  30 C30           -4.8469    10.6438     4.8993 C.2     
  31 N31           -3.5839    10.4831     5.1784 N.2     
  32 N32           -5.7722    10.7095     5.9140 N.pl3   
  33 C33          -12.9760     9.6408     0.7712 C.2     
  34 O34          -12.4046     8.7396     1.3476 O.2     
  35 N35          -10.8018    10.3446    -0.0455 N.am    
  36 C36          -12.2459    10.4539    -0.2666 C.3     
  37 C37          -12.5896     9.9274    -1.6614 C.3     
  38 C38          -14.0719    10.1745    -1.9488 C.3     
  39 C39          -14.3276    11.6794    -2.0517 C.3     
  40 C40          -14.4548     9.5008    -3.2681 C.3     
  41 C41          -16.4753     9.1596     1.7126 C.2     
  42 O42          -16.8736     9.8592     0.8055 O.2     
  43 N43          -14.2638     9.9152     1.0588 N.am    
  44 C44          -14.9993     9.0709     2.0035 C.3     
  45 C45          -14.7312     9.5501     3.4315 C.3     
  46 C46          -13.2756     9.3467     3.7647 C.2     
  47 C47          -12.4237    10.2942     4.2007 C.2     
  48 N48          -11.2113     9.6845     4.3797 N.pl3   
  49 C49          -11.3647     8.3848     4.0466 C.2     
  50 N50          -12.6031     8.1890     3.6845 N.2     
  51 C51          -19.5660     8.2273     3.4276 C.2     
  52 O52          -18.9800     7.9538     4.4536 O.2     
  53 N53          -17.3527     8.4615     2.4604 N.am    
  54 C54          -18.7875     8.5477     2.1776 C.3     
  55 C55          -19.1519     7.5470     1.0792 C.3     
  56 O56          -18.9401     6.2170     1.5572 O.3     
  57 C57          -23.0373     7.4227     4.2438 C.2     
  58 O58          -23.3735     7.3923     3.0789 O.2     
  59 N59          -20.9135     8.2446     3.4053 N.am    
  60 C60          -21.6703     7.9331     4.6204 C.3     
  61 C61          -21.8142     9.1975     5.4698 C.3     
  62 C62          -20.4262     9.7429     5.8118 C.3     
  63 O63          -22.5458    10.1826     4.7374 O.3     
  64 C64          -26.1492     6.7649     6.0454 C.2     
  65 O65          -25.6948     7.1744     7.0927 O.2     
  66 N66          -23.8861     6.9999     5.2014 N.am    
  67 C67          -25.2505     6.6011     4.8469 C.3     
  68 C68          -25.2547     5.1370     4.4026 C.3     
  69 C69          -24.4430     4.9929     3.1137 C.3     
  70 C70          -24.4471     3.5288     2.6693 C.3     
  71 N71          -23.6699     3.3909     1.4352 N.pl3   
  72 C72          -23.5320     2.1573     0.8440 C.2     
  73 N73          -24.0927     1.1106     1.3815 N.2     
  74 N74          -22.8026     2.0278    -0.3142 N.pl3   
  75 C75          -28.3315     5.1829     7.8257 C.2     
  76 O76          -27.6945     4.2589     7.3658 O.2     
  77 N77          -27.4579     6.4562     5.9536 N.am    
  78 C78          -28.3121     6.5257     7.1418 C.3     
  79 C79          -29.7343     6.9068     6.7259 C.3     
  80 C80          -29.7376     8.3093     6.1745 C.2     
  81 O81          -28.6933     8.9120     6.0440 O.2     
  82 N82          -30.9011     8.8937     5.8264 N.am    
  83 C83          -30.3463     3.5645    10.4110 C.2     
  84 O84          -31.1566     4.4669    10.4231 O.2     
  85 N85          -29.0566     5.0089     8.9483 N.am    
  86 C86          -29.0755     3.7035     9.6131 C.3     
  87 C87          -27.8706     3.5906    10.5493 C.3     
  88 C88          -26.6008     3.6064     9.7379 C.ar    
  89 C89          -25.9769     4.8076     9.4559 C.ar    
  90 C90          -24.8130     4.8249     8.7119 C.ar    
  91 C91          -24.2700     3.6355     8.2480 C.ar    
  92 O92          -23.1249     3.6498     7.5163 O.3     
  93 C93          -24.8977     2.4315     8.5328 C.ar    
  94 C94          -26.0585     2.4192     9.2815 C.ar    
  95 C95          -31.6540     1.4430    13.0483 C.2     
  96 O96          -30.5444     1.0446    13.3332 O.2     
  97 N97          -30.5826     2.4373    11.1111 N.am    
  98 C98          -31.8643     2.2561    11.7970 C.3     
  99 C99          -32.8391     1.5251    10.8716 C.3     
 100 C100         -32.1901     0.2364    10.3628 C.3     
 101 C101         -31.9752    -0.7235    11.5347 C.3     
 102 C102         -33.1864     2.4247     9.6837 C.3     
 103 C103         -33.8274    -0.3639    15.3666 C.2     
 104 O104         -34.8201    -0.1197    14.7140 O.2     
 105 N105         -32.6988     1.1584    13.8506 N.am    
 106 C106         -32.5140     0.2843    15.0117 C.3     
 107 C107         -32.0163     1.1115    16.1987 C.3     
 108 C108         -30.6467     1.6593    15.8901 C.2     
 109 C109         -30.2845     2.9556    15.9344 C.2     
 110 N110         -28.9620     3.0095    15.5853 N.pl3   
 111 C111         -28.5619     1.7433    15.3397 C.2     
 112 N112         -29.5734     0.9407    15.5288 N.2     
 113 C113         -35.1720    -2.2213    18.2136 C.2     
 114 O114         -34.1987    -1.9863    18.8980 O.2     
 115 N115         -33.8989    -1.2148    16.4093 N.am    
 116 C116         -35.1757    -1.8449    16.7543 C.3     
 117 C117         -35.3703    -3.1019    15.9040 C.3     
 118 C118         -35.4989    -2.7066    14.4315 C.3     
 119 S119         -35.7297    -4.1969    13.4233 S.3     
 120 C120         -35.8596    -3.5344    11.7396 C.3     
 121 C121         -35.5940    -4.5325    20.3462 C.2     
 122 O122         -35.1748    -5.1264    19.3812 O.2     
 123 N123         -36.2503    -2.8190    18.7581 N.am    
 124 C124         -36.2467    -3.1848    20.1767 C.3     
 125 C125         -37.6864    -3.2471    20.6909 C.3     
 126 C126         -38.2995    -1.8716    20.6355 C.2     
 127 C127         -39.4444    -1.5402    20.0085 C.2     
 128 N128         -39.6314    -0.1990    20.2083 N.pl3   
 129 C129         -38.5936     0.2428    20.9508 C.2     
 130 N130         -37.8037    -0.7640    21.2068 N.2     
 131 O131         -35.4783    -5.0730    21.5694 O.3     
 132 C132           3.1853    17.1690    -1.6026 C.2     
 133 O133           2.8636    18.1457    -0.9595 O.2     
 134 C134          20.9990    22.3508     1.0454 C.3     
 135 C135          19.5192    22.6486     1.2956 C.3     
 136 C136          18.6624    21.5686     0.6320 C.3     
 137 C137          17.1827    21.8664     0.8821 C.3     
 138 C138          16.3258    20.7865     0.2185 C.3     
 139 C139          14.8461    21.0843     0.4686 C.3     
 140 C140          13.9892    20.0043    -0.1950 C.3     
 141 C141          12.5095    20.3021     0.0551 C.3     
 142 C142          11.6526    19.2222    -0.6085 C.3     
 143 C143          10.1729    19.5200    -0.3583 C.3     
 144 C144           9.3160    18.4400    -1.0220 C.3     
 145 C145           7.8363    18.7378    -0.7718 C.3     
 146 C146           6.9794    17.6579    -1.4355 C.3     
 147 C147           5.4997    17.9557    -1.1853 C.3     
 148 C148           4.6428    16.8757    -1.8489 C.3     
 149 H149           2.4967    15.5649    -2.6112 H       
 150 H150           0.7027    17.0706    -0.8670 H       
 151 H151          -0.7142    17.8931    -2.6861 H       
 152 H152           0.9421    18.5029    -2.9172 H       
 153 H153           0.0535    17.5581    -4.9231 H       
 154 H154          -1.7548    16.2085    -1.5674 H       
 155 H155          -1.7141    13.4259    -1.0853 H       
 156 H156          -1.9492    13.6896    -2.8299 H       
 157 H157          -4.1453    12.5118    -1.8038 H       
 158 H158          -5.9444    14.5066    -0.6585 H       
 159 H159          -6.3382    13.3791    -3.4661 H       
 160 H160          -7.5795    14.2680    -2.5510 H       
 161 H161          -6.0682    16.2285    -2.4054 H       
 162 H162          -4.8269    15.3396    -3.3205 H       
 163 H163          -6.3850    15.1389    -5.2390 H       
 164 H164          -7.6263    16.0278    -4.3240 H       
 165 H165          -5.2774    17.5947    -4.3910 H       
 166 H166          -6.1948    19.3044    -7.2961 H       
 167 H167          -7.7764    16.3172    -6.5398 H       
 168 H168          -7.6973    17.5734    -7.6527 H       
 169 H169          -8.3591    13.3113    -0.7141 H       
 170 H170          -8.0761    10.4092    -0.5537 H       
 171 H171          -8.6959    12.1230     1.8933 H       
 172 H172          -8.9040    10.3568     1.8178 H       
 173 H173          -6.4936    10.0950     1.2981 H       
 174 H174          -6.2855    11.8611     1.3737 H       
 175 H175          -7.0332    11.8481     3.7378 H       
 176 H176          -7.2413    10.0820     3.6623 H       
 177 H177          -4.6009    10.7015     2.8742 H       
 178 H178          -3.2968    10.4097     6.1020 H       
 179 H179          -6.7121    10.8292     5.7063 H       
 180 H180          -5.4851    10.6362     6.8376 H       
 181 H181         -10.4331     9.5472     0.3659 H       
 182 H182         -12.5475    11.4984    -0.1880 H       
 183 H183         -11.9841    10.4459    -2.4048 H       
 184 H184         -12.3840     8.8580    -1.7070 H       
 185 H185         -14.6731     9.7582    -1.1404 H       
 186 H186         -15.3935    11.8581    -2.1933 H       
 187 H187         -13.9960    12.1678    -1.1354 H       
 188 H188         -13.7755    12.0846    -2.8997 H       
 189 H189         -14.2727     8.4286    -3.1948 H       
 190 H190         -15.5109     9.6767    -3.4728 H       
 191 H191         -13.8537     9.9170    -4.0765 H       
 192 H192         -14.7036    10.6717     0.6403 H       
 193 H193         -14.6700     8.0370     1.8993 H       
 194 H194         -14.9778    10.6088     3.5118 H       
 195 H195         -15.3464     8.9800     4.1276 H       
 196 H196         -12.6529    11.3350     4.3753 H       
 197 H197         -10.3945    10.1071     4.6882 H       
 198 H198         -10.5915     7.6314     4.0785 H       
 199 H199         -17.0341     7.9019     3.1859 H       
 200 H200         -19.0324     9.5567     1.8457 H       
 201 H201         -20.1998     7.6724     0.8064 H       
 202 H202         -18.5253     7.7230     0.2049 H       
 203 H203         -19.1513     5.5288     0.9116 H       
 204 H204         -21.3822     8.4634     2.5847 H       
 205 H205         -21.1421     7.1698     5.1917 H       
 206 H206         -22.3475     8.9584     6.3898 H       
 207 H207         -19.8831     9.9572     4.8914 H       
 208 H208         -20.5290    10.6582     6.3947 H       
 209 H209         -19.8777     9.0017     6.3931 H       
 210 H210         -23.4373     9.9045     4.4864 H       
 211 H211         -23.5937     6.9597     6.1254 H       
 212 H212         -25.6126     7.2289     4.0327 H       
 213 H213         -24.8102     4.5192     5.1829 H       
 214 H214         -26.2804     4.8144     4.2240 H       
 215 H215         -24.8875     5.6107     2.3334 H       
 216 H216         -23.4172     5.3155     3.2923 H       
 217 H217         -24.0026     2.9111     3.4496 H       
 218 H218         -25.4729     3.2063     2.4907 H       
 219 H219         -23.2526     4.1698     1.0352 H       
 220 H220         -23.9954     0.2403     0.9644 H       
 221 H221         -22.3853     2.8068    -0.7142 H       
 222 H222         -22.7053     1.1575    -0.7313 H       
 223 H223         -27.8343     6.1881     5.1007 H       
 224 H224         -27.9203     7.2770     7.8274 H       
 225 H225         -30.0870     6.2148     5.9611 H       
 226 H226         -30.3924     6.8559     7.5933 H       
 227 H227         -31.7363     8.4116     5.9307 H       
 228 H228         -30.9032     9.7964     5.4714 H       
 229 H229         -29.5660     5.7479     9.3161 H       
 230 H230         -29.0287     2.9134     8.8637 H       
 231 H231         -27.8692     4.4315    11.2428 H       
 232 H232         -27.9321     2.6577    11.1097 H       
 233 H233         -26.4000     5.7333     9.8173 H       
 234 H234         -24.3265     5.7635     8.4913 H       
 235 H235         -22.3188     3.5815     8.0460 H       
 236 H236         -24.4771     1.5043     8.1724 H       
 237 H237         -26.5452     1.4818     9.5072 H       
 238 H238         -29.9039     1.7461    11.1609 H       
 239 H239         -32.2757     3.2302    12.0616 H       
 240 H240         -33.7484     1.2816    11.4211 H       
 241 H241         -32.8415    -0.2316     9.6247 H       
 242 H242         -31.2296     0.4700     9.9037 H       
 243 H243         -31.1594    -0.3583    12.1586 H       
 244 H244         -32.8878    -0.7828    12.1279 H       
 245 H245         -31.7253    -1.7133    11.1526 H       
 246 H246         -32.2950     2.5866     9.0777 H       
 247 H247         -33.9555     1.9456     9.0779 H       
 248 H248         -33.5562     3.3826    10.0493 H       
 249 H249         -33.5732     1.5323    13.6593 H       
 250 H250         -31.7812    -0.4865    14.7732 H       
 251 H251         -32.7050     1.9364    16.3809 H       
 252 H252         -31.9635     0.4795    17.0852 H       
 253 H253         -30.9161     3.7920    16.1949 H       
 254 H254         -28.4146     3.8080    15.5256 H       
 255 H255         -27.5683     1.4440    15.0403 H       
 256 H256         -33.1050    -1.4101    16.9312 H       
 257 H257         -35.9896    -1.1461    16.5614 H       
 258 H258         -34.5120    -3.7619    16.0294 H       
 259 H259         -36.2758    -3.6189    16.2218 H       
 260 H260         -36.3572    -2.0466    14.3061 H       
 261 H261         -34.5935    -2.1896    14.1137 H       
 262 H262         -36.0028    -4.3548    11.0364 H       
 263 H263         -36.7089    -2.8537    11.6816 H       
 264 H264         -34.9452    -2.9967    11.4892 H       
 265 H265         -37.0287    -3.0069    18.2107 H       
 266 H266         -35.6906    -2.4378    20.7431 H       
 267 H267         -38.2656    -3.9285    20.0678 H       
 268 H268         -37.6892    -3.6049    21.7205 H       
 269 H269         -40.0906    -2.2048    19.4543 H       
 270 H270         -40.3712     0.3344    19.8781 H       
 271 H271         -38.4442     1.2600    21.2816 H       
 272 H272         -35.0524    -5.9392    21.6281 H       
 273 H273          21.2501    21.3776     1.4672 H       
 274 H274          21.1916    22.3424    -0.0274 H       
 275 H275          21.6094    23.1201     1.5182 H       
 276 H276          19.3266    22.6569     2.3684 H       
 277 H277          19.2681    23.6218     0.8738 H       
 278 H278          18.8550    21.5603    -0.4409 H       
 279 H279          18.9135    20.5954     1.0538 H       
 280 H280          16.9900    21.8747     1.9549 H       
 281 H281          16.9315    22.8396     0.4603 H       
 282 H282          16.5184    20.7781    -0.8543 H       
 283 H283          16.5769    19.8133     0.6403 H       
 284 H284          14.6534    21.0926     1.5414 H       
 285 H285          14.5949    22.0575     0.0468 H       
 286 H286          14.1818    19.9960    -1.2678 H       
 287 H287          14.2403    19.0311     0.2268 H       
 288 H288          12.3168    20.3104     1.1280 H       
 289 H289          12.2583    21.2753    -0.3667 H       
 290 H290          11.8452    19.2138    -1.6813 H       
 291 H291          11.9037    18.2490    -0.1867 H       
 292 H292           9.9802    19.5283     0.7145 H       
 293 H293           9.9217    20.4932    -0.7801 H       
 294 H294           9.5087    18.4317    -2.0948 H       
 295 H295           9.5671    17.4668    -0.6002 H       
 296 H296           7.6436    18.7461     0.3010 H       
 297 H297           7.5852    19.7110    -1.1936 H       
 298 H298           7.1721    17.6495    -2.5083 H       
 299 H299           7.2305    16.6847    -1.0137 H       
 300 H300           5.3070    17.9640    -0.1125 H       
 301 H301           5.2486    18.9289    -1.6071 H       
 302 H302           4.8940    15.9025    -1.4271 H       
 303 H303           4.8355    16.8674    -2.9218 H       
@<TRIPOS>BOND
   1    1    2 2
   2    1    4 1
   3    1    9 am
   4    3  132 am
   5    3    4 1
   6    3  149 1
   7    4    5 1
   8    4  150 1
   9    5    6 1
  10    5  151 1
  11    5  152 1
  12    6  153 1
  13    7    8 2
  14    7   10 1
  15    7   13 am
  16    9   10 1
  17    9  154 1
  18   10  155 1
  19   10  156 1
  20   11   12 2
  21   11   14 1
  22   11   24 am
  23   13   14 1
  24   13  157 1
  25   14   15 1
  26   14  158 1
  27   15   16 1
  28   15  159 1
  29   15  160 1
  30   16   17 1
  31   16  161 1
  32   16  162 1
  33   17   18 1
  34   17  163 1
  35   17  164 1
  36   18   19 1
  37   18  165 1
  38   19   20 2
  39   19   21 1
  40   20  166 1
  41   21  167 1
  42   21  168 1
  43   22   23 2
  44   22   25 1
  45   22   35 am
  46   24   25 1
  47   24  169 1
  48   25   26 1
  49   25  170 1
  50   26   27 1
  51   26  171 1
  52   26  172 1
  53   27   28 1
  54   27  173 1
  55   27  174 1
  56   28   29 1
  57   28  175 1
  58   28  176 1
  59   29   30 1
  60   29  177 1
  61   30   31 2
  62   30   32 1
  63   31  178 1
  64   32  179 1
  65   32  180 1
  66   33   34 2
  67   33   36 1
  68   33   43 am
  69   35   36 1
  70   35  181 1
  71   36   37 1
  72   36  182 1
  73   37   38 1
  74   37  183 1
  75   37  184 1
  76   38   39 1
  77   38   40 1
  78   38  185 1
  79   39  186 1
  80   39  187 1
  81   39  188 1
  82   40  189 1
  83   40  190 1
  84   40  191 1
  85   41   42 2
  86   41   44 1
  87   41   53 am
  88   43   44 1
  89   43  192 1
  90   44   45 1
  91   44  193 1
  92   45   46 1
  93   45  194 1
  94   45  195 1
  95   46   47 2
  96   46   50 1
  97   47   48 1
  98   47  196 1
  99   48   49 1
 100   48  197 1
 101   49   50 2
 102   49  198 1
 103   51   52 2
 104   51   54 1
 105   51   59 am
 106   53   54 1
 107   53  199 1
 108   54   55 1
 109   54  200 1
 110   55   56 1
 111   55  201 1
 112   55  202 1
 113   56  203 1
 114   57   58 2
 115   57   60 1
 116   57   66 am
 117   59   60 1
 118   59  204 1
 119   60   61 1
 120   60  205 1
 121   61   62 1
 122   61   63 1
 123   61  206 1
 124   62  207 1
 125   62  208 1
 126   62  209 1
 127   63  210 1
 128   64   65 2
 129   64   67 1
 130   64   77 am
 131   66   67 1
 132   66  211 1
 133   67   68 1
 134   67  212 1
 135   68   69 1
 136   68  213 1
 137   68  214 1
 138   69   70 1
 139   69  215 1
 140   69  216 1
 141   70   71 1
 142   70  217 1
 143   70  218 1
 144   71   72 1
 145   71  219 1
 146   72   73 2
 147   72   74 1
 148   73  220 1
 149   74  221 1
 150   74  222 1
 151   75   76 2
 152   75   78 1
 153   75   85 am
 154   77   78 1
 155   77  223 1
 156   78   79 1
 157   78  224 1
 158   79   80 1
 159   79  225 1
 160   79  226 1
 161   80   81 2
 162   80   82 am
 163   82  227 1
 164   82  228 1
 165   83   84 2
 166   83   86 1
 167   83   97 am
 168   85   86 1
 169   85  229 1
 170   86   87 1
 171   86  230 1
 172   87   88 1
 173   87  231 1
 174   87  232 1
 175   88   89 ar
 176   88   94 ar
 177   89   90 ar
 178   89  233 1
 179   90   91 ar
 180   90  234 1
 181   91   92 1
 182   91   93 ar
 183   92  235 1
 184   93   94 ar
 185   93  236 1
 186   94  237 1
 187   95   96 2
 188   95   98 1
 189   95  105 am
 190   97   98 1
 191   97  238 1
 192   98   99 1
 193   98  239 1
 194   99  100 1
 195   99  102 1
 196   99  240 1
 197  100  101 1
 198  100  241 1
 199  100  242 1
 200  101  243 1
 201  101  244 1
 202  101  245 1
 203  102  246 1
 204  102  247 1
 205  102  248 1
 206  103  104 2
 207  103  106 1
 208  103  115 am
 209  105  106 1
 210  105  249 1
 211  106  107 1
 212  106  250 1
 213  107  108 1
 214  107  251 1
 215  107  252 1
 216  108  109 2
 217  108  112 1
 218  109  110 1
 219  109  253 1
 220  110  111 1
 221  110  254 1
 222  111  112 2
 223  111  255 1
 224  113  114 2
 225  113  116 1
 226  113  123 am
 227  115  116 1
 228  115  256 1
 229  116  117 1
 230  116  257 1
 231  117  118 1
 232  117  258 1
 233  117  259 1
 234  118  119 1
 235  118  260 1
 236  118  261 1
 237  119  120 1
 238  120  262 1
 239  120  263 1
 240  120  264 1
 241  121  122 2
 242  121  124 1
 243  121  131 1
 244  123  124 1
 245  123  265 1
 246  124  125 1
 247  124  266 1
 248  125  126 1
 249  125  267 1
 250  125  268 1
 251  126  127 2
 252  126  130 1
 253  127  128 1
 254  127  269 1
 255  128  129 1
 256  128  270 1
 257  129  130 2
 258  129  271 1
 259  131  272 1
 260  132  133 2
 261  132  148 1
 262  134  135 1
 263  134  273 1
 264  134  274 1
 265  134  275 1
 266  135  136 1
 267  135  276 1
 268  135  277 1
 269  136  137 1
 270  136  278 1
 271  136  279 1
 272  137  138 1
 273  137  280 1
 274  137  281 1
 275  138  139 1
 276  138  282 1
 277  138  283 1
 278  139  140 1
 279  139  284 1
 280  139  285 1
 281  140  141 1
 282  140  286 1
 283  140  287 1
 284  141  142 1
 285  141  288 1
 286  141  289 1
 287  142  143 1
 288  142  290 1
 289  142  291 1
 290  143  144 1
 291  143  292 1
 292  143  293 1
 293  144  145 1
 294  144  294 1
 295  144  295 1
 296  145  146 1
 297  145  296 1
 298  145  297 1
 299  146  147 1
 300  146  298 1
 301  146  299 1
 302  147  148 1
 303  147  300 1
 304  147  301 1
 305  148  302 1
 306  148  303 1

#	End of record

