#	Name: ASD01940590
#	Creating user name:	WinNT
#	Creation time:	15. 06. 2019 20:12

#	Modifying user name:	WinNT
#	Modification time:	15. 06. 2019 20:12

#	Program:	/corina/corina34_cracker 3.40 0067  02.08.2006

@<TRIPOS>MOLECULE
ASD01940590
  65   68    0    0    0
SMALL
NO_CHARGES


@<TRIPOS>ATOM
   1 C1             0.7509     2.3288     1.7326 C.ar    
   2 C2             1.0198     1.7513     2.9661 C.ar    
   3 C3             2.2413     1.9810     3.5870 C.ar    
   4 C4             3.1869     2.7833     2.9778 C.ar    
   5 C5             2.9210     3.3589     1.7503 C.ar    
   6 C6             1.7023     3.1327     1.1246 C.ar    
   7 N7             0.0636     0.9409     3.5822 N.am    
   8 S8            -0.7936     1.5115     4.8792 S.o2    
   9 C9            -1.7456     2.9053     4.2148 C.3     
  10 O10           -1.6576     0.4385     5.2276 O.2     
  11 O11            0.2022     1.9729     5.7818 O.2     
  12 O12            1.4426     3.6991    -0.0828 O.3     
  13 C13            2.3590     4.5651    -0.5922 C.ar    
  14 C14            3.2587     4.1358    -1.5570 C.ar    
  15 C15            4.1922     5.0158    -2.0766 C.ar    
  16 C16            4.2322     6.3278    -1.6367 C.ar    
  17 C17            3.3353     6.7653    -0.6720 C.ar    
  18 C18            2.3915     5.8832    -0.1507 C.ar    
  19 N19            3.3758     8.0923    -0.2272 N.pl3   
  20 C20            4.0738     9.0554    -0.9629 C.ar    
  21 C21            4.1665     8.9439    -2.3439 C.ar    
  22 C22            4.8566     9.8966    -3.0680 C.ar    
  23 C23            5.4560    10.9614    -2.4196 C.ar    
  24 C24            5.3668    11.0767    -1.0439 C.ar    
  25 C25            4.6720    10.1303    -0.3134 C.ar    
  26 F26            4.5796    10.2459     1.0294 F       
  27 I27            6.5017    12.4026    -3.5235 I       
  28 N28            1.4789     6.3226     0.8219 N.am    
  29 S29           -0.1372     6.3955     0.4679 S.o2    
  30 C30           -2.4956     3.5995     5.3534 C.3     
  31 F31            5.0669     4.5931    -3.0154 F       
  32 O32           -0.4404     5.1084    -0.0523 O.2     
  33 O33           -0.7383     6.8606     1.6686 O.2     
  34 C34           -0.2592     7.6531    -0.8337 C.3     
  35 C35            0.2942     9.0329    -0.4721 C.3     
  36 C36           -0.5658     9.6545     0.6302 C.3     
  37 O37           -0.0183    10.9202     1.0048 O.3     
  38 C38           -0.1041     7.1873    -2.2828 C.3     
  39 C39           -1.4800     7.6007    -1.7544 C.3     
  40 H40           -0.1960     2.1483     1.2456 H       
  41 H41            2.4517     1.5323     4.5466 H       
  42 H42            4.1355     2.9613     3.4624 H       
  43 H43            3.6621     3.9859     1.2768 H       
  44 H44           -0.0985     0.0440     3.2504 H       
  45 H45           -1.0678     3.6150     3.7404 H       
  46 H46           -2.4611     2.5387     3.4788 H       
  47 H47            3.2309     3.1131    -1.9030 H       
  48 H48            4.9622     7.0114    -2.0443 H       
  49 H49            2.9198     8.3436     0.5912 H       
  50 H50            3.6997     8.1127    -2.8514 H       
  51 H51            4.9286     9.8097    -4.1421 H       
  52 H52            5.8364    11.9088    -0.5405 H       
  53 H53            1.7951     6.5834     1.7010 H       
  54 H54           -3.1734     2.8899     5.8278 H       
  55 H55           -1.7800     3.9662     6.0894 H       
  56 H56           -3.0676     4.4371     4.9542 H       
  57 H57            1.3203     8.9316    -0.1186 H       
  58 H58            0.2751     9.6744    -1.3531 H       
  59 H59           -1.5827     9.7928     0.2630 H       
  60 H60           -0.5792     8.9935     1.4968 H       
  61 H61           -0.5140    11.3726     1.7010 H       
  62 H62            0.3919     7.8641    -2.9786 H       
  63 H63            0.0712     6.1252    -2.4540 H       
  64 H64           -2.2099     6.8106    -1.5780 H       
  65 H65           -1.8887     8.5492    -2.1028 H       
@<TRIPOS>BOND
   1    1    2 ar
   2    1    6 ar
   3    1   40 1
   4    2    3 ar
   5    2    7 1
   6    3    4 ar
   7    3   41 1
   8    4    5 ar
   9    4   42 1
  10    5    6 ar
  11    5   43 1
  12    6   12 1
  13    7    8 am
  14    7   44 1
  15    8    9 1
  16    8   10 2
  17    8   11 2
  18    9   30 1
  19    9   45 1
  20    9   46 1
  21   12   13 1
  22   13   14 ar
  23   13   18 ar
  24   14   15 ar
  25   14   47 1
  26   15   16 ar
  27   15   31 1
  28   16   17 ar
  29   16   48 1
  30   17   18 ar
  31   17   19 1
  32   18   28 1
  33   19   20 1
  34   19   49 1
  35   20   21 ar
  36   20   25 ar
  37   21   22 ar
  38   21   50 1
  39   22   23 ar
  40   22   51 1
  41   23   24 ar
  42   23   27 1
  43   24   25 ar
  44   24   52 1
  45   25   26 1
  46   28   29 am
  47   28   53 1
  48   29   32 2
  49   29   33 2
  50   29   34 1
  51   30   54 1
  52   30   55 1
  53   30   56 1
  54   34   35 1
  55   34   38 1
  56   34   39 1
  57   35   36 1
  58   35   57 1
  59   35   58 1
  60   36   37 1
  61   36   59 1
  62   36   60 1
  63   37   61 1
  64   38   39 1
  65   38   62 1
  66   38   63 1
  67   39   64 1
  68   39   65 1

#	End of record

