#	Name: ASD01148783
#	Creating user name:	WinNT
#	Creation time:	15. 06. 2019 19:03

#	Modifying user name:	WinNT
#	Modification time:	15. 06. 2019 19:03

#	Program:	/corina/corina34_cracker 3.40 0067  02.08.2006

@<TRIPOS>MOLECULE
ASD01148783
  57   60    0    0    0
SMALL
NO_CHARGES


@<TRIPOS>ATOM
   1 N1             0.0433     1.3918    -0.2311 N.pl3   
   2 C2            -0.0125     0.0399    -0.1852 C.2     
   3 C3             1.2408    -0.4490     0.1114 C.2     
   4 C4             2.1185     0.7246     0.2540 C.2     
   5 C5             1.3183     1.8277     0.0306 C.2     
   6 C6             1.6250    -1.8603     0.2571 C.2     
   7 O7             2.0101    -2.4883    -0.7099 O.2     
   8 O8             1.5503    -2.4582     1.4630 O.3     
   9 C9            -1.0453     2.2276    -0.5119 C.ar    
  10 C10           -2.1003     2.3211     0.3860 C.ar    
  11 C11           -3.1722     3.1460     0.1063 C.ar    
  12 C12           -3.1953     3.8783    -1.0665 C.ar    
  13 C13           -2.1461     3.7873    -1.9627 C.ar    
  14 C14           -1.0688     2.9686    -1.6860 C.ar    
  15 S15           -4.5648     4.9291    -1.4200 S.o2    
  16 O16           -4.5926     5.0909    -2.8315 O.2     
  17 O17           -5.6628     4.4218    -0.6741 O.2     
  18 N18           -4.2166     6.4185    -0.7853 N.am    
  19 C19           -1.2453    -0.7944    -0.4200 C.3     
  20 C20            3.5641     0.7224     0.5720 C.ar    
  21 C21            4.4809     0.1965    -0.3389 C.ar    
  22 C22            5.8280     0.1979    -0.0364 C.ar    
  23 C23            6.2690     0.7195     1.1684 C.ar    
  24 C24            5.3643     1.2416     2.0750 C.ar    
  25 C25            4.0160     1.2514     1.7812 C.ar    
  26 Cl26           6.9708    -0.4557    -1.1679 Cl      
  27 C27            1.7595     3.2363     0.0660 C.ar    
  28 C28            1.0970     4.1584     0.8794 C.ar    
  29 C29            1.5139     5.4726     0.9080 C.ar    
  30 C30            2.5868     5.8789     0.1321 C.ar    
  31 C31            3.2479     4.9695    -0.6764 C.ar    
  32 C32            2.8446     3.6510    -0.7093 C.ar    
  33 Cl33           3.1047     7.5353     0.1729 Cl      
  34 C34            1.9456    -3.8537     1.5325 C.3     
  35 C35            1.7947    -4.3555     2.9699 C.3     
  36 H36           -2.0830     1.7492     1.3019 H       
  37 H37           -3.9933     3.2189     0.8041 H       
  38 H38           -2.1673     4.3602    -2.8780 H       
  39 H39           -0.2474     2.9016    -2.3840 H       
  40 H40           -3.3763     6.5643    -0.3232 H       
  41 H41           -4.8529     7.1450    -0.8756 H       
  42 H42           -1.3224    -1.0387    -1.4795 H       
  43 H43           -1.1776    -1.7142     0.1610 H       
  44 H44           -2.1276    -0.2338    -0.1113 H       
  45 H45            4.1375    -0.2110    -1.2782 H       
  46 H46            7.3237     0.7183     1.4011 H       
  47 H47            5.7143     1.6466     3.0130 H       
  48 H48            3.3113     1.6635     2.4883 H       
  49 H49            0.2598     3.8429     1.4843 H       
  50 H50            1.0025     6.1867     1.5365 H       
  51 H51            4.0838     5.2925    -1.2791 H       
  52 H52            3.3640     2.9417    -1.3366 H       
  53 H53            1.3103    -4.4446     0.8727 H       
  54 H54            2.9853    -3.9528     1.2203 H       
  55 H55            2.4300    -3.7646     3.6297 H       
  56 H56            0.7550    -4.2564     3.2821 H       
  57 H57            2.0914    -5.4030     3.0221 H       
@<TRIPOS>BOND
   1    1    2 1
   2    1    5 1
   3    1    9 1
   4    2    3 2
   5    2   19 1
   6    3    4 1
   7    3    6 1
   8    4    5 2
   9    4   20 1
  10    5   27 1
  11    6    7 2
  12    6    8 1
  13    8   34 1
  14    9   10 ar
  15    9   14 ar
  16   10   11 ar
  17   10   36 1
  18   11   12 ar
  19   11   37 1
  20   12   13 ar
  21   12   15 1
  22   13   14 ar
  23   13   38 1
  24   14   39 1
  25   15   16 2
  26   15   17 2
  27   15   18 am
  28   18   40 1
  29   18   41 1
  30   19   42 1
  31   19   43 1
  32   19   44 1
  33   20   21 ar
  34   20   25 ar
  35   21   22 ar
  36   21   45 1
  37   22   23 ar
  38   22   26 1
  39   23   24 ar
  40   23   46 1
  41   24   25 ar
  42   24   47 1
  43   25   48 1
  44   27   28 ar
  45   27   32 ar
  46   28   29 ar
  47   28   49 1
  48   29   30 ar
  49   29   50 1
  50   30   31 ar
  51   30   33 1
  52   31   32 ar
  53   31   51 1
  54   32   52 1
  55   34   35 1
  56   34   53 1
  57   34   54 1
  58   35   55 1
  59   35   56 1
  60   35   57 1

#	End of record

