#	Name: ASD01840050
#	Creating user name:	WinNT
#	Creation time:	15. 06. 2019 19:37

#	Modifying user name:	WinNT
#	Modification time:	15. 06. 2019 19:37

#	Program:	/corina/corina34_cracker 3.40 0067  02.08.2006

@<TRIPOS>MOLECULE
ASD01840050
  53   56    0    0    0
SMALL
NO_CHARGES


@<TRIPOS>ATOM
   1 C1            -0.0159     1.3306     0.0370 C.ar    
   2 N2             0.2788     0.4962     1.0229 N.ar    
   3 C3             1.4183    -0.1716     1.0361 C.ar    
   4 N4             2.3129    -0.0472     0.0833 N.ar    
   5 C5             0.9161     1.5025    -1.0184 C.ar    
   6 C6             0.8527     2.3368    -2.2036 C.2     
   7 C7             2.1059     0.7720    -0.9554 C.ar    
   8 S8             3.0995     1.1410    -2.3573 S.3     
   9 C9             1.9066     2.2583    -2.9926 C.2     
  10 C10           -0.3263     3.2240    -2.5098 C.3     
  11 C11            2.0655     3.0307    -4.2768 C.3     
  12 N12           -1.2158     2.0189     0.0340 N.3     
  13 C13           -2.3512     1.0966    -0.0949 C.3     
  14 C14           -3.6469     1.8977    -0.2409 C.3     
  15 C15           -3.8291     2.7927     0.9881 C.3     
  16 C16           -2.6109     3.7098     1.1270 C.3     
  17 C17           -1.3452     2.8561     1.2334 C.3     
  18 C18           -5.0723     3.6282     0.8228 C.2     
  19 O19           -5.7472     3.5196    -0.1791 O.2     
  20 N20           -5.4342     4.4962     1.7882 N.am    
  21 C21           -6.5326     5.3410     1.5937 C.ar    
  22 C22           -8.7045     7.0115     1.2090 C.ar    
  23 C23           -7.6049     7.4613     1.9168 C.ar    
  24 C24           -6.5192     6.6299     2.1105 C.ar    
  25 C25           -7.6360     4.8943     0.8784 C.ar    
  26 C26           -8.7185     5.7306     0.6882 C.ar    
  27 S27          -10.0876     8.0753     0.9640 S.o     
  28 O28           -9.9338     8.4940    -0.3851 O.2     
  29 O29          -11.2574     7.1044     0.8900 O.3     
  30 N30          -12.5543     7.7498     0.6853 N.3     
  31 H31            1.6210    -0.8421     1.8582 H       
  32 H32           -0.2084     4.1762    -1.9927 H       
  33 H33           -0.3805     3.3983    -3.5844 H       
  34 H34           -1.2429     2.7391    -2.1737 H       
  35 H35            2.5483     3.9856    -4.0691 H       
  36 H36            2.6785     2.4573    -4.9722 H       
  37 H37            1.0847     3.2078    -4.7180 H       
  38 H38           -2.2112     0.4689    -0.9749 H       
  39 H39           -2.4111     0.4679     0.7936 H       
  40 H40           -3.5932     2.5163    -1.1368 H       
  41 H41           -4.4911     1.2129    -0.3208 H       
  42 H42           -3.9218     2.1726     1.8797 H       
  43 H43           -2.5410     4.3569     0.2527 H       
  44 H44           -2.7150     4.3197     2.0245 H       
  45 H45           -1.4098     2.2192     2.1156 H       
  46 H46           -0.4746     3.5064     1.3181 H       
  47 H47           -4.9333     4.5353     2.6179 H       
  48 H48           -7.5969     8.4623     2.3220 H       
  49 H49           -5.6609     6.9817     2.6637 H       
  50 H50           -7.6474     3.8941     0.4711 H       
  51 H51           -9.5788     5.3822     0.1359 H       
  52 H52          -13.2956     7.0666     0.6432 H       
  53 H53          -12.7345     8.4351     1.4036 H       
@<TRIPOS>BOND
   1    1    2 ar
   2    1    5 ar
   3    1   12 1
   4    2    3 ar
   5    3    4 ar
   6    3   31 1
   7    4    7 ar
   8    5    7 ar
   9    5    6 1
  10    6    9 2
  11    6   10 1
  12    7    8 1
  13    8    9 1
  14    9   11 1
  15   10   32 1
  16   10   33 1
  17   10   34 1
  18   11   35 1
  19   11   36 1
  20   11   37 1
  21   12   13 1
  22   12   17 1
  23   13   14 1
  24   13   38 1
  25   13   39 1
  26   14   15 1
  27   14   40 1
  28   14   41 1
  29   15   16 1
  30   15   18 1
  31   15   42 1
  32   16   17 1
  33   16   43 1
  34   16   44 1
  35   17   45 1
  36   17   46 1
  37   18   19 2
  38   18   20 am
  39   20   21 1
  40   20   47 1
  41   21   25 ar
  42   21   24 ar
  43   22   23 ar
  44   22   26 ar
  45   22   27 1
  46   23   24 ar
  47   23   48 1
  48   24   49 1
  49   25   26 ar
  50   25   50 1
  51   26   51 1
  52   27   28 2
  53   27   29 1
  54   29   30 1
  55   30   52 1
  56   30   53 1

#	End of record

