#	Name: ASD01940331
#	Creating user name:	WinNT
#	Creation time:	15. 06. 2019 20:12

#	Modifying user name:	WinNT
#	Modification time:	15. 06. 2019 20:12

#	Program:	/corina/corina34_cracker 3.40 0067  02.08.2006

@<TRIPOS>MOLECULE
ASD01940331
  25   25    0    0    0
SMALL
NO_CHARGES


@<TRIPOS>ATOM
   1 C1            -0.0167     1.3820     0.0096 C.ar    
   2 C2             0.0021    -0.0041     0.0020 C.ar    
   3 C3             1.2112    -0.6810    -0.0131 C.ar    
   4 C4             2.4006     0.0266    -0.0202 C.ar    
   5 C5             2.3823     1.4131    -0.0126 C.ar    
   6 C6             1.1718     2.0902     0.0021 C.ar    
   7 N7             3.6921    -0.6966    -0.0354 N.pl3   
   8 O8             4.2140    -0.9888    -1.0964 O.2     
   9 O9             4.2328    -0.9994     1.0131 O.2     
  10 O10            3.5503     2.1086    -0.0191 O.3     
  11 C11            3.4565     3.5344    -0.0106 C.3     
  12 C12            4.8623     4.1382    -0.0197 C.3     
  13 O13            5.5139     3.8095    -1.2483 O.3     
  14 C14            6.8407     4.3284    -1.3594 C.3     
  15 F15            1.2289    -2.0319    -0.0206 F       
  16 F16           -1.1587    -0.6952     0.0098 F       
  17 F17           -1.1958     2.0414     0.0188 F       
  18 H18            1.1570     3.1701     0.0080 H       
  19 H19            2.9121     3.8680    -0.8941 H       
  20 H20            2.9277     3.8584     0.8858 H       
  21 H21            4.7930     5.2217     0.0763 H       
  22 H22            5.4361     3.7354     0.8150 H       
  23 H23            6.8125     5.4158    -1.2911 H       
  24 H24            7.4556     3.9295    -0.5525 H       
  25 H25            7.2662     4.0354    -2.3192 H       
@<TRIPOS>BOND
   1    1    2 ar
   2    1    6 ar
   3    1   17 1
   4    2    3 ar
   5    2   16 1
   6    3    4 ar
   7    3   15 1
   8    4    5 ar
   9    4    7 1
  10    5    6 ar
  11    5   10 1
  12    6   18 1
  13    7    8 2
  14    7    9 2
  15   10   11 1
  16   11   12 1
  17   11   19 1
  18   11   20 1
  19   12   13 1
  20   12   21 1
  21   12   22 1
  22   13   14 1
  23   14   23 1
  24   14   24 1
  25   14   25 1

#	End of record

