#	Name: ASD03090839
#	Creating user name:	WinNT
#	Creation time:	15. 06. 2019 20:29

#	Modifying user name:	WinNT
#	Modification time:	15. 06. 2019 20:29

#	Program:	/corina/corina34_cracker 3.40 0067  02.08.2006

@<TRIPOS>MOLECULE
ASD03090839
  35   37    0    0    0
SMALL
NO_CHARGES


@<TRIPOS>ATOM
   1 C1             0.0568     1.8099     0.0562 C.3     
   2 S2             0.0588    -0.0039     0.0337 S.o2    
   3 O3             0.9061    -0.5144     1.0538 O.2     
   4 O4            -1.2607    -0.5019    -0.1399 O.2     
   5 N5             0.8330    -0.3988    -1.3759 N.am    
   6 S6             0.4915    -3.0879    -0.7854 S.3     
   7 C7             1.0039    -1.6567    -1.6992 C.2     
   8 N8             1.6177    -2.1563    -2.8178 N.pl3   
   9 C9             1.6712    -3.5162    -2.9293 C.2     
  10 C10            1.1350    -4.2447    -1.9646 C.2     
  11 O11            3.7829     1.1496    -6.6962 O.3     
  12 C12            3.2688     2.4828    -6.7850 C.3     
  13 C13            3.1958     3.0650    -5.3669 C.3     
  14 O14            2.3285     2.2355    -4.5862 O.3     
  15 C15            2.5184     0.8910    -4.6815 C.ar    
  16 C16            3.2428     0.3478    -5.7367 C.ar    
  17 C17            1.9796     0.0588    -3.7129 C.ar    
  18 C18            2.1625    -1.3146    -3.7975 C.ar    
  19 C19            2.8846    -1.8541    -4.8531 C.ar    
  20 C20            3.4220    -1.0248    -5.8188 C.ar    
  21 F21            4.4733     3.0802    -4.7968 F       
  22 F22            2.6851     4.3665    -5.4168 F       
  23 F23            4.1198     3.2651    -7.5730 F       
  24 F24            1.9898     2.4585    -7.3515 F       
  25 C25            1.0818    -5.7486    -1.8842 C.3     
  26 H26            1.0838     2.1746     0.0402 H       
  27 H27           -0.4752     2.1836    -0.8187 H       
  28 H28           -0.4395     2.1615     0.9608 H       
  29 H29            2.1387    -3.9844    -3.7828 H       
  30 H30            1.4182     0.4791    -2.8916 H       
  31 H31            3.0262    -2.9227    -4.9198 H       
  32 H32            3.9833    -1.4467    -6.6394 H       
  33 H33            0.5737    -6.0457    -0.9668 H       
  34 H34            0.5375    -6.1393    -2.7440 H       
  35 H35            2.0958    -6.1485    -1.8838 H       
@<TRIPOS>BOND
   1    1    2 1
   2    1   26 1
   3    1   27 1
   4    1   28 1
   5    2    3 2
   6    2    4 2
   7    2    5 am
   8    5    7 2
   9    6    7 1
  10    6   10 1
  11    7    8 1
  12    8    9 1
  13    8   18 1
  14    9   10 2
  15    9   29 1
  16   10   25 1
  17   11   12 1
  18   11   16 1
  19   12   13 1
  20   12   23 1
  21   12   24 1
  22   13   14 1
  23   13   21 1
  24   13   22 1
  25   14   15 1
  26   15   16 ar
  27   15   17 ar
  28   16   20 ar
  29   17   18 ar
  30   17   30 1
  31   18   19 ar
  32   19   20 ar
  33   19   31 1
  34   20   32 1
  35   25   33 1
  36   25   34 1
  37   25   35 1

#	End of record

