#	Name: ASD01882752
#	Creating user name:	WinNT
#	Creation time:	15. 06. 2019 19:45

#	Modifying user name:	WinNT
#	Modification time:	15. 06. 2019 19:45

#	Program:	/corina/corina34_cracker 3.40 0067  02.08.2006

@<TRIPOS>MOLECULE
ASD01882752
  58   59    0    0    0
SMALL
NO_CHARGES


@<TRIPOS>ATOM
   1 C1            -0.0166     1.3739     0.0096 C.ar    
   2 C2             0.0021    -0.0041     0.0020 C.ar    
   3 C3             1.2214    -0.6861    -0.0133 C.ar    
   4 C4             2.4208     0.0327    -0.0208 C.ar    
   5 C5             2.3947     1.4132    -0.0132 C.ar    
   6 C6             1.1740     2.0874     0.0021 C.ar    
   7 O7             1.1501     3.4451     0.0091 O.3     
   8 C8            -0.1343     4.0712     0.0243 C.3     
   9 C9             0.0394     5.5913     0.0303 C.3     
  10 C10           -1.3358     6.2617     0.0465 C.3     
  11 C11           -1.1620     7.7818     0.0525 C.3     
  12 O12           -2.4464     8.4080     0.0676 O.3     
  13 C13           -2.4703     9.7645     0.0747 C.ar    
  14 C14           -3.7125    11.8172     0.1029 C.ar    
  15 C15           -3.6857    10.4333     0.0952 C.ar    
  16 C16           -1.2745    10.4785     0.0671 C.ar    
  17 C17           -1.2849    11.8427     0.0750 C.ar    
  18 C18           -2.5033    12.5356     0.0903 C.ar    
  19 C19           -4.9754     9.6538     0.1086 C.3     
  20 O20           -4.8973    12.4764     0.1233 O.3     
  21 C21           -2.5172    14.0003     0.0978 C.2     
  22 O22           -3.5736    14.5970     0.1148 O.2     
  23 C23           -1.2194    14.7662     0.0842 C.3     
  24 C24           -1.5132    16.2677     0.0956 C.3     
  25 O25            3.5594     2.1154    -0.0200 O.3     
  26 C26            1.2434    -2.1606    -0.0209 C.2     
  27 O27            2.3046    -2.7523    -0.0342 O.2     
  28 O28            0.0867    -2.8518    -0.0131 O.3     
  29 C29            4.7723     1.3600    -0.0352 C.3     
  30 C30           -0.1956    17.0453     0.0819 C.3     
  31 H31           -0.9599     1.8998     0.0169 H       
  32 H32           -0.9258    -0.5568     0.0082 H       
  33 H33            3.3654    -0.4907    -0.0323 H       
  34 H34           -0.6943     3.7730    -0.8620 H       
  35 H35           -0.6777     3.7641     0.9178 H       
  36 H36            0.5995     5.8895     0.9166 H       
  37 H37            0.5829     5.8985    -0.8633 H       
  38 H38           -1.8958     5.9636    -0.8398 H       
  39 H39           -1.8792     5.9546     0.9400 H       
  40 H40           -0.6020     8.0800     0.9388 H       
  41 H41           -0.6186     8.0890    -0.8411 H       
  42 H42           -0.3333     9.9490     0.0553 H       
  43 H43           -0.3534    12.3894     0.0697 H       
  44 H44           -5.3003     9.4713    -0.9157 H       
  45 H45           -4.8191     8.7015     0.6153 H       
  46 H46           -5.7396    10.2248     0.6359 H       
  47 H47           -5.2284    12.6630     1.0125 H       
  48 H48           -0.6335    14.5040     0.9652 H       
  49 H49           -0.6573    14.5128    -0.8146 H       
  50 H50           -2.0991    16.5300    -0.7853 H       
  51 H51           -2.0753    16.5212     0.9944 H       
  52 H52            0.1517    -3.8166    -0.0186 H       
  53 H53            4.8172     0.7270     0.8510 H       
  54 H54            4.8009     0.7366    -0.9289 H       
  55 H55            5.6240     2.0403    -0.0393 H       
  56 H56            0.3665    16.7919    -0.8169 H       
  57 H57           -0.4049    18.1150     0.0900 H       
  58 H58            0.3903    16.7830     0.9628 H       
@<TRIPOS>BOND
   1    1    2 ar
   2    1    6 ar
   3    1   31 1
   4    2    3 ar
   5    2   32 1
   6    3    4 ar
   7    3   26 1
   8    4    5 ar
   9    4   33 1
  10    5    6 ar
  11    5   25 1
  12    6    7 1
  13    7    8 1
  14    8    9 1
  15    8   34 1
  16    8   35 1
  17    9   10 1
  18    9   36 1
  19    9   37 1
  20   10   11 1
  21   10   38 1
  22   10   39 1
  23   11   12 1
  24   11   40 1
  25   11   41 1
  26   12   13 1
  27   13   16 ar
  28   13   15 ar
  29   14   15 ar
  30   14   18 ar
  31   14   20 1
  32   15   19 1
  33   16   17 ar
  34   16   42 1
  35   17   18 ar
  36   17   43 1
  37   18   21 1
  38   19   44 1
  39   19   45 1
  40   19   46 1
  41   20   47 1
  42   21   22 2
  43   21   23 1
  44   23   24 1
  45   23   48 1
  46   23   49 1
  47   24   30 1
  48   24   50 1
  49   24   51 1
  50   25   29 1
  51   26   27 2
  52   26   28 1
  53   28   52 1
  54   29   53 1
  55   29   54 1
  56   29   55 1
  57   30   56 1
  58   30   57 1
  59   30   58 1

#	End of record

