#	Name: ASD03081339
#	Creating user name:	WinNT
#	Creation time:	15. 06. 2019 20:27

#	Modifying user name:	WinNT
#	Modification time:	15. 06. 2019 20:27

#	Program:	/corina/corina34_cracker 3.40 0067  02.08.2006

@<TRIPOS>MOLECULE
ASD03081339
  36   38    0    0    0
SMALL
NO_CHARGES


@<TRIPOS>ATOM
   1 O1            -0.0159     1.3441     0.0064 O.3     
   2 C2             0.0024    -0.0044     0.0066 C.2     
   3 N3             1.2615    -0.3808     0.0012 N.2     
   4 N4             2.0184     0.6596    -0.0023 N.2     
   5 C5             1.2733     1.7412     0.0007 C.2     
   6 C6             0.8557     4.2020     0.0020 C.ar    
   7 C7             1.7583     3.1368    -0.0017 C.ar    
   8 C8             3.1307     3.4136    -0.0072 C.ar    
   9 C9             3.5326     4.7378    -0.0087 C.ar    
  10 C10            2.5752     5.7360    -0.0049 C.ar    
  11 N11            1.2881     5.4457     0.0003 N.ar    
  12 C12           -1.1759    -0.8944     0.0123 C.ar    
  13 C13           -1.0063    -2.2809     0.0118 C.ar    
  14 C14           -2.1086    -3.1079     0.0176 C.ar    
  15 C15           -3.3869    -2.5645     0.0235 C.ar    
  16 C16           -3.5600    -1.1863     0.0240 C.ar    
  17 C17           -2.4631    -0.3522     0.0240 C.ar    
  18 O18           -4.4708    -3.3832     0.0283 O.3     
  19 C19           -4.2250    -4.7857    -0.0931 C.3     
  20 C20           -3.9242    -5.3721     1.2877 C.3     
  21 C21           -5.4605    -5.4710    -0.6802 C.3     
  22 H22           -0.2060     4.0042     0.0017 H       
  23 H23            3.8570     2.6143    -0.0098 H       
  24 H24            4.5829     4.9892    -0.0126 H       
  25 H25            2.8863     6.7703    -0.0057 H       
  26 H26           -0.0127    -2.7042     0.0065 H       
  27 H27           -1.9783    -4.1800     0.0172 H       
  28 H28           -4.5556    -0.7679     0.0282 H       
  29 H29           -2.5985     0.7193     0.0289 H       
  30 H30           -3.3716    -4.9494    -0.7511 H       
  31 H31           -4.7776    -5.2084     1.9457 H       
  32 H32           -3.7367    -6.4419     1.1951 H       
  33 H33           -3.0440    -4.8839     1.7059 H       
  34 H34           -5.6748    -5.0532    -1.6638 H       
  35 H35           -5.2730    -6.5408    -0.7728 H       
  36 H36           -6.3139    -5.3073    -0.0221 H       
@<TRIPOS>BOND
   1    1    2 1
   2    1    5 1
   3    2    3 2
   4    2   12 1
   5    3    4 1
   6    4    5 2
   7    5    7 1
   8    6    7 ar
   9    6   11 ar
  10    6   22 1
  11    7    8 ar
  12    8    9 ar
  13    8   23 1
  14    9   10 ar
  15    9   24 1
  16   10   11 ar
  17   10   25 1
  18   12   13 ar
  19   12   17 ar
  20   13   14 ar
  21   13   26 1
  22   14   15 ar
  23   14   27 1
  24   15   16 ar
  25   15   18 1
  26   16   17 ar
  27   16   28 1
  28   17   29 1
  29   18   19 1
  30   19   20 1
  31   19   21 1
  32   19   30 1
  33   20   31 1
  34   20   32 1
  35   20   33 1
  36   21   34 1
  37   21   35 1
  38   21   36 1

#	End of record

