#	Name: ASD01208128
#	Creating user name:	WinNT
#	Creation time:	15. 06. 2019 19:09

#	Modifying user name:	WinNT
#	Modification time:	15. 06. 2019 19:09

#	Program:	/corina/corina34_cracker 3.40 0067  02.08.2006

@<TRIPOS>MOLECULE
ASD01208128
  74   78    0    0    0
SMALL
NO_CHARGES


@<TRIPOS>ATOM
   1 C1             0.1816     1.1064     0.3251 C.ar    
   2 C2            -0.0407    -0.2628     0.3326 C.ar    
   3 C3            -1.3149    -0.7642     0.1055 C.ar    
   4 C4            -2.3699     0.1016    -0.1302 C.ar    
   5 C5            -2.1505     1.4797    -0.1385 C.ar    
   6 C6            -0.8691     1.9795     0.0960 C.ar    
   7 C7            -3.2734     2.4075    -0.3900 C.2     
   8 C8            -3.1918     3.7812    -0.4254 C.2     
   9 N9            -4.5691     2.0484    -0.6331 N.pl3   
  10 C10           -5.3128     3.1900    -0.8176 C.2     
  11 C11           -4.4705     4.2734    -0.6913 C.2     
  12 O12            1.4311     1.5922     0.5485 O.3     
  13 C13            1.6139     3.0023     0.4065 C.3     
  14 C14            3.0783     3.2959     0.0748 C.3     
  15 O15            3.9021     2.9172     1.1794 O.3     
  16 C16            1.2377     3.6997     1.7154 C.3     
  17 O17           -1.5274    -2.1063     0.1138 O.3     
  18 C18           -1.8454    -2.7083    -1.0601 C.ar    
  19 C19           -2.1865    -4.0586    -1.0897 C.ar    
  20 C20           -1.8400    -1.9823    -2.2479 C.ar    
  21 C21           -2.1706    -2.6362    -3.4215 C.ar    
  22 C22           -2.4959    -3.9913    -3.3751 C.ar    
  23 N23           -2.4956    -4.6495    -2.2213 N.ar    
  24 C24           -6.7536     3.2452    -1.1030 C.2     
  25 N25           -7.4040     4.3599    -1.2687 N.2     
  26 C26           -8.8220     4.0385    -1.5221 C.3     
  27 C27           -8.9014     2.5566    -1.0816 C.3     
  28 O28           -7.5253     2.1435    -1.2237 O.3     
  29 C29           -2.8516    -4.7017    -4.6228 C.2     
  30 N30           -3.0082    -6.0403    -4.6149 N.am    
  31 C31           -9.3676     2.4397     0.3710 C.3     
  32 C32            5.2964     3.1512     0.9716 C.3     
  33 C33           -3.5636    -6.7423    -5.7820 C.3     
  34 C34           -2.6226    -6.8386    -3.4413 C.3     
  35 C35           -1.7194    -7.9852    -3.9080 C.3     
  36 N36           -2.3969    -8.7352    -4.9740 N.3     
  37 C37           -2.6214    -7.8929    -6.1518 C.3     
  38 C38           -1.6408    -9.9433    -5.3300 C.3     
  39 O39           -3.0026    -4.0782    -5.6552 O.2     
  40 H40            0.7800    -0.9406     0.5153 H       
  41 H41           -3.3610    -0.2893    -0.3076 H       
  42 H42           -0.6951     3.0454     0.0903 H       
  43 H43           -2.3000     4.3712    -0.2741 H       
  44 H44           -4.9077     1.1401    -0.6695 H       
  45 H45           -4.7490     5.3130    -0.7813 H       
  46 H46            0.9780     3.3719    -0.3979 H       
  47 H47            3.3716     2.7285    -0.8085 H       
  48 H48            3.2001     4.3613    -0.1208 H       
  49 H49            1.8736     3.3301     2.5198 H       
  50 H50            1.3772     4.7753     1.6071 H       
  51 H51            0.1944     3.4906     1.9517 H       
  52 H52           -2.1966    -4.6265    -0.1712 H       
  53 H53           -1.5841    -0.9331    -2.2531 H       
  54 H54           -2.1771    -2.1040    -4.3612 H       
  55 H55           -9.4770     4.6612    -0.9126 H       
  56 H56           -9.0617     4.1433    -2.5802 H       
  57 H57           -9.5496     1.9852    -1.7459 H       
  58 H58          -10.3561     2.8876     0.4725 H       
  59 H59           -9.4143     1.3881     0.6541 H       
  60 H60           -8.6644     2.9601     1.0212 H       
  61 H61            5.8530     2.8377     1.8549 H       
  62 H62            5.6357     2.5808     0.1070 H       
  63 H63            5.4642     4.2136     0.7947 H       
  64 H64           -4.5481    -7.1400    -5.5358 H       
  65 H65           -3.6441    -6.0510    -6.6209 H       
  66 H66           -2.0814    -6.2110    -2.7334 H       
  67 H67           -3.5151    -7.2457    -2.9661 H       
  68 H68           -0.7825    -7.5784    -4.2884 H       
  69 H69           -1.5137    -8.6505    -3.0694 H       
  70 H70           -3.0750    -8.4886    -6.9439 H       
  71 H71           -1.6694    -7.4908    -6.4982 H       
  72 H72           -1.5494   -10.5860    -4.4543 H       
  73 H73           -2.1645   -10.4797    -6.1212 H       
  74 H74           -0.6474    -9.6607    -5.6785 H       
@<TRIPOS>BOND
   1    1    2 ar
   2    1   12 1
   3    1    6 ar
   4    2    3 ar
   5    2   40 1
   6    3    4 ar
   7    3   17 1
   8    4    5 ar
   9    4   41 1
  10    5    6 ar
  11    5    7 1
  12    6   42 1
  13    7    8 2
  14    7    9 1
  15    8   11 1
  16    8   43 1
  17    9   10 1
  18    9   44 1
  19   10   11 2
  20   10   24 1
  21   11   45 1
  22   12   13 1
  23   13   14 1
  24   13   16 1
  25   13   46 1
  26   14   15 1
  27   14   47 1
  28   14   48 1
  29   15   32 1
  30   16   49 1
  31   16   50 1
  32   16   51 1
  33   17   18 1
  34   18   19 ar
  35   18   20 ar
  36   19   23 ar
  37   19   52 1
  38   20   21 ar
  39   20   53 1
  40   21   22 ar
  41   21   54 1
  42   22   23 ar
  43   22   29 1
  44   24   25 2
  45   24   28 1
  46   25   26 1
  47   26   27 1
  48   26   55 1
  49   26   56 1
  50   27   28 1
  51   27   31 1
  52   27   57 1
  53   29   30 am
  54   29   39 2
  55   30   33 1
  56   30   34 1
  57   31   58 1
  58   31   59 1
  59   31   60 1
  60   32   61 1
  61   32   62 1
  62   32   63 1
  63   33   37 1
  64   33   64 1
  65   33   65 1
  66   34   35 1
  67   34   66 1
  68   34   67 1
  69   35   36 1
  70   35   68 1
  71   35   69 1
  72   36   37 1
  73   36   38 1
  74   37   70 1
  75   37   71 1
  76   38   72 1
  77   38   73 1
  78   38   74 1

#	End of record

