#	Name: ASD01230555
#	Creating user name:	WinNT
#	Creation time:	15. 06. 2019 19:14

#	Modifying user name:	WinNT
#	Modification time:	15. 06. 2019 19:14

#	Program:	/corina/corina34_cracker 3.40 0067  02.08.2006

@<TRIPOS>MOLECULE
ASD01230555
  40   43    0    0    0
SMALL
NO_CHARGES


@<TRIPOS>ATOM
   1 S1             1.2296     0.9005     1.3233 S.o2    
   2 N2             0.8973    -0.6726     0.9323 N.am    
   3 C3             1.7527    -1.4291     0.2884 C.2     
   4 N4             2.9919    -1.0416    -0.1355 N.pl3   
   5 C5             3.5208     0.3165     0.0153 C.3     
   6 C6             3.0500     0.9342     1.3350 C.3     
   7 C7             1.3121    -2.8133     0.0135 C.2     
   8 C8             2.1745    -3.6776    -0.6252 C.2     
   9 C9             3.4449    -3.2174    -0.9982 C.2     
  10 C10            3.8173    -1.9501    -0.7503 C.2     
  11 C11           -0.0382    -3.2651     0.4195 C.ar    
  12 C12           -0.1811    -4.2602     1.3872 C.ar    
  13 C13           -1.4401    -4.6780     1.7631 C.ar    
  14 C14           -2.5650    -4.1103     1.1796 C.ar    
  15 C15           -2.4266    -3.1198     0.2162 C.ar    
  16 C16           -1.1709    -2.6928    -0.1605 C.ar    
  17 O17           -3.8043    -4.5252     1.5520 O.3     
  18 C18           -4.2904    -4.0916     2.7422 C.ar    
  19 C19           -5.5058    -4.5782     3.2071 C.ar    
  20 C20           -5.9906    -4.1285     4.4226 C.ar    
  21 C21           -5.2382    -3.2026     5.1343 C.ar    
  22 C22           -4.0378    -2.7622     4.6108 C.ar    
  23 N23           -3.5999    -3.2139     3.4508 N.ar    
  24 Cl24          -5.8003    -2.6050     6.6642 Cl      
  25 O25            0.7182     1.6555     0.2335 O.2     
  26 O26            0.7137     1.0589     2.6378 O.2     
  27 H27            4.6102     0.2814     0.0034 H       
  28 H28            3.1726     0.9321    -0.8141 H       
  29 H29            3.4020     1.9630     1.4102 H       
  30 H30            3.4269     0.3494     2.1741 H       
  31 H31            1.8764    -4.6942    -0.8349 H       
  32 H32            4.1328    -3.8893    -1.4899 H       
  33 H33            4.8062    -1.6333    -1.0471 H       
  34 H34            0.6934    -4.7027     1.8409 H       
  35 H35           -1.5515    -5.4481     2.5121 H       
  36 H36           -3.3037    -2.6807    -0.2357 H       
  37 H37           -1.0641    -1.9196    -0.9069 H       
  38 H38           -6.0649    -5.2976     2.6274 H       
  39 H39           -6.9326    -4.4889     4.8090 H       
  40 H40           -3.4488    -2.0422     5.1594 H       
@<TRIPOS>BOND
   1    1    2 am
   2    1    6 1
   3    1   25 2
   4    1   26 2
   5    2    3 2
   6    3    4 1
   7    3    7 1
   8    4    5 1
   9    4   10 1
  10    5    6 1
  11    5   27 1
  12    5   28 1
  13    6   29 1
  14    6   30 1
  15    7    8 2
  16    7   11 1
  17    8    9 1
  18    8   31 1
  19    9   10 2
  20    9   32 1
  21   10   33 1
  22   11   12 ar
  23   11   16 ar
  24   12   13 ar
  25   12   34 1
  26   13   14 ar
  27   13   35 1
  28   14   15 ar
  29   14   17 1
  30   15   16 ar
  31   15   36 1
  32   16   37 1
  33   17   18 1
  34   18   19 ar
  35   18   23 ar
  36   19   20 ar
  37   19   38 1
  38   20   21 ar
  39   20   39 1
  40   21   22 ar
  41   21   24 1
  42   22   23 ar
  43   22   40 1

#	End of record

