#	Name: ASD01911083
#	Creating user name:	WinNT
#	Creation time:	15. 06. 2019 19:57

#	Modifying user name:	WinNT
#	Modification time:	15. 06. 2019 19:57

#	Program:	/corina/corina34_cracker 3.40 0067  02.08.2006

@<TRIPOS>MOLECULE
ASD01911083
  48   51    0    0    0
SMALL
NO_CHARGES


@<TRIPOS>ATOM
   1 C1             0.7976     1.9743     1.0848 C.3     
   2 C2             0.4557     0.5081     1.0178 C.2     
   3 N3             0.4090    -0.3297     2.0255 N.2     
   4 C4             0.0646    -1.5163     1.4941 C.2     
   5 N5            -0.0779    -1.3428     0.2141 N.2     
   6 O6             0.1367    -0.1855    -0.0791 O.3     
   7 C7            -0.1214    -2.8096     2.2450 C.3     
   8 C8            -1.5552    -3.3095     2.0539 C.3     
   9 C9            -1.7546    -4.6057     2.8428 C.3     
  10 C10           -0.7948    -5.6750     2.3115 C.3     
  11 N11            0.5750    -5.1456     2.3570 N.am    
  12 C12            0.8569    -3.8585     1.7069 C.3     
  13 C13            1.5543    -5.8276     2.9832 C.2     
  14 O14            2.6970    -5.4138     2.9552 O.2     
  15 C15            1.2391    -7.0782     3.7037 C.ar    
  16 C16            0.5070    -8.0856     3.0717 C.ar    
  17 C17            0.2157    -9.2504     3.7486 C.ar    
  18 C18            0.6481    -9.4229     5.0547 C.ar    
  19 C19            1.3749    -8.4257     5.6870 C.ar    
  20 C20            1.6771    -7.2595     5.0173 C.ar    
  21 F21            0.3598   -10.5665     5.7136 F       
  22 C22            2.1918     2.1897     0.5549 C.ar    
  23 C23            3.2630     2.2381     1.4273 C.ar    
  24 C24            4.5418     2.4358     0.9412 C.ar    
  25 C25            4.7496     2.5847    -0.4173 C.ar    
  26 C26            3.6785     2.5354    -1.2898 C.ar    
  27 C27            2.4001     2.3334    -0.8041 C.ar    
  28 O28           -0.1326     2.7168     0.2940 O.3     
  29 H29            0.7459     2.3125     2.1197 H       
  30 H30            0.0681    -2.6449     3.3057 H       
  31 H31           -2.2540    -2.5544     2.4135 H       
  32 H32           -1.7363    -3.4970     0.9955 H       
  33 H33           -1.5495    -4.4247     3.8979 H       
  34 H34           -2.7825    -4.9487     2.7251 H       
  35 H35           -0.8623    -6.5679     2.9329 H       
  36 H36           -1.0569    -5.9226     1.2828 H       
  37 H37            0.7295    -3.9579     0.6289 H       
  38 H38            1.8792    -3.5528     1.9295 H       
  39 H39            0.1694    -7.9520     2.0546 H       
  40 H40           -0.3508   -10.0299     3.2609 H       
  41 H41            1.7091    -8.5650     6.7046 H       
  42 H42            2.2436    -6.4836     5.5106 H       
  43 H43            3.1007     2.1217     2.4886 H       
  44 H44            5.3787     2.4742     1.6229 H       
  45 H45            5.7487     2.7398    -0.7970 H       
  46 H46            3.8408     2.6521    -2.3512 H       
  47 H47            1.5633     2.2949    -1.4858 H       
  48 H48           -0.1410     2.4682    -0.6405 H       
@<TRIPOS>BOND
   1    1    2 1
   2    1   22 1
   3    1   28 1
   4    1   29 1
   5    2    3 2
   6    2    6 1
   7    3    4 1
   8    4    5 2
   9    4    7 1
  10    5    6 1
  11    7    8 1
  12    7   12 1
  13    7   30 1
  14    8    9 1
  15    8   31 1
  16    8   32 1
  17    9   10 1
  18    9   33 1
  19    9   34 1
  20   10   11 1
  21   10   35 1
  22   10   36 1
  23   11   12 1
  24   11   13 am
  25   12   37 1
  26   12   38 1
  27   13   14 2
  28   13   15 1
  29   15   16 ar
  30   15   20 ar
  31   16   17 ar
  32   16   39 1
  33   17   18 ar
  34   17   40 1
  35   18   19 ar
  36   18   21 1
  37   19   20 ar
  38   19   41 1
  39   20   42 1
  40   22   23 ar
  41   22   27 ar
  42   23   24 ar
  43   23   43 1
  44   24   25 ar
  45   24   44 1
  46   25   26 ar
  47   25   45 1
  48   26   27 ar
  49   26   46 1
  50   27   47 1
  51   28   48 1

#	End of record

