#	Name: ASD03082443
#	Creating user name:	WinNT
#	Creation time:	15. 06. 2019 20:27

#	Modifying user name:	WinNT
#	Modification time:	15. 06. 2019 20:27

#	Program:	/corina/corina34_cracker 3.40 0067  02.08.2006

@<TRIPOS>MOLECULE
ASD03082443
  50   52    0    0    0
SMALL
NO_CHARGES


@<TRIPOS>ATOM
   1 C1             1.0957     3.4372    -0.4834 C.ar    
   2 C2             0.0397     4.0501    -1.1475 C.ar    
   3 C3            -0.0098     5.4269    -1.2449 C.ar    
   4 C4             0.9897     6.1986    -0.6828 C.ar    
   5 C5             2.0467     5.5923    -0.0185 C.ar    
   6 N6             1.1463     2.0447    -0.3851 N.pl3   
   7 C7             2.3816     1.3942    -0.2958 C.2     
   8 C8             2.5751     0.0188    -0.0809 C.2     
   9 N9             3.5599     1.9620    -0.4039 N.2     
  10 N10            4.5387     0.9708    -0.2563 N.pl3   
  11 C11            3.9063    -0.2154    -0.0588 C.2     
  12 C12            5.9220     1.1669    -0.3068 C.ar    
  13 C13            6.7448     0.2800    -0.9981 C.ar    
  14 C14            6.5131     2.2578     0.3283 C.ar    
  15 C15            7.8817     2.4157     0.2549 C.ar    
  16 N16            8.6280     1.5506    -0.4054 N.ar    
  17 C17            8.1055     0.5089    -1.0241 C.ar    
  18 C18            8.5325     3.5914     0.9370 C.3     
  19 H19            8.7514    -0.1761    -1.5533 H       
  20 C20            2.1030     4.2106     0.0770 C.ar    
  21 O21            3.0285     6.3526     0.5335 O.3     
  22 C22            4.5699    -1.5525     0.1482 C.3     
  23 C23            4.6203    -2.2964    -1.1614 C.2     
  24 N24            5.1743    -3.5238    -1.2183 N.am    
  25 O25            4.1625    -1.7907    -2.1641 O.2     
  26 C26            5.2233    -4.2470    -2.4914 C.3     
  27 C27            5.8971    -5.6045    -2.2811 C.3     
  28 C28            2.9089     7.7695     0.3919 C.3     
  29 F29            1.7196     8.1991     0.9903 F       
  30 F30            3.9957     8.3937     1.0135 F       
  31 F31            2.8943     8.1028    -0.9667 F       
  32 H32           -0.7424     3.4495    -1.5878 H       
  33 H33           -0.8309     5.9014    -1.7615 H       
  34 H34            0.9483     7.2750    -0.7610 H       
  35 H35            0.3249     1.5287    -0.3788 H       
  36 H36            1.7977    -0.7203     0.0450 H       
  37 H37            6.3236    -0.5748    -1.5064 H       
  38 H38            5.9081     2.9697     0.8701 H       
  39 H39            8.7997     3.3171     1.9575 H       
  40 H40            9.4313     3.8767     0.3903 H       
  41 H41            7.8373     4.4307     0.9565 H       
  42 H42            2.9248     3.7371     0.5936 H       
  43 H43            5.5835    -1.4014     0.5196 H       
  44 H44            3.9998    -2.1326     0.8739 H       
  45 H45            5.5404    -3.9283    -0.4163 H       
  46 H46            4.2097    -4.3981    -2.8627 H       
  47 H47            5.7934    -3.6669    -3.2170 H       
  48 H48            6.9107    -5.4534    -1.9098 H       
  49 H49            5.3270    -6.1846    -1.5555 H       
  50 H50            5.9335    -6.1426    -3.2284 H       
@<TRIPOS>BOND
   1    1    2 ar
   2    1    6 1
   3    1   20 ar
   4    2    3 ar
   5    2   32 1
   6    3    4 ar
   7    3   33 1
   8    4    5 ar
   9    4   34 1
  10    5   20 ar
  11    5   21 1
  12    6    7 1
  13    6   35 1
  14    7    8 1
  15    7    9 2
  16    8   11 2
  17    8   36 1
  18    9   10 1
  19   10   11 1
  20   10   12 1
  21   11   22 1
  22   12   13 ar
  23   12   14 ar
  24   13   17 ar
  25   13   37 1
  26   14   15 ar
  27   14   38 1
  28   15   16 ar
  29   15   18 1
  30   16   17 ar
  31   17   19 1
  32   18   39 1
  33   18   40 1
  34   18   41 1
  35   20   42 1
  36   21   28 1
  37   22   23 1
  38   22   43 1
  39   22   44 1
  40   23   24 am
  41   23   25 2
  42   24   26 1
  43   24   45 1
  44   26   27 1
  45   26   46 1
  46   26   47 1
  47   27   48 1
  48   27   49 1
  49   27   50 1
  50   28   29 1
  51   28   30 1
  52   28   31 1

#	End of record

