#	Name: ASD01410274
#	Creating user name:	WinNT
#	Creation time:	15. 06. 2019 19:17

#	Modifying user name:	WinNT
#	Modification time:	15. 06. 2019 19:17

#	Program:	/corina/corina34_cracker 3.40 0067  02.08.2006

@<TRIPOS>MOLECULE
ASD01410274
  94   98    0    0    0
SMALL
NO_CHARGES


@<TRIPOS>ATOM
   1 C1             0.0306     1.3650    -0.6476 C.ar    
   2 C2            -0.0181     0.0384    -0.2385 C.ar    
   3 C3             1.1299    -0.5919     0.2246 C.ar    
   4 C4             2.3218     0.0974     0.2803 C.ar    
   5 C5             2.3747     1.4309    -0.1300 C.ar    
   6 C6             1.2188     2.0608    -0.5954 C.ar    
   7 O7            -1.1911    -0.6440    -0.2911 O.3     
   8 C8            -1.1702    -2.0047     0.1447 C.3     
   9 C9            -2.5508    -2.5949     0.0154 C.2     
  10 N10           -2.7719    -3.8761     0.3706 N.am    
  11 O11           -3.4628    -1.9170    -0.4082 O.2     
  12 C12           -4.1140    -4.4498     0.2449 C.3     
  13 C13           -4.0916    -5.9067     0.7115 C.3     
  14 C14           -5.4933    -6.5059     0.5802 C.3     
  15 N15           -5.4718    -7.9048     1.0283 N.3     
  16 C16           -6.8342    -8.4421     1.1421 C.3     
  17 C17           -4.6527    -8.7320     0.1322 C.3     
  18 N18            4.8378     1.6485    -0.2547 N.2     
  19 C19            3.6511     2.1738    -0.0719 C.2     
  20 N20            3.7712     3.5144     0.1811 N.pl3   
  21 C21            5.1157     3.8187     0.1491 C.ar    
  22 C22            5.7844     2.6119    -0.1313 C.ar    
  23 C23            5.8392     4.9923     0.3282 C.ar    
  24 C24            7.2005     4.9803     0.2331 C.ar    
  25 C25            7.8828     3.7885    -0.0457 C.ar    
  26 C26            7.1764     2.6038    -0.2277 C.ar    
  27 C27            1.9416     4.0410     1.7162 C.3     
  28 C28            0.7964     5.0196     1.9840 C.3     
  29 C29            1.3608     6.4319     2.1506 C.3     
  30 C30            2.0938     6.8423     0.8719 C.3     
  31 C31            3.2391     5.8637     0.6041 C.3     
  32 C32            2.6746     4.4515     0.4375 C.3     
  33 C33            9.3561     3.7899    -0.1463 C.2     
  34 N34           10.0425     4.9364     0.0300 N.am    
  35 O35            9.9499     2.7570    -0.3882 O.2     
  36 C36           11.5041     4.9378    -0.0698 C.3     
  37 C37           12.0303     6.3543     0.1701 C.3     
  38 C38           15.6820     6.1291     1.1048 C.ar    
  39 C39           16.2973     6.3582    -0.1150 C.ar    
  40 C40           15.5236     6.5872    -1.2492 C.ar    
  41 C41           14.1417     6.5851    -1.1532 C.ar    
  42 C42           13.5338     6.3558     0.0675 C.ar    
  43 C43           14.3020     6.1284     1.1937 C.ar    
  44 O44           17.6544     6.3597    -0.2040 O.3     
  45 O45           16.1231     6.8130    -2.4488 O.3     
  46 C46           18.3838     6.1180     1.0007 C.3     
  47 C47           15.2662     7.0404    -3.5696 C.3     
  48 H48           -0.8631     1.8504    -1.0113 H       
  49 H49            1.0881    -1.6235     0.5418 H       
  50 H50            3.2137    -0.3932     0.6411 H       
  51 H51            1.2560     3.0921    -0.9139 H       
  52 H52           -0.4730    -2.5728    -0.4712 H       
  53 H53           -0.8528    -2.0477     1.1866 H       
  54 H54           -2.0425    -4.4183     0.7094 H       
  55 H55           -4.8112    -3.8817     0.8608 H       
  56 H56           -4.4314    -4.4068    -0.7970 H       
  57 H57           -3.3945    -6.4748     0.0956 H       
  58 H58           -3.7742    -5.9497     1.7534 H       
  59 H59           -6.1904    -5.9378     1.1962 H       
  60 H60           -5.8107    -6.4630    -0.4616 H       
  61 H61           -7.3262    -8.3938     0.1706 H       
  62 H62           -6.7892    -9.4789     1.4754 H       
  63 H63           -7.3982    -7.8523     1.8647 H       
  64 H64           -3.6308    -8.3529     0.1207 H       
  65 H65           -4.6540    -9.7627     0.4870 H       
  66 H66           -5.0657    -8.6942    -0.8758 H       
  67 H67            5.3225     5.9161     0.5428 H       
  68 H68            7.7559     5.8958     0.3735 H       
  69 H69            7.7015     1.6850    -0.4430 H       
  70 H70            2.6374     4.0576     2.5551 H       
  71 H71            1.5395     3.0349     1.5975 H       
  72 H72            0.1006     5.0031     1.1451 H       
  73 H73            0.2742     4.7273     2.8950 H       
  74 H74            0.5449     7.1291     2.3414 H       
  75 H75            2.0566     6.4485     2.9895 H       
  76 H76            1.3981     6.8258     0.0330 H       
  77 H77            2.4959     7.8485     0.9906 H       
  78 H78            3.7613     6.1561    -0.3069 H       
  79 H79            3.9348     5.8803     1.4430 H       
  80 H80            1.9789     4.4349    -0.4014 H       
  81 H81            9.5688     5.7605     0.2230 H       
  82 H82           11.9201     4.2640     0.6792 H       
  83 H83           11.8007     4.6035    -1.0640 H       
  84 H84           11.6143     7.0281    -0.5789 H       
  85 H85           11.7337     6.6885     1.1643 H       
  86 H86           16.2800     5.9468     1.9855 H       
  87 H87           13.5391     6.7629    -2.0317 H       
  88 H88           13.8235     5.9493     2.1452 H       
  89 H89           19.4529     6.1465     0.7901 H       
  90 H90           18.1376     6.8854     1.7347 H       
  91 H91           18.1174     5.1380     1.3964 H       
  92 H92           14.6271     6.1705    -3.7207 H       
  93 H93           14.6473     7.9177    -3.3817 H       
  94 H94           15.8707     7.2064    -4.4613 H       
@<TRIPOS>BOND
   1    1    2 ar
   2    1    6 ar
   3    1   48 1
   4    2    3 ar
   5    2    7 1
   6    3    4 ar
   7    3   49 1
   8    4    5 ar
   9    4   50 1
  10    5    6 ar
  11    5   19 1
  12    6   51 1
  13    7    8 1
  14    8    9 1
  15    8   52 1
  16    8   53 1
  17    9   10 am
  18    9   11 2
  19   10   12 1
  20   10   54 1
  21   12   13 1
  22   12   55 1
  23   12   56 1
  24   13   14 1
  25   13   57 1
  26   13   58 1
  27   14   15 1
  28   14   59 1
  29   14   60 1
  30   15   16 1
  31   15   17 1
  32   16   61 1
  33   16   62 1
  34   16   63 1
  35   17   64 1
  36   17   65 1
  37   17   66 1
  38   18   19 2
  39   18   22 1
  40   19   20 1
  41   20   21 1
  42   20   32 1
  43   21   22 ar
  44   21   23 ar
  45   22   26 ar
  46   23   24 ar
  47   23   67 1
  48   24   25 ar
  49   24   68 1
  50   25   26 ar
  51   25   33 1
  52   26   69 1
  53   27   28 1
  54   27   32 1
  55   27   70 1
  56   27   71 1
  57   28   29 1
  58   28   72 1
  59   28   73 1
  60   29   30 1
  61   29   74 1
  62   29   75 1
  63   30   31 1
  64   30   76 1
  65   30   77 1
  66   31   32 1
  67   31   78 1
  68   31   79 1
  69   32   80 1
  70   33   34 am
  71   33   35 2
  72   34   36 1
  73   34   81 1
  74   36   37 1
  75   36   82 1
  76   36   83 1
  77   37   42 1
  78   37   84 1
  79   37   85 1
  80   38   39 ar
  81   38   43 ar
  82   38   86 1
  83   39   40 ar
  84   39   44 1
  85   40   41 ar
  86   40   45 1
  87   41   42 ar
  88   41   87 1
  89   42   43 ar
  90   43   88 1
  91   44   46 1
  92   45   47 1
  93   46   89 1
  94   46   90 1
  95   46   91 1
  96   47   92 1
  97   47   93 1
  98   47   94 1

#	End of record

