#	Name: ASD01913845
#	Creating user name:	WinNT
#	Creation time:	15. 06. 2019 20:02

#	Modifying user name:	WinNT
#	Modification time:	15. 06. 2019 20:02

#	Program:	/corina/corina34_cracker 3.40 0067  02.08.2006

@<TRIPOS>MOLECULE
ASD01913845
  43   46    0    0    0
SMALL
NO_CHARGES


@<TRIPOS>ATOM
   1 C1            -0.0230     1.4277    -0.0311 C.ar    
   2 C2            -0.0019    -0.0041    -0.0268 C.1     
   3 C3             0.0153    -1.1780    -0.0232 C.1     
   4 C4             0.0364    -2.6098    -0.0189 C.ar    
   5 C5            -1.1340    -3.3384     0.2412 C.ar    
   6 C6             0.1560    -5.3344    -0.0290 C.ar    
   7 N7             1.2428    -4.6188    -0.2763 N.ar    
   8 C8             1.2210    -3.3021    -0.2793 C.ar    
   9 C9            -1.0632    -4.7170     0.2338 C.ar    
  10 N10            0.2331    -6.7250    -0.0385 N.am    
  11 C11            1.1470     2.1460    -0.2911 C.ar    
  12 C12            1.1205     3.5253    -0.2938 C.ar    
  13 C13           -1.2272     3.4940     0.2131 C.ar    
  14 C14           -1.2149     2.1128     0.2190 C.ar    
  15 C15           -0.0606     4.1988    -0.0400 C.ar    
  16 C16           -0.8158    -7.5617    -0.0338 C.2     
  17 N17           -0.4728    -8.8493     0.0267 N.am    
  18 C18            0.9928    -8.9669    -0.1221 C.3     
  19 C19            1.4781    -7.5100    -0.0616 C.3     
  20 C20           -1.3419   -10.0118     0.2590 C.3     
  21 C21           -0.7470   -10.8023     1.4335 C.3     
  22 C22            0.7341   -11.0777     1.1728 C.3     
  23 C23            1.5134    -9.7624     1.0785 C.3     
  24 O24           -1.9699    -7.1821    -0.0796 O.2     
  25 F25           -2.3780     4.1592     0.4546 F       
  26 H26           -2.0671    -2.8333     0.4426 H       
  27 H27            2.1276    -2.7525    -0.4853 H       
  28 H28           -1.9443    -5.3099     0.4303 H       
  29 H29            2.0705     1.6223    -0.4891 H       
  30 H30            2.0248     4.0808    -0.4944 H       
  31 H31           -2.1239     1.5640     0.4162 H       
  32 H32           -0.0751     5.2787    -0.0436 H       
  33 H33            1.2619    -9.4334    -1.0698 H       
  34 H34            2.0729    -7.2678    -0.9423 H       
  35 H35            2.0515    -7.3350     0.8487 H       
  36 H36           -2.3487    -9.6776     0.5094 H       
  37 H37           -1.3695   -10.6379    -0.6328 H       
  38 H38           -0.8521   -10.2228     2.3507 H       
  39 H39           -1.2784   -11.7480     1.5402 H       
  40 H40            1.1379   -11.6784     1.9878 H       
  41 H41            0.8394   -11.6271     0.2373 H       
  42 H42            2.5740    -9.9749     0.9441 H       
  43 H43            1.3670    -9.1846     1.9911 H       
@<TRIPOS>BOND
   1    1    2 1
   2    1   11 ar
   3    1   14 ar
   4    2    3 3
   5    3    4 1
   6    4    5 ar
   7    4    8 ar
   8    5    9 ar
   9    5   26 1
  10    6    7 ar
  11    6   10 1
  12    6    9 ar
  13    7    8 ar
  14    8   27 1
  15    9   28 1
  16   10   16 am
  17   10   19 1
  18   11   12 ar
  19   11   29 1
  20   12   15 ar
  21   12   30 1
  22   13   14 ar
  23   13   25 1
  24   13   15 ar
  25   14   31 1
  26   15   32 1
  27   16   17 am
  28   16   24 2
  29   17   18 1
  30   17   20 1
  31   18   19 1
  32   18   23 1
  33   18   33 1
  34   19   34 1
  35   19   35 1
  36   20   21 1
  37   20   36 1
  38   20   37 1
  39   21   22 1
  40   21   38 1
  41   21   39 1
  42   22   23 1
  43   22   40 1
  44   22   41 1
  45   23   42 1
  46   23   43 1

#	End of record

