#	Name: ASD03090608
#	Creating user name:	WinNT
#	Creation time:	15. 06. 2019 20:29

#	Modifying user name:	WinNT
#	Modification time:	15. 06. 2019 20:29

#	Program:	/corina/corina34_cracker 3.40 0067  02.08.2006

@<TRIPOS>MOLECULE
ASD03090608
  34   35    0    0    0
SMALL
NO_CHARGES


@<TRIPOS>ATOM
   1 N1            -0.0162     1.3436     0.0094 N.am    
   2 C2             0.0197     0.1477     0.6300 C.2     
   3 O3             1.0733    -0.2850     1.0557 O.2     
   4 N4            -1.1123    -0.5685     0.7788 N.am    
   5 S5            -2.4200    -2.8295     1.6864 S.3     
   6 C6            -1.0752    -1.8024     1.4192 C.2     
   7 N7            -0.0153    -2.3672     1.9139 N.2     
   8 N8            -0.1550    -3.4943     2.4652 N.2     
   9 C9            -1.3533    -3.9850     2.4855 C.2     
  10 C10           -1.7628    -5.3062     3.0838 C.3     
  11 F11           -0.6643    -5.8878     3.7258 F       
  12 F12           -2.7895    -5.0998     4.0114 F       
  13 F13           -2.2146    -6.1573     2.0697 F       
  14 C14            1.1451     2.1276    -0.0710 C.ar    
  15 C15            1.0448     3.5110    -0.1996 C.ar    
  16 C16            2.1922     4.2822    -0.2788 C.ar    
  17 C17            3.4390     3.6764    -0.2299 C.ar    
  18 C18            3.5375     2.2984    -0.1022 C.ar    
  19 C19            2.3934     1.5264    -0.0167 C.ar    
  20 O20            4.5657     4.4338    -0.3076 O.3     
  21 C21            4.3905     5.8460    -0.4385 C.3     
  22 O22           -0.1784     4.1034    -0.2478 O.3     
  23 C23           -0.2055     5.5259    -0.3805 C.3     
  24 Br24           5.2388     1.4755    -0.0365 Br      
  25 H25           -0.8437     1.6606    -0.3851 H       
  26 H26           -1.9528    -0.2234     0.4393 H       
  27 H27            2.1164     5.3549    -0.3789 H       
  28 H28            2.4720     0.4544     0.0878 H       
  29 H29            3.8305     6.0598    -1.3489 H       
  30 H30            3.8415     6.2254     0.4233 H       
  31 H31            5.3658     6.3299    -0.4898 H       
  32 H32            0.2962     5.8143    -1.3043 H       
  33 H33           -1.2399     5.8688    -0.4065 H       
  34 H34            0.3065     5.9798     0.4680 H       
@<TRIPOS>BOND
   1    1    2 am
   2    1   14 1
   3    1   25 1
   4    2    3 2
   5    2    4 am
   6    4    6 1
   7    4   26 1
   8    5    6 1
   9    5    9 1
  10    6    7 2
  11    7    8 1
  12    8    9 2
  13    9   10 1
  14   10   11 1
  15   10   12 1
  16   10   13 1
  17   14   15 ar
  18   14   19 ar
  19   15   16 ar
  20   15   22 1
  21   16   17 ar
  22   16   27 1
  23   17   18 ar
  24   17   20 1
  25   18   19 ar
  26   18   24 1
  27   19   28 1
  28   20   21 1
  29   21   29 1
  30   21   30 1
  31   21   31 1
  32   22   23 1
  33   23   32 1
  34   23   33 1
  35   23   34 1

#	End of record

