#	Name: ASD04882427
#	Creating user name:	WinNT
#	Creation time:	15. 06. 2019 20:54

#	Modifying user name:	WinNT
#	Modification time:	15. 06. 2019 20:54

#	Program:	/corina/corina34_cracker 3.40 0067  02.08.2006

@<TRIPOS>MOLECULE
ASD04882427
  84   88    0    0    0
SMALL
NO_CHARGES


@<TRIPOS>ATOM
   1 C1            -0.0215     1.4012    -0.0092 C.ar    
   2 C2            -0.0115     0.0036    -0.0053 C.ar    
   3 C3            -1.2093    -0.7019    -0.0160 C.ar    
   4 C4            -2.4096    -0.0269    -0.0309 C.ar    
   5 C5            -2.4267     1.3707    -0.0349 C.ar    
   6 C6            -1.2239     2.0825    -0.0184 C.ar    
   7 N7             1.1998    -0.6830     0.0089 N.3     
   8 C8             1.3076    -1.5363     1.2005 C.3     
   9 C9             1.3717    -1.4731    -1.2183 C.3     
  10 C10            2.7456    -2.1473    -1.1994 C.3     
  11 N11            2.8534    -3.0005    -0.0078 N.3     
  12 C12            2.6815    -2.2105     1.2194 C.3     
  13 C13           -3.7126     2.0937    -0.0509 C.2     
  14 O14           -3.7265     3.3095    -0.0543 O.2     
  15 N15           -4.8720     1.4064    -0.0616 N.am    
  16 N16            1.1866     2.1110     0.0021 N.am    
  17 C17            1.2296     3.3599     0.5068 C.2     
  18 O18            0.2069     3.8985     0.8853 O.2     
  19 C19            2.5162     4.0732     0.6000 C.2     
  20 C20            2.7107     5.3300     1.0850 C.2     
  21 O21            4.0248     5.5879     0.9878 O.3     
  22 C22            4.6246     4.5140     0.4551 C.2     
  23 N23            3.7337     3.5970     0.2228 N.2     
  24 C24            4.0684    -3.6893     0.0064 C.ar    
  25 C25            5.2670    -2.9867     0.0167 C.ar    
  26 C26            4.0811    -5.0781     0.0161 C.ar    
  27 C27            5.2845    -5.7561     0.0301 C.ar    
  28 C28            6.4755    -5.0538     0.0349 C.ar    
  29 C29            6.4663    -3.6707     0.0307 C.ar    
  30 C30            2.7835    -5.8444     0.0118 C.3     
  31 C31           -6.1489     2.1243    -0.0775 C.3     
  32 C32           -7.3003     1.1168    -0.0872 C.3     
  33 C33           -8.6339     1.8666    -0.1038 C.3     
  34 N34           -9.7364     0.9019    -0.1131 N.am    
  35 C35          -10.3196     0.4058     0.9917 C.2     
  36 C36          -10.3502     0.3576    -1.3301 C.3     
  37 C37          -11.1264    -0.8978    -0.8742 C.3     
  38 C38          -11.4123    -0.5685     0.6105 C.3     
  39 O39          -10.0138     0.6966     2.1288 O.2     
  40 C40            6.1000     4.3879     0.1751 C.3     
  41 N41            6.3831     4.8671    -1.1843 N.3     
  42 C42            6.1279     6.3093    -1.2980 C.3     
  43 C43            7.7602     4.5434    -1.5805 C.3     
  44 H44           -1.1986    -1.7819    -0.0129 H       
  45 H45           -3.3385    -0.5778    -0.0399 H       
  46 H46           -1.2340     3.1624    -0.0215 H       
  47 H47            1.1895    -0.9265     2.0963 H       
  48 H48            0.5288    -2.2984     1.1738 H       
  49 H49            0.5937    -2.2345    -1.2725 H       
  50 H50            1.3003    -0.8173    -2.0860 H       
  51 H51            2.8637    -2.7571    -2.0952 H       
  52 H52            3.5244    -1.3851    -1.1727 H       
  53 H53            3.4595    -1.4490     1.2736 H       
  54 H54            2.7529    -2.8663     2.0871 H       
  55 H55           -4.8609     0.4365    -0.0588 H       
  56 H56            1.9919     1.7035    -0.3534 H       
  57 H57            1.9524     5.9935     1.4736 H       
  58 H58            5.2605    -1.9067     0.0133 H       
  59 H59            5.2951    -6.8360     0.0376 H       
  60 H60            7.4149    -5.5863     0.0466 H       
  61 H61            7.3984    -3.1252     0.0345 H       
  62 H62            2.4783    -6.0363    -1.0168 H       
  63 H63            2.9194    -6.7919     0.5332 H       
  64 H64            2.0144    -5.2593     0.5160 H       
  65 H65           -6.2235     2.7527     0.8101 H       
  66 H66           -6.2041     2.7479    -0.9698 H       
  67 H67           -7.2258     0.4884    -0.9747 H       
  68 H68           -7.2451     0.4933     0.8051 H       
  69 H69           -8.7085     2.4950     0.7837 H       
  70 H70           -8.6892     2.4901    -0.9961 H       
  71 H71          -11.0339     1.0862    -1.7660 H       
  72 H72           -9.5800     0.0837    -2.0510 H       
  73 H73          -12.0555    -1.0066    -1.4338 H       
  74 H74          -10.5103    -1.7922    -0.9663 H       
  75 H75          -11.3495    -1.4699     1.2201 H       
  76 H76          -12.3921    -0.1029     0.7162 H       
  77 H77            6.6588     4.9859     0.8949 H       
  78 H78            6.3981     3.3430     0.2615 H       
  79 H79            6.7664     6.8476    -0.5975 H       
  80 H80            6.3455     6.6378    -2.3142 H       
  81 H81            5.0823     6.5126    -1.0664 H       
  82 H82            7.9012     3.4629    -1.5544 H       
  83 H83            7.9431     4.9093    -2.5908 H       
  84 H84            8.4578     5.0177    -0.8903 H       
@<TRIPOS>BOND
   1    1    2 ar
   2    1   16 1
   3    1    6 ar
   4    2    3 ar
   5    2    7 1
   6    3    4 ar
   7    3   44 1
   8    4    5 ar
   9    4   45 1
  10    5    6 ar
  11    5   13 1
  12    6   46 1
  13    7    8 1
  14    7    9 1
  15    8   12 1
  16    8   47 1
  17    8   48 1
  18    9   10 1
  19    9   49 1
  20    9   50 1
  21   10   11 1
  22   10   51 1
  23   10   52 1
  24   11   12 1
  25   11   24 1
  26   12   53 1
  27   12   54 1
  28   13   14 2
  29   13   15 am
  30   15   31 1
  31   15   55 1
  32   16   17 am
  33   16   56 1
  34   17   18 2
  35   17   19 1
  36   19   20 2
  37   19   23 1
  38   20   21 1
  39   20   57 1
  40   21   22 1
  41   22   23 2
  42   22   40 1
  43   24   25 ar
  44   24   26 ar
  45   25   29 ar
  46   25   58 1
  47   26   27 ar
  48   26   30 1
  49   27   28 ar
  50   27   59 1
  51   28   29 ar
  52   28   60 1
  53   29   61 1
  54   30   62 1
  55   30   63 1
  56   30   64 1
  57   31   32 1
  58   31   65 1
  59   31   66 1
  60   32   33 1
  61   32   67 1
  62   32   68 1
  63   33   34 1
  64   33   69 1
  65   33   70 1
  66   34   35 am
  67   34   36 1
  68   35   39 2
  69   35   38 1
  70   36   37 1
  71   36   71 1
  72   36   72 1
  73   37   38 1
  74   37   73 1
  75   37   74 1
  76   38   75 1
  77   38   76 1
  78   40   41 1
  79   40   77 1
  80   40   78 1
  81   41   42 1
  82   41   43 1
  83   42   79 1
  84   42   80 1
  85   42   81 1
  86   43   82 1
  87   43   83 1
  88   43   84 1

#	End of record

