#	Name: ASD05250051
#	Creating user name:	WinNT
#	Creation time:	15. 06. 2019 20:58

#	Modifying user name:	WinNT
#	Modification time:	15. 06. 2019 20:58

#	Program:	/corina/corina34_cracker 3.40 0067  02.08.2006

@<TRIPOS>MOLECULE
ASD05250051
  54   57    0    0    0
SMALL
NO_CHARGES


@<TRIPOS>ATOM
   1 C1             0.3531     1.9061     0.1417 C.ar    
   2 C2             0.1661     0.5385     0.1729 C.ar    
   3 C3             1.2482    -0.3222     0.1196 C.ar    
   4 C4             2.5383     0.1706     0.0360 C.ar    
   5 C5             2.7325     1.5515    -0.0060 C.ar    
   6 C6             1.6375     2.4231     0.0509 C.ar    
   7 C7             3.6832    -0.7960     0.0088 C.3     
   8 C8             4.9619    -0.2050    -0.5028 C.ar    
   9 C9             5.1707     1.1728    -0.5620 C.ar    
  10 C10            4.1015     2.0935    -0.1249 C.2     
  11 C11            5.9686    -1.0542    -0.9287 C.ar    
  12 C12            7.1666    -0.5479    -1.3998 C.ar    
  13 C13            7.3806     0.8155    -1.4554 C.ar    
  14 C14            6.3849     1.6857    -1.0372 C.ar    
  15 O15            1.8316     3.7652     0.0178 O.3     
  16 O16            4.3403     3.2587     0.1290 O.2     
  17 O17            6.5855     3.0263    -1.0879 O.3     
  18 C18            8.2484    -1.4926    -1.8561 C.3     
  19 C19            8.0760    -1.7829    -3.3484 C.3     
  20 C20            3.9186    -1.3145     1.4289 C.3     
  21 O21            2.7759    -2.0560     1.8609 O.3     
  22 C22            2.4571    -3.1736     1.0295 C.3     
  23 C23            3.6301    -4.1574     1.0275 C.3     
  24 C24            4.8911    -3.4354     0.5426 C.3     
  25 C25            5.1503    -2.2235     1.4429 C.3     
  26 C26            1.2071    -3.8712     1.5695 C.3     
  27 O27            0.0869    -2.9901     1.4642 O.3     
  28 O28            3.8417    -4.6509     2.3518 O.3     
  29 O29            6.0066    -4.3262     0.6072 O.3     
  30 O30            6.2829    -1.5007     0.9563 O.3     
  31 H31           -0.4972     2.5706     0.1833 H       
  32 H32           -0.8342     0.1367     0.2399 H       
  33 H33            1.0841    -1.3894     0.1439 H       
  34 H34            3.4114    -1.6396    -0.6258 H       
  35 H35            5.8172    -2.1230    -0.8926 H       
  36 H36            8.3198     1.2024    -1.8224 H       
  37 H37            1.8313     4.1408    -0.8733 H       
  38 H38            6.3151     3.4331    -1.9225 H       
  39 H39            9.2240    -1.0378    -1.6848 H       
  40 H40            8.1781    -2.4241    -1.2943 H       
  41 H41            8.1463    -0.8514    -3.9102 H       
  42 H42            8.8584    -2.4662    -3.6784 H       
  43 H43            7.1003    -2.2377    -3.5197 H       
  44 H44            4.0807    -0.4720     2.1012 H       
  45 H45            2.2703    -2.8286     0.0125 H       
  46 H46            3.4069    -4.9891     0.3592 H       
  47 H47            4.7479    -3.1021    -0.4852 H       
  48 H48            5.3424    -2.5609     2.4615 H       
  49 H49            1.0152    -4.7737     0.9891 H       
  50 H50            1.3627    -4.1377     2.6149 H       
  51 H51           -0.7421    -3.3674     1.7890 H       
  52 H52            3.0804    -5.1161     2.7245 H       
  53 H53            5.9073    -5.1208     0.0651 H       
  54 H54            7.0994    -2.0182     0.9332 H       
@<TRIPOS>BOND
   1    1    2 ar
   2    1    6 ar
   3    1   31 1
   4    2    3 ar
   5    2   32 1
   6    3    4 ar
   7    3   33 1
   8    4    5 ar
   9    4    7 1
  10    5    6 ar
  11    5   10 1
  12    6   15 1
  13    7    8 1
  14    7   20 1
  15    7   34 1
  16    8    9 ar
  17    8   11 ar
  18    9   10 1
  19    9   14 ar
  20   10   16 2
  21   11   12 ar
  22   11   35 1
  23   12   13 ar
  24   12   18 1
  25   13   14 ar
  26   13   36 1
  27   14   17 1
  28   15   37 1
  29   17   38 1
  30   18   19 1
  31   18   39 1
  32   18   40 1
  33   19   41 1
  34   19   42 1
  35   19   43 1
  36   20   21 1
  37   20   25 1
  38   20   44 1
  39   21   22 1
  40   22   23 1
  41   22   26 1
  42   22   45 1
  43   23   24 1
  44   23   28 1
  45   23   46 1
  46   24   25 1
  47   24   29 1
  48   24   47 1
  49   25   30 1
  50   25   48 1
  51   26   27 1
  52   26   49 1
  53   26   50 1
  54   27   51 1
  55   28   52 1
  56   29   53 1
  57   30   54 1

#	End of record

