#	Name: ASD01913241
#	Creating user name:	WinNT
#	Creation time:	15. 06. 2019 20:01

#	Modifying user name:	WinNT
#	Modification time:	15. 06. 2019 20:01

#	Program:	/corina/corina34_cracker 3.40 0067  02.08.2006

@<TRIPOS>MOLECULE
ASD01913241
  55   59    0    0    0
SMALL
NO_CHARGES


@<TRIPOS>ATOM
   1 C1             0.0439     1.4358     0.0279 C.ar    
   2 C2             0.0509     0.0533     0.0043 C.ar    
   3 N3             1.1842    -0.6180    -0.0065 N.ar    
   4 C4             2.3606     0.0017     0.0042 C.ar    
   5 C5             2.4260     1.3977     0.0276 C.ar    
   6 C6             1.2498     2.1245     0.0399 C.ar    
   7 C7             3.5691    -0.7665    -0.0078 C.1     
   8 C8             4.5598    -1.3963    -0.0176 C.1     
   9 C9             5.7683    -2.1645    -0.0296 C.ar    
  10 C10            7.0148    -1.5177    -0.0184 C.ar    
  11 C11            8.1843    -2.2647    -0.0300 C.ar    
  12 C12            8.1288    -3.6410    -0.0526 C.ar    
  13 C13            6.8931    -4.2964    -0.0640 C.ar    
  14 C14            5.7118    -3.5567    -0.0467 C.ar    
  15 O15            7.0756    -0.1631     0.0034 O.3     
  16 C16            8.3767     0.4278     0.0138 C.3     
  17 C17            8.2444     1.9519     0.0381 C.3     
  18 C18            9.5302     2.7705     0.1705 C.3     
  19 C19            8.7849     2.7272    -1.1650 C.3     
  20 C20            6.8400    -5.7716    -0.0892 C.2     
  21 N21            7.7708    -6.4679    -0.7714 N.am    
  22 O22            5.9566    -6.3584     0.5054 O.2     
  23 C23            7.8243    -7.9381    -0.7113 C.3     
  24 C24            7.5289    -8.4761    -2.1105 C.3     
  25 C25            8.3409    -7.7465    -3.1480 C.ar    
  26 C26            8.9054    -6.5113    -2.9223 C.ar    
  27 C27            8.7678    -5.7920    -1.6086 C.3     
  28 C28            8.5148    -8.3637    -4.3811 C.ar    
  29 C29            9.2408    -7.7471    -5.3783 C.ar    
  30 C30            9.8009    -6.5033    -5.1524 C.ar    
  31 C31            9.6325    -5.8895    -3.9285 C.ar    
  32 H32           -0.8916     1.9756     0.0326 H       
  33 H33           -0.8861    -0.4837    -0.0050 H       
  34 H34            3.3813     1.9014     0.0367 H       
  35 H35            1.2685     3.2042     0.0576 H       
  36 H36            9.1417    -1.7650    -0.0217 H       
  37 H37            9.0429    -4.2161    -0.0620 H       
  38 H38            4.7566    -4.0604    -0.0554 H       
  39 H39            8.9194     0.0960     0.8989 H       
  40 H40            8.9206     0.1245    -0.8808 H       
  41 H41            7.3493     2.3384     0.5255 H       
  42 H42            9.4809     3.6957     0.7446 H       
  43 H43           10.4703     2.2233     0.2401 H       
  44 H44            9.2347     2.1515    -1.9740 H       
  45 H45            8.2453     3.6240    -1.4696 H       
  46 H46            8.8170    -8.2583    -0.3950 H       
  47 H47            7.0762    -8.3060    -0.0092 H       
  48 H48            7.7735    -9.5377    -2.1453 H       
  49 H49            6.4689    -8.3458    -2.3282 H       
  50 H50            8.4571    -4.7630    -1.7893 H       
  51 H51            9.7272    -5.7950    -1.0911 H       
  52 H52            8.0777    -9.3350    -4.5598 H       
  53 H53            9.3719    -8.2346    -6.3331 H       
  54 H54           10.3682    -6.0146    -5.9307 H       
  55 H55           10.0690    -4.9176    -3.7518 H       
@<TRIPOS>BOND
   1    1    2 ar
   2    1    6 ar
   3    1   32 1
   4    2    3 ar
   5    2   33 1
   6    3    4 ar
   7    4    5 ar
   8    4    7 1
   9    5    6 ar
  10    5   34 1
  11    6   35 1
  12    7    8 3
  13    8    9 1
  14    9   10 ar
  15    9   14 ar
  16   10   11 ar
  17   10   15 1
  18   11   12 ar
  19   11   36 1
  20   12   13 ar
  21   12   37 1
  22   13   14 ar
  23   13   20 1
  24   14   38 1
  25   15   16 1
  26   16   17 1
  27   16   39 1
  28   16   40 1
  29   17   18 1
  30   17   19 1
  31   17   41 1
  32   18   19 1
  33   18   42 1
  34   18   43 1
  35   19   44 1
  36   19   45 1
  37   20   21 am
  38   20   22 2
  39   21   23 1
  40   21   27 1
  41   23   24 1
  42   23   46 1
  43   23   47 1
  44   24   25 1
  45   24   48 1
  46   24   49 1
  47   25   26 ar
  48   25   28 ar
  49   26   27 1
  50   26   31 ar
  51   27   50 1
  52   27   51 1
  53   28   29 ar
  54   28   52 1
  55   29   30 ar
  56   29   53 1
  57   30   31 ar
  58   30   54 1
  59   31   55 1

#	End of record

