#	Name: ASD05720027
#	Creating user name:	WinNT
#	Creation time:	15. 06. 2019 21:01

#	Modifying user name:	WinNT
#	Modification time:	15. 06. 2019 21:01

#	Program:	/corina/corina34_cracker 3.40 0067  02.08.2006

@<TRIPOS>MOLECULE
ASD05720027
  55   60    0    0    0
SMALL
NO_CHARGES


@<TRIPOS>ATOM
   1 O1             0.7741     1.0523     1.6319 O.3     
   2 C2             0.8811    -0.2808     1.6064 C.2     
   3 N3             1.4577    -0.7571     0.4945 N.am    
   4 C4             1.8057     0.3717    -0.3822 C.3     
   5 C5             1.3330     1.6081     0.4065 C.3     
   6 O6             0.4916    -0.9946     2.5091 O.2     
   7 C7             1.0609     0.2670    -1.7145 C.3     
   8 C8             1.2793     1.5475    -2.5229 C.3     
   9 C9             0.5344     1.4428    -3.8552 C.3     
  10 C10            1.0663     0.2446    -4.6441 C.3     
  11 C11            0.8479    -1.0359    -3.8357 C.3     
  12 C12            1.5928    -0.9312    -2.5034 C.3     
  13 C13            3.0380    -3.7469    -0.6748 C.2     
  14 N14            2.7996    -2.4611    -0.3984 N.2     
  15 C15            1.6894    -2.0976     0.2155 C.2     
  16 C16            0.7387    -3.0694     0.5887 C.2     
  17 C17            0.9769    -4.3713     0.3109 C.2     
  18 N18            2.1360    -4.7171    -0.3265 N.pl3   
  19 N19            2.6505    -5.9515    -0.7388 N.2     
  20 C20            3.8127    -5.7653    -1.3148 C.2     
  21 C21            4.1060    -4.3961    -1.3086 C.2     
  22 C22            5.3182    -3.7548    -1.8653 C.ar    
  23 C23            6.5793    -4.1048    -1.3794 C.ar    
  24 C24            7.7066    -3.5078    -1.8978 C.ar    
  25 C25            7.5888    -2.5535    -2.9082 C.ar    
  26 C26            6.3291    -2.2033    -3.3942 C.ar    
  27 C27            5.2014    -2.8037    -2.8807 C.ar    
  28 N28           10.1698    -0.6708    -4.6323 N.pl3   
  29 N29            8.8221    -1.0011    -4.4161 N.2     
  30 C30            8.8034    -1.9105    -3.4657 C.2     
  31 N31           10.0638    -2.1589    -3.0844 N.2     
  32 C32           10.8893    -1.4205    -3.7781 C.2     
  33 H33            2.8826     0.4110    -0.5465 H       
  34 H34            0.5682     2.1480    -0.1517 H       
  35 H35            2.1753     2.2619     0.6329 H       
  36 H36           -0.0044     0.1337    -1.5257 H       
  37 H37            0.9003     2.4010    -1.9609 H       
  38 H38            2.3445     1.6807    -2.7117 H       
  39 H39           -0.5308     1.3095    -3.6664 H       
  40 H40            0.6900     2.3550    -4.4311 H       
  41 H41            0.5356     0.1700    -5.5933 H       
  42 H42            2.1315     0.3779    -4.8329 H       
  43 H43           -0.2173    -1.1691    -3.6470 H       
  44 H44            1.2269    -1.8895    -4.3978 H       
  45 H45            2.6580    -0.7979    -2.6922 H       
  46 H46            1.4372    -1.8434    -1.9275 H       
  47 H47           -0.1711    -2.7769     1.0919 H       
  48 H48            0.2599    -5.1293     0.5898 H       
  49 H49            4.4399    -6.5405    -1.7296 H       
  50 H50            6.6707    -4.8435    -0.5968 H       
  51 H51            8.6822    -3.7782    -1.5217 H       
  52 H52            6.2386    -1.4643    -4.1766 H       
  53 H53            4.2264    -2.5360    -3.2604 H       
  54 H54           10.5145    -0.0308    -5.2745 H       
  55 H55           11.9650    -1.4137    -3.6823 H       
@<TRIPOS>BOND
   1    1    2 1
   2    1    5 1
   3    2    3 am
   4    2    6 2
   5    3    4 1
   6    3   15 1
   7    4    5 1
   8    4    7 1
   9    4   33 1
  10    5   34 1
  11    5   35 1
  12    7    8 1
  13    7   12 1
  14    7   36 1
  15    8    9 1
  16    8   37 1
  17    8   38 1
  18    9   10 1
  19    9   39 1
  20    9   40 1
  21   10   11 1
  22   10   41 1
  23   10   42 1
  24   11   12 1
  25   11   43 1
  26   11   44 1
  27   12   45 1
  28   12   46 1
  29   13   14 1
  30   13   18 1
  31   13   21 2
  32   14   15 2
  33   15   16 1
  34   16   17 2
  35   16   47 1
  36   17   18 1
  37   17   48 1
  38   18   19 1
  39   19   20 2
  40   20   21 1
  41   20   49 1
  42   21   22 1
  43   22   23 ar
  44   22   27 ar
  45   23   24 ar
  46   23   50 1
  47   24   25 ar
  48   24   51 1
  49   25   26 ar
  50   25   30 1
  51   26   27 ar
  52   26   52 1
  53   27   53 1
  54   28   29 1
  55   28   32 1
  56   28   54 1
  57   29   30 2
  58   30   31 1
  59   31   32 2
  60   32   55 1

#	End of record

