#	Name: ASD03950107
#	Creating user name:	WinNT
#	Creation time:	15. 06. 2019 20:48

#	Modifying user name:	WinNT
#	Modification time:	15. 06. 2019 20:48

#	Program:	/corina/corina34_cracker 3.40 0067  02.08.2006

@<TRIPOS>MOLECULE
ASD03950107
  49   51    0    0    0
SMALL
NO_CHARGES


@<TRIPOS>ATOM
   1 N1            -0.0178     1.4650     0.0101 N.am    
   2 C2             0.0021    -0.0041     0.0020 C.3     
   3 C3             0.8803    -0.4916     1.1586 C.3     
   4 C4             2.2627     0.1563     1.0525 C.3     
   5 C5             2.1248     1.6768     1.1584 C.3     
   6 C6             1.2607     2.1889     0.0018 C.3     
   7 C7            -1.1868     2.1359     0.0193 C.2     
   8 O8            -2.2375     1.5256     0.0210 O.2     
   9 O9            -1.1902     3.4822     0.0266 O.3     
  10 N10            3.9433    -0.8092     4.1799 N.pl3   
  11 N11            2.9114    -0.2170     3.4447 N.2     
  12 C12            3.1403    -0.3472     2.1693 C.2     
  13 C13            4.4002    -1.0695     2.0162 C.ar    
  14 C14            5.1456    -1.4953     0.9115 C.ar    
  15 C15            6.3296    -2.1735     1.0997 C.ar    
  16 C16            6.7953    -2.4420     2.3772 C.ar    
  17 C17            6.0732    -2.0296     3.4929 C.ar    
  18 C18            4.8625    -1.3356     3.3182 C.ar    
  19 Br19           7.3296    -2.7447    -0.4002 Br      
  20 C20            6.5744    -2.3180     4.8498 C.2     
  21 O21            5.9402    -1.9558     5.8220 O.2     
  22 N22            7.7354    -2.9830     5.0121 N.am    
  23 C23           -2.4856     4.1381     0.0364 C.3     
  24 C24           -3.2605     3.7182     1.2870 C.3     
  25 C25           -2.2890     5.6554     0.0437 C.3     
  26 C26           -3.2723     3.7317    -1.2114 C.3     
  27 H27           -1.0118    -0.3840     0.1278 H       
  28 H28            0.4128    -0.3587    -0.9433 H       
  29 H29            0.4202    -0.2139     2.1069 H       
  30 H30            0.9816    -1.5757     1.1066 H       
  31 H31            2.7120    -0.1016     0.0934 H       
  32 H32            1.6530     1.9341     2.1067 H       
  33 H33            3.1119     2.1361     1.1062 H       
  34 H34            1.7740     2.0131    -0.9436 H       
  35 H35            1.0772     3.2560     0.1274 H       
  36 H36            3.9992    -0.8378     5.1478 H       
  37 H37            4.7925    -1.2925    -0.0888 H       
  38 H38            7.7252    -2.9755     2.5076 H       
  39 H39            8.2413    -3.2720     4.2366 H       
  40 H40            8.0650    -3.1727     5.9045 H       
  41 H41           -2.7000     4.0076     2.1759 H       
  42 H42           -4.2329     4.2105     1.2943 H       
  43 H43           -3.4005     2.6372     1.2818 H       
  44 H44           -1.7370     5.9545    -0.8473 H       
  45 H45           -3.2615     6.1477     0.0510 H       
  46 H46           -1.7286     5.9448     0.9326 H       
  47 H47           -3.4124     2.6508    -1.2166 H       
  48 H48           -4.2448     4.2241    -1.2041 H       
  49 H49           -2.7203     4.0309    -2.1024 H       
@<TRIPOS>BOND
   1    1    2 1
   2    1    6 1
   3    1    7 am
   4    2    3 1
   5    2   27 1
   6    2   28 1
   7    3    4 1
   8    3   29 1
   9    3   30 1
  10    4    5 1
  11    4   12 1
  12    4   31 1
  13    5    6 1
  14    5   32 1
  15    5   33 1
  16    6   34 1
  17    6   35 1
  18    7    8 2
  19    7    9 1
  20    9   23 1
  21   10   11 1
  22   10   18 1
  23   10   36 1
  24   11   12 2
  25   12   13 1
  26   13   14 ar
  27   13   18 ar
  28   14   15 ar
  29   14   37 1
  30   15   16 ar
  31   15   19 1
  32   16   17 ar
  33   16   38 1
  34   17   18 ar
  35   17   20 1
  36   20   21 2
  37   20   22 am
  38   22   39 1
  39   22   40 1
  40   23   24 1
  41   23   25 1
  42   23   26 1
  43   24   41 1
  44   24   42 1
  45   24   43 1
  46   25   44 1
  47   25   45 1
  48   25   46 1
  49   26   47 1
  50   26   48 1
  51   26   49 1

#	End of record

