#	Name: ASD01800021
#	Creating user name:	WinNT
#	Creation time:	15. 06. 2019 19:23

#	Modifying user name:	WinNT
#	Modification time:	15. 06. 2019 19:23

#	Program:	/corina/corina34_cracker 3.40 0067  02.08.2006

@<TRIPOS>MOLECULE
ASD01800021
  50   53    0    0    0
SMALL
NO_CHARGES


@<TRIPOS>ATOM
   1 C1            -0.2530     0.8531     0.3095 C.ar    
   2 C2             0.0008    -0.4892     0.5750 C.ar    
   3 C3             1.2965    -0.9880     0.4579 C.ar    
   4 C4             2.3318    -0.1489     0.0776 C.ar    
   5 C5             2.0823     1.1884    -0.1869 C.ar    
   6 C6             0.7888     1.6931    -0.0721 C.ar    
   7 O7             3.5950    -0.6386    -0.0357 O.3     
   8 C8             3.8697    -1.3742    -1.1299 C.2     
   9 N9             5.0691    -1.9764    -1.2533 N.am    
  10 C10            5.3680    -2.7765    -2.4436 C.3     
  11 C11            6.8883    -2.8304    -2.6744 C.3     
  12 C12            7.2937    -4.3168    -2.5955 C.3     
  13 C13            5.9908    -5.0841    -2.9313 C.3     
  14 C14            4.9024    -4.2320    -2.2324 C.3     
  15 O15            3.0362    -1.4949    -2.0059 O.2     
  16 C16           -1.1072    -1.3882     0.9827 C.ar    
  17 C17           -0.8546    -2.7324     1.2488 C.ar    
  18 C18           -1.8878    -3.5650     1.6282 C.ar    
  19 C19           -3.1740    -3.0671     1.7447 C.ar    
  20 C20           -3.4309    -1.7314     1.4809 C.ar    
  21 C21           -2.4023    -0.8895     1.1062 C.ar    
  22 C22            0.5223     3.1252    -0.3561 C.ar    
  23 C23            1.5644     3.9675    -0.7379 C.ar    
  24 C24            1.3111     5.2993    -1.0015 C.ar    
  25 C25            0.0233     5.7973    -0.8867 C.ar    
  26 C26           -1.0145     4.9635    -0.5076 C.ar    
  27 C27           -0.7718     3.6301    -0.2473 C.ar    
  28 Cl28          -4.4693    -4.1195     2.2224 Cl      
  29 Cl29          -5.0466    -1.1138     1.6285 Cl      
  30 Cl30           2.6081     6.3508    -1.4768 Cl      
  31 Cl31          -0.2895     7.4723    -1.2186 Cl      
  32 H32           -1.2573     1.2411     0.3952 H       
  33 H33            1.4942    -2.0295     0.6641 H       
  34 H34            2.8913     1.8399    -0.4824 H       
  35 H35            5.7345    -1.8800    -0.5541 H       
  36 H36            4.8729    -2.3481    -3.3151 H       
  37 H37            7.1311    -2.4289    -3.6583 H       
  38 H38            7.4038    -2.2612    -1.9008 H       
  39 H39            8.0681    -4.5405    -3.3291 H       
  40 H40            7.6351    -4.5662    -1.5908 H       
  41 H41            5.8263    -5.1130    -4.0084 H       
  42 H42            6.0181    -6.0917    -2.5165 H       
  43 H43            4.8577    -4.4678    -1.1692 H       
  44 H44            3.9318    -4.3939    -2.7012 H       
  45 H45            0.1485    -3.1223     1.1579 H       
  46 H46           -1.6924    -4.6070     1.8342 H       
  47 H47           -2.6029     0.1517     0.9010 H       
  48 H48            2.5684     3.5797    -0.8272 H       
  49 H49           -2.0167     5.3562    -0.4195 H       
  50 H50           -1.5825     2.9807     0.0483 H       
@<TRIPOS>BOND
   1    1    2 ar
   2    1    6 ar
   3    1   32 1
   4    2    3 ar
   5    2   16 1
   6    3    4 ar
   7    3   33 1
   8    4    5 ar
   9    4    7 1
  10    5    6 ar
  11    5   34 1
  12    6   22 1
  13    7    8 1
  14    8    9 am
  15    8   15 2
  16    9   10 1
  17    9   35 1
  18   10   11 1
  19   10   14 1
  20   10   36 1
  21   11   12 1
  22   11   37 1
  23   11   38 1
  24   12   13 1
  25   12   39 1
  26   12   40 1
  27   13   14 1
  28   13   41 1
  29   13   42 1
  30   14   43 1
  31   14   44 1
  32   16   17 ar
  33   16   21 ar
  34   17   18 ar
  35   17   45 1
  36   18   19 ar
  37   18   46 1
  38   19   20 ar
  39   19   28 1
  40   20   21 ar
  41   20   29 1
  42   21   47 1
  43   22   23 ar
  44   22   27 ar
  45   23   24 ar
  46   23   48 1
  47   24   25 ar
  48   24   30 1
  49   25   26 ar
  50   25   31 1
  51   26   27 ar
  52   26   49 1
  53   27   50 1

#	End of record

