#	Name: ASD05143102
#	Creating user name:	WinNT
#	Creation time:	15. 06. 2019 20:57

#	Modifying user name:	WinNT
#	Modification time:	15. 06. 2019 20:57

#	Program:	/corina/corina34_cracker 3.40 0067  02.08.2006

@<TRIPOS>MOLECULE
ASD05143102
 148  151    0    0    0
SMALL
NO_CHARGES


@<TRIPOS>ATOM
   1 C1             0.8929     2.4340     2.1454 C.2     
   2 C2             1.1513     0.9858     2.4723 C.3     
   3 N3             1.8515     3.3557     2.3643 N.am    
   4 O4            -0.1760     2.7694     1.6806 O.2     
   5 C5             1.6003     4.7636     2.0464 C.3     
   6 C6             1.2882     4.9019     0.5550 C.3     
   7 C7             0.4278     5.2592     2.8531 C.2     
   8 C8             2.5229     4.5166    -0.2623 C.3     
   9 C9             2.2108     4.6549    -1.7537 C.3     
  10 N10            3.3930     4.2859    -2.5363 N.pl3   
  11 C11            3.3504     4.3330    -3.9097 C.2     
  12 N12            4.4599     3.9867    -4.6441 N.pl3   
  13 N13            2.2582     4.7059    -4.5154 N.2     
  14 O14           -0.3592     4.4680     3.3282 O.2     
  15 N15            0.2537     6.5816     3.0466 N.am    
  16 C16           -0.8861     7.0633     3.8308 C.3     
  17 C17           -0.5540     8.4338     4.4237 C.3     
  18 C18           -1.4268     8.6868     5.6258 C.2     
  19 N19           -0.9155     9.3782     6.6811 N.am    
  20 C20           -1.8205     9.5996     7.8265 C.3     
  21 C21           -1.6780    11.0490     8.2960 C.3     
  22 C22           -3.0513    11.7235     8.2925 C.3     
  23 C23           -3.0081    12.9642     7.3982 C.3     
  24 C24           -4.2482    13.8222     7.6565 C.3     
  25 N25           -4.4348    14.7462     6.5201 N.am    
  26 C26           -4.0592    14.6136     8.9249 C.2     
  27 N27           -4.2590    14.0267    10.1216 N.am    
  28 O28           -3.7274    15.7788     8.8689 O.2     
  29 C29           -5.4429    14.4503     5.6544 C.2     
  30 O30           -6.1373    13.4718     5.8311 O.2     
  31 C31           -5.6846    15.3553     4.4739 C.3     
  32 N32           -6.4263    14.5964     3.4409 N.am    
  33 C33           -6.5110    16.5651     4.9148 C.3     
  34 C34           -5.7358    14.3487     2.2886 C.2     
  35 O35           -4.5964    14.7424     2.1550 O.2     
  36 C36           -6.4148    13.5770     1.1865 C.3     
  37 N37           -5.3849    12.8819     0.3885 N.am    
  38 C38           -7.3724    12.5501     1.7942 C.3     
  39 C39           -5.5797    11.5529     0.1683 C.2     
  40 O40           -6.5626    10.9945     0.6077 O.2     
  41 C41           -4.5574    10.7849    -0.6297 C.3     
  42 C42           -6.6468    17.5274     3.7631 C.2     
  43 C43           -7.6506    17.4751     2.6975 C.ar    
  44 C44           -7.3830    18.5709     1.8572 C.ar    
  45 N45           -6.2956    19.2310     2.3843 N.pl3   
  46 C46           -5.8744    18.5986     3.5223 C.2     
  47 C47           -8.7122    16.6163     2.4057 C.ar    
  48 C48           -9.4866    16.8453     1.3037 C.ar    
  49 C49           -9.2263    17.9252     0.4709 C.ar    
  50 C50           -8.1847    18.7853     0.7406 C.ar    
  51 N51           -4.5097     9.3948    -0.1216 N.am    
  52 C52           -3.1834    11.4383    -0.4685 C.3     
  53 C53           -3.2160    12.8272    -1.0522 C.ar    
  54 C54           -3.0124    13.9235    -0.2330 C.ar    
  55 C55           -3.0405    15.1977    -0.7608 C.ar    
  56 C56           -3.2750    15.3796    -2.1252 C.ar    
  57 C57           -3.4797    14.2688    -2.9462 C.ar    
  58 C58           -3.4437    13.0000    -2.4060 C.ar    
  59 C59           -2.0954     7.1799     2.9393 C.2     
  60 O60           -3.2098     7.0251     3.3921 O.2     
  61 C61           -6.6045    11.6462     2.7607 C.3     
  62 C62           -7.5764    10.6711     3.4282 C.3     
  63 N63           -6.8411     9.8055     4.3537 N.pl3   
  64 C64           -7.5096     8.8432     5.0730 C.2     
  65 N65           -6.8195     8.0310     5.9415 N.pl3   
  66 N66           -8.7974     8.7010     4.9315 N.2     
  67 N67           -1.9204     7.4618     1.6190 N.am    
  68 C68           -3.1425     7.5498     0.7953 C.3     
  69 C69           -3.2757     8.9548     0.2669 C.2     
  70 O70           -2.3071     9.6804     0.1877 O.2     
  71 C71           -4.3631     7.2066     1.6515 C.3     
  72 C72           -4.3094     5.7297     2.0476 C.3     
  73 C73           -5.4344     5.4245     3.0027 C.2     
  74 C74           -3.3060    16.6994    -2.6800 C.1     
  75 N75           -3.3306    17.7465    -3.1200 N.1     
  76 N76           -5.5859     4.1765     3.4887 N.am    
  77 O77           -6.2035     6.3018     3.3340 O.2     
  78 O78           -2.5692     8.2803     5.6525 O.2     
  79 H79            0.8523     0.7867     3.5014 H       
  80 H80            0.5751     0.3526     1.7976 H       
  81 H81            2.2133     0.7706     2.3543 H       
  82 H82            2.7078     3.0869     2.7322 H       
  83 H83            2.4838     5.3541     2.2891 H       
  84 H84            0.4599     4.2431     0.2945 H       
  85 H85            1.0146     5.9339     0.3353 H       
  86 H86            3.3512     5.1755    -0.0018 H       
  87 H87            2.7965     3.4846    -0.0425 H       
  88 H88            1.3824     3.9960    -2.0142 H       
  89 H89            1.9371     5.6869    -1.9735 H       
  90 H90            4.2058     4.0084    -2.0855 H       
  91 H91            5.2727     3.7092    -4.1933 H       
  92 H92            4.4298     4.0199    -5.6131 H       
  93 H93            2.2282     4.7391    -5.4844 H       
  94 H94            0.8831     7.2143     2.6666 H       
  95 H95           -1.0957     6.3600     4.6367 H       
  96 H96            0.4935     8.4554     4.7244 H       
  97 H97           -0.7331     9.2063     3.6758 H       
  98 H98           -0.0036     9.7088     6.6804 H       
  99 H99           -2.8499     9.4147     7.5196 H       
 100 H100          -1.5528     8.9244     8.6392 H       
 101 H101          -1.2679    11.0651     9.3058 H       
 102 H102          -1.0083    11.5847     7.6233 H       
 103 H103          -3.7974    11.0265     7.9110 H       
 104 H104          -3.3144    12.0172     9.3086 H       
 105 H105          -2.1124    13.5432     7.6230 H       
 106 H106          -2.9897    12.6577     6.3523 H       
 107 H107          -5.1234    13.1795     7.7520 H       
 108 H108          -3.8685    15.5240     6.3969 H       
 109 H109          -4.5244    13.0947    10.1664 H       
 110 H110          -4.1373    14.5361    10.9380 H       
 111 H111          -4.7300    15.6895     4.0675 H       
 112 H112          -7.3390    14.2959     3.5734 H       
 113 H113          -7.5005    16.2338     5.2301 H       
 114 H114          -6.0122    17.0621     5.7468 H       
 115 H115          -6.9699    14.2641     0.5478 H       
 116 H116          -4.6096    13.3485     0.0389 H       
 117 H117          -8.1658    13.0677     2.3334 H       
 118 H118          -7.8083    11.9449     0.9993 H       
 119 H119          -4.8424    10.7805    -1.6818 H       
 120 H120          -5.8909    20.0278     2.0073 H       
 121 H121          -5.0394    18.9105     4.1321 H       
 122 H122          -8.9202    15.7738     3.0487 H       
 123 H123         -10.3076    16.1808     1.0784 H       
 124 H124          -9.8471    18.0929    -0.3967 H       
 125 H125          -7.9905    19.6228     0.0868 H       
 126 H126          -5.3001     8.8351    -0.0680 H       
 127 H127          -2.9300    11.4950     0.5902 H       
 128 H128          -2.4343    10.8425    -0.9900 H       
 129 H129          -2.8315    13.7813     0.8222 H       
 130 H130          -2.8818    16.0525    -0.1202 H       
 131 H131          -3.6620    14.4025    -4.0023 H       
 132 H132          -3.6019    12.1400    -3.0398 H       
 133 H133          -5.8481    11.0861     2.2111 H       
 134 H134          -6.1215    12.2570     3.5234 H       
 135 H135          -8.3328    11.2312     3.9779 H       
 136 H136          -8.0593    10.0602     2.6655 H       
 137 H137          -5.8827     9.9114     4.4590 H       
 138 H138          -5.8611     8.1368     6.0468 H       
 139 H139          -7.2912     7.3521     6.4490 H       
 140 H140          -9.2691     8.0221     5.4390 H       
 141 H141          -1.0384     7.5981     1.2391 H       
 142 H142          -3.0716     6.8515    -0.0386 H       
 143 H143          -4.3620     7.8239     2.5499 H       
 144 H144          -5.2722     7.3969     1.0811 H       
 145 H145          -4.4114     5.1106     1.1563 H       
 146 H146          -3.3554     5.5175     2.5302 H       
 147 H147          -4.9708     3.4749     3.2237 H       
 148 H148          -6.3100     3.9800     4.1034 H       
@<TRIPOS>BOND
   1    1    2 1
   2    1    3 am
   3    1    4 2
   4    2   79 1
   5    2   80 1
   6    2   81 1
   7    3    5 1
   8    3   82 1
   9    5    6 1
  10    5    7 1
  11    5   83 1
  12    6    8 1
  13    6   84 1
  14    6   85 1
  15    7   14 2
  16    7   15 am
  17    8    9 1
  18    8   86 1
  19    8   87 1
  20    9   10 1
  21    9   88 1
  22    9   89 1
  23   10   11 1
  24   10   90 1
  25   11   12 1
  26   11   13 2
  27   12   91 1
  28   12   92 1
  29   13   93 1
  30   15   16 1
  31   15   94 1
  32   16   17 1
  33   16   59 1
  34   16   95 1
  35   17   18 1
  36   17   96 1
  37   17   97 1
  38   18   19 am
  39   18   78 2
  40   19   20 1
  41   19   98 1
  42   20   21 1
  43   20   99 1
  44   20  100 1
  45   21   22 1
  46   21  101 1
  47   21  102 1
  48   22   23 1
  49   22  103 1
  50   22  104 1
  51   23   24 1
  52   23  105 1
  53   23  106 1
  54   24   25 1
  55   24   26 1
  56   24  107 1
  57   25   29 am
  58   25  108 1
  59   26   27 am
  60   26   28 2
  61   27  109 1
  62   27  110 1
  63   29   30 2
  64   29   31 1
  65   31   32 1
  66   31   33 1
  67   31  111 1
  68   32   34 am
  69   32  112 1
  70   33   42 1
  71   33  113 1
  72   33  114 1
  73   34   35 2
  74   34   36 1
  75   36   37 1
  76   36   38 1
  77   36  115 1
  78   37   39 am
  79   37  116 1
  80   38   61 1
  81   38  117 1
  82   38  118 1
  83   39   40 2
  84   39   41 1
  85   41   51 1
  86   41   52 1
  87   41  119 1
  88   42   43 1
  89   42   46 2
  90   43   44 ar
  91   43   47 ar
  92   44   45 1
  93   44   50 ar
  94   45   46 1
  95   45  120 1
  96   46  121 1
  97   47   48 ar
  98   47  122 1
  99   48   49 ar
 100   48  123 1
 101   49   50 ar
 102   49  124 1
 103   50  125 1
 104   51   69 am
 105   51  126 1
 106   52   53 1
 107   52  127 1
 108   52  128 1
 109   53   54 ar
 110   53   58 ar
 111   54   55 ar
 112   54  129 1
 113   55   56 ar
 114   55  130 1
 115   56   57 ar
 116   56   74 1
 117   57   58 ar
 118   57  131 1
 119   58  132 1
 120   59   60 2
 121   59   67 am
 122   61   62 1
 123   61  133 1
 124   61  134 1
 125   62   63 1
 126   62  135 1
 127   62  136 1
 128   63   64 1
 129   63  137 1
 130   64   65 1
 131   64   66 2
 132   65  138 1
 133   65  139 1
 134   66  140 1
 135   67   68 1
 136   67  141 1
 137   68   69 1
 138   68   71 1
 139   68  142 1
 140   69   70 2
 141   71   72 1
 142   71  143 1
 143   71  144 1
 144   72   73 1
 145   72  145 1
 146   72  146 1
 147   73   76 am
 148   73   77 2
 149   74   75 3
 150   76  147 1
 151   76  148 1

#	End of record

