#	Name: ASD03240323
#	Creating user name:	WinNT
#	Creation time:	15. 06. 2019 20:34

#	Modifying user name:	WinNT
#	Modification time:	15. 06. 2019 20:34

#	Program:	/corina/corina34_cracker 3.40 0067  02.08.2006

@<TRIPOS>MOLECULE
ASD03240323
  79   83    0    0    0
SMALL
NO_CHARGES


@<TRIPOS>ATOM
   1 C1            -0.3043     1.1038    -1.5121 C.2     
   2 N2            -0.1748    -0.1627    -0.9930 N.pl3   
   3 O3            -3.6651     3.2297    -1.1193 O.2     
   4 C4            -3.7598     2.1422    -0.5907 C.2     
   5 C5            -2.5975     1.1836    -0.6258 C.3     
   6 N6            -1.4813     1.7958    -1.3508 N.pl3   
   7 N7             0.6906     1.6505    -2.1525 N.2     
   8 N8            -4.9045     1.7911     0.0280 N.am    
   9 C9            -5.9372     2.7156     0.1585 C.ar    
  10 C10           -7.2721     2.2882     0.1041 C.ar    
  11 C11           -8.2995     3.2140     0.2352 C.ar    
  12 C12           -7.9973     4.5634     0.4201 C.ar    
  13 C13           -6.6634     4.9800     0.4729 C.ar    
  14 C14           -5.6453     4.0608     0.3482 C.ar    
  15 C15           -9.0851     5.5512     0.5594 C.2     
  16 N16           -8.7930     6.8547     0.7380 N.am    
  17 O17          -10.2450     5.1889     0.5130 O.2     
  18 C18           -9.8196     7.8077     0.7475 C.ar    
  19 C19           -9.6514     9.0027     1.4346 C.ar    
  20 C20          -11.0034     7.5598     0.0650 C.ar    
  21 C21          -12.0153     8.4989     0.0742 C.ar    
  22 C22          -11.8493     9.6917     0.7661 C.ar    
  23 C23          -10.6631     9.9420     1.4440 C.ar    
  24 N24          -12.8745    10.6436     0.7752 N.pl3   
  25 C25          -12.6994    11.9018     1.5050 C.3     
  26 C26          -14.1231    10.3823     0.0549 C.3     
  27 C27           -7.5854     0.8533    -0.0930 C.ar    
  28 C28           -8.4891     0.2139     0.7567 C.ar    
  29 C29           -8.7809    -1.1187     0.5747 C.ar    
  30 C30           -8.1717    -1.8317    -0.4619 C.ar    
  31 C31           -7.2668    -1.1901    -1.3123 C.ar    
  32 C32           -6.9809     0.1440    -1.1317 C.ar    
  33 C33          -15.0982     9.6925     0.9738 C.ar    
  34 C34          -12.0923    12.9334     0.5894 C.ar    
  35 C35          -15.9691    10.4406     1.7439 C.ar    
  36 C36          -16.8641     9.8091     2.5866 C.ar    
  37 C37          -16.8883     8.4267     2.6594 C.ar    
  38 C38          -16.0155     7.6785     1.8876 C.ar    
  39 C39          -15.1250     8.3120     1.0417 C.ar    
  40 C40          -12.9101    13.7533    -0.1657 C.ar    
  41 C41          -12.3545    14.7000    -1.0054 C.ar    
  42 C42          -10.9784    14.8270    -1.0902 C.ar    
  43 C43          -10.1604    14.0053    -0.3334 C.ar    
  44 C44          -10.7183    13.0629     0.5095 C.ar    
  45 F45          -17.7625     7.8083     3.4832 F       
  46 F46          -10.4342    15.7519    -1.9111 F       
  47 C47           -8.4742    -3.2184    -0.6521 C.1     
  48 N48           -8.7141    -4.3185    -0.8030 N.1     
  49 H49            0.6570    -0.6494    -1.1033 H       
  50 H50           -0.9152    -0.5696    -0.5164 H       
  51 H51           -2.2861     0.9528     0.3929 H       
  52 H52           -2.8987     0.2657    -1.1305 H       
  53 H53           -1.5727     2.6893    -1.7171 H       
  54 H54            1.5224     1.1638    -2.2628 H       
  55 H55           -5.0088     0.8942     0.3825 H       
  56 H56           -9.3290     2.8902     0.1937 H       
  57 H57           -6.4310     6.0249     0.6161 H       
  58 H58           -4.6168     4.3879     0.3897 H       
  59 H59           -7.8718     7.1330     0.8600 H       
  60 H60           -8.7292     9.1971     1.9619 H       
  61 H61          -11.1322     6.6324    -0.4733 H       
  62 H62          -12.9357     8.3062    -0.4568 H       
  63 H63          -10.5341    10.8693     1.9823 H       
  64 H64          -13.6682    12.2547     1.8584 H       
  65 H65          -12.0393    11.7388     2.3570 H       
  66 H66          -14.5501    11.3255    -0.2861 H       
  67 H67          -13.9198     9.7437    -0.8047 H       
  68 H68           -8.9593     0.7649     1.5577 H       
  69 H69           -9.4800    -1.6134     1.2326 H       
  70 H70           -6.7955    -1.7399    -2.1135 H       
  71 H71           -6.2820     0.6401    -1.7889 H       
  72 H72          -15.9499    11.5190     1.6872 H       
  73 H73          -17.5442    10.3938     3.1883 H       
  74 H74          -16.0335     6.6001     1.9436 H       
  75 H75          -14.4442     7.7286     0.4397 H       
  76 H76          -13.9834    13.6537    -0.0997 H       
  77 H77          -12.9936    15.3402    -1.5955 H       
  78 H78           -9.0869    14.1035    -0.3988 H       
  79 H79          -10.0804    12.4218     1.0999 H       
@<TRIPOS>BOND
   1    1    2 1
   2    1    7 2
   3    1    6 1
   4    2   49 1
   5    2   50 1
   6    3    4 2
   7    4    5 1
   8    4    8 am
   9    5    6 1
  10    5   51 1
  11    5   52 1
  12    6   53 1
  13    7   54 1
  14    8    9 1
  15    8   55 1
  16    9   10 ar
  17    9   14 ar
  18   10   11 ar
  19   10   27 1
  20   11   12 ar
  21   11   56 1
  22   12   13 ar
  23   12   15 1
  24   13   14 ar
  25   13   57 1
  26   14   58 1
  27   15   16 am
  28   15   17 2
  29   16   18 1
  30   16   59 1
  31   18   19 ar
  32   18   20 ar
  33   19   23 ar
  34   19   60 1
  35   20   21 ar
  36   20   61 1
  37   21   22 ar
  38   21   62 1
  39   22   23 ar
  40   22   24 1
  41   23   63 1
  42   24   25 1
  43   24   26 1
  44   25   34 1
  45   25   64 1
  46   25   65 1
  47   26   33 1
  48   26   66 1
  49   26   67 1
  50   27   28 ar
  51   27   32 ar
  52   28   29 ar
  53   28   68 1
  54   29   30 ar
  55   29   69 1
  56   30   31 ar
  57   30   47 1
  58   31   32 ar
  59   31   70 1
  60   32   71 1
  61   33   35 ar
  62   33   39 ar
  63   34   40 ar
  64   34   44 ar
  65   35   36 ar
  66   35   72 1
  67   36   37 ar
  68   36   73 1
  69   37   38 ar
  70   37   45 1
  71   38   39 ar
  72   38   74 1
  73   39   75 1
  74   40   41 ar
  75   40   76 1
  76   41   42 ar
  77   41   77 1
  78   42   43 ar
  79   42   46 1
  80   43   44 ar
  81   43   78 1
  82   44   79 1
  83   47   48 3

#	End of record

