#	Name: ASD03331605
#	Creating user name:	WinNT
#	Creation time:	15. 06. 2019 20:39

#	Modifying user name:	WinNT
#	Modification time:	15. 06. 2019 20:39

#	Program:	/corina/corina34_cracker 3.40 0067  02.08.2006

@<TRIPOS>MOLECULE
ASD03331605
  35   37    0    0    0
SMALL
NO_CHARGES


@<TRIPOS>ATOM
   1 C1            -0.0166     1.3751     0.0104 C.ar    
   2 C2             0.0021    -0.0041     0.0028 C.ar    
   3 C3             1.2207    -0.6838    -0.0133 C.ar    
   4 C4             2.4158     0.0359    -0.0217 C.ar    
   5 C5             2.3870     1.4169    -0.0140 C.ar    
   6 C6             1.1719     2.0869     0.0021 C.ar    
   7 F7             1.1478     3.4377     0.0096 F       
   8 F8             3.5431     2.1160    -0.0222 F       
   9 C9             1.2452    -2.1628    -0.0210 C.2     
  10 N10            2.2975    -2.9401    -0.4148 N.pl3   
  11 C11            1.9172    -4.2324    -0.2859 C.2     
  12 C12            0.6438    -4.2332     0.1997 C.2     
  13 N13            0.2622    -2.9461     0.3545 N.2     
  14 C14            3.6040    -2.4658    -0.8800 C.3     
  15 C15            4.2162    -3.5022    -1.8249 C.3     
  16 C16            5.0419    -4.5090    -1.0253 C.3     
  17 C17            4.1555    -5.2563    -0.0337 C.3     
  18 C18            2.7568    -5.4337    -0.6323 C.3     
  19 C19           -0.1679    -5.4224     0.5063 C.2     
  20 O20            0.2911    -6.5338     0.3286 O.2     
  21 O21           -1.4200    -5.2789     0.9842 O.3     
  22 H22           -0.9598     1.9011     0.0184 H       
  23 H23           -0.9254    -0.5573     0.0098 H       
  24 H24            3.3615    -0.4856    -0.0339 H       
  25 H25            3.4803    -1.5205    -1.4085 H       
  26 H26            4.2633    -2.3200    -0.0243 H       
  27 H27            3.4195    -4.0256    -2.3535 H       
  28 H28            4.8589    -2.9989    -2.5472 H       
  29 H29            5.4998    -5.2237    -1.7091 H       
  30 H30            5.8257    -3.9815    -0.4817 H       
  31 H31            4.5882    -6.2348     0.1748 H       
  32 H32            4.0847    -4.6855     0.8922 H       
  33 H33            2.2955    -6.3316    -0.2212 H       
  34 H34            2.8329    -5.5251    -1.7158 H       
  35 H35           -1.9143    -6.0888     1.1707 H       
@<TRIPOS>BOND
   1    1    2 ar
   2    1    6 ar
   3    1   22 1
   4    2    3 ar
   5    2   23 1
   6    3    4 ar
   7    3    9 1
   8    4    5 ar
   9    4   24 1
  10    5    6 ar
  11    5    8 1
  12    6    7 1
  13    9   10 1
  14    9   13 2
  15   10   11 1
  16   10   14 1
  17   11   12 2
  18   11   18 1
  19   12   13 1
  20   12   19 1
  21   14   15 1
  22   14   25 1
  23   14   26 1
  24   15   16 1
  25   15   27 1
  26   15   28 1
  27   16   17 1
  28   16   29 1
  29   16   30 1
  30   17   18 1
  31   17   31 1
  32   17   32 1
  33   18   33 1
  34   18   34 1
  35   19   20 2
  36   19   21 1
  37   21   35 1

#	End of record

