#	Name: ASD01915423
#	Creating user name:	WinNT
#	Creation time:	15. 06. 2019 20:05

#	Modifying user name:	WinNT
#	Modification time:	15. 06. 2019 20:05

#	Program:	/corina/corina34_cracker 3.40 0067  02.08.2006

@<TRIPOS>MOLECULE
ASD01915423
  45   49    0    0    0
SMALL
NO_CHARGES


@<TRIPOS>ATOM
   1 C1            -0.0877     1.2675     0.1895 C.ar    
   2 C2             0.5833     1.0624     1.3941 C.ar    
   3 C3             1.7718     0.3613     1.4084 C.ar    
   4 C4             2.2982    -0.1375     0.2293 C.ar    
   5 C5             1.6360     0.0638    -0.9701 C.ar    
   6 C6             0.4468     0.7625    -0.9954 C.ar    
   7 C7            -1.3677     2.0145     0.1690 C.2     
   8 N8            -3.4633     2.6140    -0.2500 N.pl3   
   9 N9            -2.4614     1.6627    -0.4617 N.2     
  10 C10           -1.6456     3.2802     0.8560 C.ar    
  11 C11           -2.9829     3.6119     0.5541 C.ar    
  12 N12           -3.5239     4.7225     1.0395 N.ar    
  13 C13           -0.8916     4.1242     1.6716 C.ar    
  14 C14           -1.5004     5.2790     2.1624 C.ar    
  15 C15           -2.8415     5.5484     1.8127 C.ar    
  16 C16           -3.4960     6.7739     2.3259 C.ar    
  17 C17           -0.7740     6.1815     3.0041 C.1     
  18 C18            0.5394     3.7974     2.0128 C.3     
  19 C19            1.5501     3.7664     0.8646 C.3     
  20 C20            1.5726     4.9171     1.8727 C.3     
  21 Cl21           3.7941    -1.0181     0.2542 Cl      
  22 N22           -0.1977     6.8974     3.6719 N.1     
  23 C23            2.4982     0.1388     2.7099 C.3     
  24 F24            1.7782     0.7310     3.7530 F       
  25 F25            2.6190    -1.2346     2.9476 F       
  26 F26            3.7717     0.7133     2.6373 F       
  27 C27           -3.7942     8.3986     4.0686 C.ar    
  28 C28           -3.1811     7.2564     3.5960 C.ar    
  29 C29           -4.4255     7.4533     1.5387 C.ar    
  30 C30           -5.0319     8.5945     2.0224 C.ar    
  31 C31           -4.7193     9.0652     3.2852 C.ar    
  32 H32            0.1738     1.4517     2.3145 H       
  33 H33            2.0511    -0.3271    -1.8873 H       
  34 H34           -0.0693     0.9183    -1.9312 H       
  35 H35           -4.3611     2.5722    -0.6147 H       
  36 H36            0.6778     3.0832     2.8246 H       
  37 H37            2.3537     3.0321     0.9211 H       
  38 H38            1.1800     3.9824    -0.1376 H       
  39 H39            1.2172     5.8902     1.5337 H       
  40 H40            2.3909     4.9399     2.5924 H       
  41 H41           -3.5512     8.7732     5.0520 H       
  42 H42           -2.4591     6.7368     4.2086 H       
  43 H43           -4.6698     7.0872     0.5525 H       
  44 H44           -5.7519     9.1215     1.4138 H       
  45 H45           -5.1971     9.9584     3.6597 H       
@<TRIPOS>BOND
   1    1    2 ar
   2    1    6 ar
   3    1    7 1
   4    2    3 ar
   5    2   32 1
   6    3    4 ar
   7    3   23 1
   8    4    5 ar
   9    4   21 1
  10    5    6 ar
  11    5   33 1
  12    6   34 1
  13    7   10 1
  14    7    9 2
  15    8    9 1
  16    8   11 1
  17    8   35 1
  18   10   13 ar
  19   10   11 ar
  20   11   12 ar
  21   12   15 ar
  22   13   14 ar
  23   13   18 1
  24   14   15 ar
  25   14   17 1
  26   15   16 1
  27   16   29 ar
  28   16   28 ar
  29   17   22 3
  30   18   19 1
  31   18   20 1
  32   18   36 1
  33   19   20 1
  34   19   37 1
  35   19   38 1
  36   20   39 1
  37   20   40 1
  38   23   24 1
  39   23   25 1
  40   23   26 1
  41   27   28 ar
  42   27   31 ar
  43   27   41 1
  44   28   42 1
  45   29   30 ar
  46   29   43 1
  47   30   31 ar
  48   30   44 1
  49   31   45 1

#	End of record

