#	Name: ASD01810987
#	Creating user name:	WinNT
#	Creation time:	15. 06. 2019 19:25

#	Modifying user name:	WinNT
#	Modification time:	15. 06. 2019 19:25

#	Program:	/corina/corina34_cracker 3.40 0067  02.08.2006

@<TRIPOS>MOLECULE
ASD01810987
  58   60    0    0    0
SMALL
NO_CHARGES


@<TRIPOS>ATOM
   1 C1             0.2594     0.8374     1.7847 C.2     
   2 C2             0.1413    -0.3209     0.8752 C.ar    
   3 C3             1.1610    -0.6008    -0.0385 C.ar    
   4 C4             1.0520    -1.6827    -0.8889 C.ar    
   5 C5            -0.0638    -2.4953    -0.8432 C.ar    
   6 C6            -1.0906    -2.2268     0.0648 C.ar    
   7 C7            -0.9845    -1.1402     0.9304 C.ar    
   8 O8             1.2843     1.4890     1.8085 O.2     
   9 O9            -0.7716     1.1744     2.5836 O.3     
  10 C10           -0.1739    -3.6742    -1.7755 C.3     
  11 C11           -1.0448    -3.2959    -2.9752 C.3     
  12 C12            2.3820     0.2806    -0.0959 C.3     
  13 C13            3.3704    -0.1458     0.9914 C.3     
  14 C14           -2.2846    -3.0977     0.1119 C.2     
  15 O15           -2.1545    -4.3031     0.1988 O.2     
  16 N16           -3.5171    -2.5550     0.0583 N.am    
  17 C17           -4.7120    -3.3932     0.2265 C.3     
  18 C18           -5.6452    -3.1665    -0.9671 C.3     
  19 C19           -5.9404    -1.6709    -1.1018 C.3     
  20 C20           -4.6359    -0.9127    -1.3578 C.3     
  21 C21           -3.6911    -1.1130    -0.1631 C.3     
  22 C22           -6.8854    -1.4475    -2.2543 C.ar    
  23 C23           -8.1164    -0.8566    -2.0309 C.ar    
  24 C24           -8.9862    -0.6492    -3.0812 C.ar    
  25 C25           -8.6217    -1.0365    -4.3723 C.ar    
  26 C26           -7.3777    -1.6318    -4.5906 C.ar    
  27 C27           -6.5156    -1.8290    -3.5319 C.ar    
  28 C28           -9.5199    -0.8247    -5.4673 C.1     
  29 N29          -10.2324    -0.6566    -6.3360 N.1     
  30 C30           -0.5851     2.3236     3.4511 C.3     
  31 H31            1.8427    -1.8945    -1.5934 H       
  32 H32           -1.7733    -0.9313     1.6379 H       
  33 H33            0.8198    -3.9569    -2.1226 H       
  34 H34           -0.6270    -4.5135    -1.2479 H       
  35 H35           -1.1245    -4.1486    -3.6496 H       
  36 H36           -2.0386    -3.0132    -2.6281 H       
  37 H37           -0.5918    -2.4566    -3.5028 H       
  38 H38            2.8539     0.1845    -1.0738 H       
  39 H39            2.0892     1.3180     0.0658 H       
  40 H40            3.6632    -1.1831     0.8297 H       
  41 H41            4.2535     0.4918     0.9499 H       
  42 H42            2.8986    -0.0496     1.9693 H       
  43 H43           -4.4196    -4.4424     0.2675 H       
  44 H44           -5.2245    -3.1182     1.1483 H       
  45 H45           -5.1655    -3.5261    -1.8774 H       
  46 H46           -6.5775    -3.7084    -0.8081 H       
  47 H47           -6.3975    -1.3066    -0.1818 H       
  48 H48           -4.1657    -1.2936    -2.2645 H       
  49 H49           -4.8497     0.1494    -1.4770 H       
  50 H50           -4.1220    -0.6559     0.7276 H       
  51 H51           -2.7248    -0.6573    -0.3792 H       
  52 H52           -8.3970    -0.5575    -1.0318 H       
  53 H53           -9.9471    -0.1885    -2.9053 H       
  54 H54           -7.0895    -1.9338    -5.5867 H       
  55 H55           -5.5514    -2.2856    -3.7000 H       
  56 H56            0.2562     2.1413     4.1198 H       
  57 H57           -0.3830     3.2071     2.8455 H       
  58 H58           -1.4884     2.4852     4.0394 H       
@<TRIPOS>BOND
   1    1    2 1
   2    1    8 2
   3    1    9 1
   4    2    3 ar
   5    2    7 ar
   6    3    4 ar
   7    3   12 1
   8    4    5 ar
   9    4   31 1
  10    5    6 ar
  11    5   10 1
  12    6    7 ar
  13    6   14 1
  14    7   32 1
  15    9   30 1
  16   10   11 1
  17   10   33 1
  18   10   34 1
  19   11   35 1
  20   11   36 1
  21   11   37 1
  22   12   13 1
  23   12   38 1
  24   12   39 1
  25   13   40 1
  26   13   41 1
  27   13   42 1
  28   14   15 2
  29   14   16 am
  30   16   17 1
  31   16   21 1
  32   17   18 1
  33   17   43 1
  34   17   44 1
  35   18   19 1
  36   18   45 1
  37   18   46 1
  38   19   20 1
  39   19   22 1
  40   19   47 1
  41   20   21 1
  42   20   48 1
  43   20   49 1
  44   21   50 1
  45   21   51 1
  46   22   23 ar
  47   22   27 ar
  48   23   24 ar
  49   23   52 1
  50   24   25 ar
  51   24   53 1
  52   25   26 ar
  53   25   28 1
  54   26   27 ar
  55   26   54 1
  56   27   55 1
  57   28   29 3
  58   30   56 1
  59   30   57 1
  60   30   58 1

#	End of record

