#	Name: ASD06560004
#	Creating user name:	WinNT
#	Creation time:	15. 06. 2019 21:06

#	Modifying user name:	WinNT
#	Modification time:	15. 06. 2019 21:06

#	Program:	/corina/corina34_cracker 3.40 0067  02.08.2006

@<TRIPOS>MOLECULE
ASD06560004
  50   52    0    0    0
SMALL
NO_CHARGES


@<TRIPOS>ATOM
   1 C1            -0.0440     1.3671    -0.0169 C.ar    
   2 C2            -0.0239    -0.0150    -0.0264 C.ar    
   3 C3             1.1832    -0.6887    -0.0354 C.ar    
   4 C4             2.3701     0.0199    -0.0355 C.ar    
   5 C5             2.3500     1.4021    -0.0269 C.ar    
   6 C6             1.1429     2.0757    -0.0164 C.ar    
   7 C7             3.6440     2.1745    -0.0260 C.3     
   8 N8             3.5184     3.3387    -0.9063 N.pl3   
   9 C9             3.9530     2.6352     1.3752 C.ar    
  10 C10            4.8647     1.9389     2.1465 C.ar    
  11 C11            5.1480     2.3615     3.4318 C.ar    
  12 C12            4.5201     3.4807     3.9456 C.ar    
  13 C13            3.6091     4.1775     3.1740 C.ar    
  14 C14            3.3290     3.7574     1.8872 C.ar    
  15 C15            3.7525     3.2073    -2.2704 C.ar    
  16 C16            3.6313     4.3147    -3.0967 C.ar    
  17 C17            3.8686     4.1720    -4.4621 C.ar    
  18 C18            4.2206     2.9132    -4.9463 C.ar    
  19 C19            4.3224     1.8526    -4.0598 C.ar    
  20 N20            4.0943     2.0260    -2.7658 N.ar    
  21 N21            3.7563     5.2606    -5.3226 N.pl3   
  22 N22            4.6739     0.5896    -4.5342 N.am    
  23 C23            4.8777    -0.4229    -3.6682 C.2     
  24 O24            4.8482    -0.2144    -2.4738 O.2     
  25 N25            3.2542     5.6314    -2.5351 N.pl3   
  26 O26            4.1178     6.3993    -2.1503 O.2     
  27 O27            2.0803     5.9469    -2.4578 O.2     
  28 C28            5.3375    -2.7671    -3.0033 C.3     
  29 C29            5.1423    -1.8139    -4.1840 C.3     
  30 H30           -0.9871     1.8935    -0.0143 H       
  31 H31           -0.9512    -0.5686    -0.0263 H       
  32 H32            1.1989    -1.7685    -0.0421 H       
  33 H33            3.3132    -0.5064    -0.0418 H       
  34 H34            1.1272     3.1555    -0.0101 H       
  35 H35            4.4499     1.5337    -0.3838 H       
  36 H36            3.2718     4.2013    -0.5375 H       
  37 H37            5.3552     1.0645     1.7450 H       
  38 H38            5.8598     1.8171     4.0346 H       
  39 H39            4.7410     3.8104     4.9501 H       
  40 H40            3.1182     5.0517     3.5756 H       
  41 H41            2.6172     4.3018     1.2843 H       
  42 H42            4.4114     2.7661    -5.9991 H       
  43 H43            3.5102     6.1315    -4.9734 H       
  44 H44            3.9241     5.1483    -6.2714 H       
  45 H45            4.7718     0.4395    -5.4875 H       
  46 H46            6.1851    -2.4345    -2.4041 H       
  47 H47            4.4376    -2.7727    -2.3882 H       
  48 H48            5.5288    -3.7732    -3.3763 H       
  49 H49            4.2947    -2.1465    -4.7832 H       
  50 H50            6.0421    -1.8083    -4.7991 H       
@<TRIPOS>BOND
   1    1    2 ar
   2    1    6 ar
   3    1   30 1
   4    2    3 ar
   5    2   31 1
   6    3    4 ar
   7    3   32 1
   8    4    5 ar
   9    4   33 1
  10    5    6 ar
  11    5    7 1
  12    6   34 1
  13    7    8 1
  14    7    9 1
  15    7   35 1
  16    8   15 1
  17    8   36 1
  18    9   10 ar
  19    9   14 ar
  20   10   11 ar
  21   10   37 1
  22   11   12 ar
  23   11   38 1
  24   12   13 ar
  25   12   39 1
  26   13   14 ar
  27   13   40 1
  28   14   41 1
  29   15   16 ar
  30   15   20 ar
  31   16   17 ar
  32   16   25 1
  33   17   18 ar
  34   17   21 1
  35   18   19 ar
  36   18   42 1
  37   19   20 ar
  38   19   22 1
  39   21   43 1
  40   21   44 1
  41   22   23 am
  42   22   45 1
  43   23   24 2
  44   23   29 1
  45   25   26 2
  46   25   27 2
  47   28   29 1
  48   28   46 1
  49   28   47 1
  50   28   48 1
  51   29   49 1
  52   29   50 1

#	End of record

