#	Name: ASD05490004
#	Creating user name:	WinNT
#	Creation time:	15. 06. 2019 21:00

#	Modifying user name:	WinNT
#	Modification time:	15. 06. 2019 21:00

#	Program:	/corina/corina34_cracker 3.40 0067  02.08.2006

@<TRIPOS>MOLECULE
ASD05490004
  67   71    0    0    0
SMALL
NO_CHARGES


@<TRIPOS>ATOM
   1 N1             0.3786     2.0330     0.0914 N.am    
   2 N2             3.3572     4.7631     0.5113 N.ar    
   3 C3             2.0749     5.1208     0.4793 C.ar    
   4 C4             3.7111     3.4923     0.4049 C.ar    
   5 N5             2.8211     2.5238     0.2650 N.ar    
   6 C6             1.5218     2.7999     0.2248 C.ar    
   7 C7             1.1077     4.1281     0.3324 C.ar    
   8 N8             1.7092     6.4544     0.5903 N.pl3   
   9 C9            -0.6922     2.8494     0.1096 C.2     
  10 N10           -0.2850     4.1252     0.2603 N.am    
  11 O11           -1.8506     2.4894     0.0133 O.2     
  12 C12            0.3395     0.5756    -0.0520 C.3     
  13 C13            0.2533    -0.0613     1.3111 C.ar    
  14 C14           -0.9826    -0.3151     1.8774 C.ar    
  15 C15           -1.0691    -0.8995     3.1284 C.ar    
  16 C16            0.0788    -1.2319     3.8183 C.ar    
  17 C17            1.3269    -0.9784     3.2524 C.ar    
  18 C18            1.4080    -0.3953     1.9897 C.ar    
  19 C19            2.5648    -1.3336     3.9896 C.ar    
  20 C20            2.7851    -0.8300     5.2697 C.ar    
  21 C21            3.9384    -1.1637     5.9509 C.ar    
  22 C22            4.8745    -1.9959     5.3646 C.ar    
  23 C23            4.6611    -2.4985     4.0935 C.ar    
  24 C24            3.5085    -2.1768     3.4061 C.ar    
  25 C25            1.7664     0.0778     5.9094 C.3     
  26 N26            1.8251     1.4023     5.2770 N.3     
  27 C27            0.6231     2.1942     5.5965 C.3     
  28 C28            1.1013     3.5057     6.2543 C.3     
  29 C29            2.5646     3.6338     5.7553 C.3     
  30 C30            3.0167     2.1524     5.7280 C.3     
  31 O31            5.0276     3.1728     0.4424 O.3     
  32 C32            9.7973     4.3023     0.8034 C.3     
  33 C33            8.3703     4.8538     0.7828 C.3     
  34 C34            7.3798     3.6995     0.6174 C.3     
  35 C35            5.9527     4.2509     0.5969 C.3     
  36 H36            2.3905     7.1372     0.6925 H       
  37 H37            0.7722     6.7040     0.5658 H       
  38 H38           -0.8599     4.9048     0.3103 H       
  39 H39           -0.5324     0.2918    -0.6414 H       
  40 H40            1.2446     0.2356    -0.5553 H       
  41 H41           -1.8836    -0.0559     1.3413 H       
  42 H42           -2.0368    -1.0955     3.5660 H       
  43 H43            0.0102    -1.6874     4.7952 H       
  44 H44            2.3727    -0.1967     1.5466 H       
  45 H45            4.1102    -0.7739     6.9433 H       
  46 H46            5.7757    -2.2542     5.9009 H       
  47 H47            5.3956    -3.1477     3.6402 H       
  48 H48            3.3429    -2.5696     2.4138 H       
  49 H49            0.7700    -0.3441     5.7773 H       
  50 H50            1.9823     0.1733     6.9736 H       
  51 H51            0.0722     2.4171     4.6828 H       
  52 H52           -0.0115     1.6417     6.2894 H       
  53 H53            0.5021     4.3494     5.9119 H       
  54 H54            1.0703     3.4255     7.3409 H       
  55 H55            2.6000     4.0713     4.7576 H       
  56 H56            3.1667     4.2129     6.4555 H       
  57 H57            3.3143     1.8280     6.7251 H       
  58 H58            3.8379     2.0192     5.0238 H       
  59 H59            9.9064     3.6078     1.6363 H       
  60 H60            9.9991     3.7817    -0.1328 H       
  61 H61           10.5029     5.1247     0.9212 H       
  62 H62            8.1684     5.3744     1.7189 H       
  63 H63            8.2611     5.5484    -0.0501 H       
  64 H64            7.5816     3.1788    -0.3187 H       
  65 H65            7.4889     3.0049     1.4503 H       
  66 H66            5.8436     4.9455    -0.2360 H       
  67 H67            5.7509     4.7716     1.5330 H       
@<TRIPOS>BOND
   1    1   12 1
   2    1    6 1
   3    1    9 am
   4    2    3 ar
   5    2    4 ar
   6    3    8 1
   7    3    7 ar
   8    4    5 ar
   9    4   31 1
  10    5    6 ar
  11    6    7 ar
  12    7   10 1
  13    8   36 1
  14    8   37 1
  15    9   10 am
  16    9   11 2
  17   10   38 1
  18   12   13 1
  19   12   39 1
  20   12   40 1
  21   13   14 ar
  22   13   18 ar
  23   14   15 ar
  24   14   41 1
  25   15   16 ar
  26   15   42 1
  27   16   17 ar
  28   16   43 1
  29   17   18 ar
  30   17   19 1
  31   18   44 1
  32   19   20 ar
  33   19   24 ar
  34   20   21 ar
  35   20   25 1
  36   21   22 ar
  37   21   45 1
  38   22   23 ar
  39   22   46 1
  40   23   24 ar
  41   23   47 1
  42   24   48 1
  43   25   26 1
  44   25   49 1
  45   25   50 1
  46   26   27 1
  47   26   30 1
  48   27   28 1
  49   27   51 1
  50   27   52 1
  51   28   29 1
  52   28   53 1
  53   28   54 1
  54   29   30 1
  55   29   55 1
  56   29   56 1
  57   30   57 1
  58   30   58 1
  59   31   35 1
  60   32   33 1
  61   32   59 1
  62   32   60 1
  63   32   61 1
  64   33   34 1
  65   33   62 1
  66   33   63 1
  67   34   35 1
  68   34   64 1
  69   34   65 1
  70   35   66 1
  71   35   67 1

#	End of record

