#	Name: ASD01810402
#	Creating user name:	WinNT
#	Creation time:	15. 06. 2019 19:24

#	Modifying user name:	WinNT
#	Modification time:	15. 06. 2019 19:24

#	Program:	/corina/corina34_cracker 3.40 0067  02.08.2006

@<TRIPOS>MOLECULE
ASD01810402
  25   25    0    0    0
SMALL
NO_CHARGES


@<TRIPOS>ATOM
   1 C1            -0.0609     1.4725    -0.0008 C.2     
   2 C2            -0.0187    -0.0044    -0.0033 C.ar    
   3 C3             1.2069    -0.6681    -0.0099 C.ar    
   4 C4             1.2374    -2.0613    -0.0117 C.ar    
   5 C5             0.0405    -2.7833    -0.0068 C.ar    
   6 C6            -1.1697    -2.1192    -0.0007 C.ar    
   7 C7            -1.2072    -0.7388     0.0069 C.ar    
   8 O8             0.9732     2.1096    -0.0046 O.2     
   9 O9            -1.2463     2.1124    -0.0000 O.3     
  10 C10            0.0714    -4.2900    -0.0087 C.3     
  11 C11            2.5309    -2.7731    -0.0192 C.2     
  12 N12            3.0688    -3.1811    -1.1856 N.am    
  13 S13            3.3476    -3.0802     1.4539 S.2     
  14 C14           -1.2118     3.5640     0.0024 C.3     
  15 H15            2.1286    -0.1052    -0.0140 H       
  16 H16           -2.0915    -2.6820     0.0027 H       
  17 H17           -2.1575    -0.2257     0.0162 H       
  18 H18            0.1803    -4.6524     1.0135 H       
  19 H19           -0.8574    -4.6719    -0.4326 H       
  20 H20            0.9135    -4.6354    -0.6083 H       
  21 H21            2.6062    -3.0071    -2.0202 H       
  22 H22            3.9187    -3.6487    -1.1906 H       
  23 H23           -0.6897     3.9135     0.8930 H       
  24 H24           -0.6893     3.9165    -0.8869 H       
  25 H25           -2.2305     3.9516     0.0028 H       
@<TRIPOS>BOND
   1    1    2 1
   2    1    8 2
   3    1    9 1
   4    2    3 ar
   5    2    7 ar
   6    3    4 ar
   7    3   15 1
   8    4    5 ar
   9    4   11 1
  10    5    6 ar
  11    5   10 1
  12    6    7 ar
  13    6   16 1
  14    7   17 1
  15    9   14 1
  16   10   18 1
  17   10   19 1
  18   10   20 1
  19   11   12 am
  20   11   13 2
  21   12   21 1
  22   12   22 1
  23   14   23 1
  24   14   24 1
  25   14   25 1

#	End of record

