#	Name: ASD01870080
#	Creating user name:	WinNT
#	Creation time:	15. 06. 2019 19:38

#	Modifying user name:	WinNT
#	Modification time:	15. 06. 2019 19:38

#	Program:	/corina/corina34_cracker 3.40 0067  02.08.2006

@<TRIPOS>MOLECULE
ASD01870080
  33   35    0    0    0
SMALL
NO_CHARGES


@<TRIPOS>ATOM
   1 C1            -0.0168     1.3887     0.0097 C.ar    
   2 C2             0.0021    -0.0041     0.0020 C.ar    
   3 C3             1.1778    -0.6913    -0.0124 C.ar    
   4 C4             2.3958     0.0080    -0.0202 C.ar    
   5 C5             2.3748     1.4260    -0.0129 C.ar    
   6 C6             1.1430     2.1024     0.0024 C.ar    
   7 N7             3.5623    -0.6488    -0.0339 N.ar    
   8 C8             4.7084    -0.0170    -0.0410 C.ar    
   9 C9             4.7721     1.3921    -0.0341 C.ar    
  10 C10            3.5907     2.1296    -0.0208 C.ar    
  11 C11            6.0736     2.0760    -0.0409 C.2     
  12 Cl12           6.1827    -0.9333    -0.0587 Cl      
  13 C13            6.1274     3.4249    -0.0343 C.2     
  14 C14            7.4235     4.1059    -0.0411 C.2     
  15 O15            8.4540     3.4549    -0.0527 O.2     
  16 C16            7.4819     5.5714    -0.0338 C.2     
  17 C17            8.6268     6.3201    -0.0391 C.2     
  18 C18            8.3905     7.6738    -0.0308 C.2     
  19 C19            7.0985     8.0249    -0.0193 C.2     
  20 S20            6.0915     6.6477    -0.0247 S.3     
  21 C21           -1.2999    -0.7629     0.0103 C.3     
  22 H22           -0.9631     1.9091     0.0170 H       
  23 H23            1.1736    -1.7713    -0.0175 H       
  24 H24            1.1163     3.1820     0.0085 H       
  25 H25            3.6089     3.2094    -0.0155 H       
  26 H26            6.9866     1.4993    -0.0513 H       
  27 H27            5.2143     4.0017    -0.0239 H       
  28 H28            9.6174     5.8901    -0.0483 H       
  29 H29            9.1886     8.4014    -0.0332 H       
  30 H30            6.7414     9.0442    -0.0118 H       
  31 H31           -1.6236    -0.9404    -1.0153 H       
  32 H32           -1.1608    -1.7176     0.5177 H       
  33 H33           -2.0570    -0.1798     0.5345 H       
@<TRIPOS>BOND
   1    1    2 ar
   2    1    6 ar
   3    1   22 1
   4    2    3 ar
   5    2   21 1
   6    3    4 ar
   7    3   23 1
   8    4    5 ar
   9    4    7 ar
  10    5    6 ar
  11    5   10 ar
  12    6   24 1
  13    7    8 ar
  14    8    9 ar
  15    8   12 1
  16    9   10 ar
  17    9   11 1
  18   10   25 1
  19   11   13 2
  20   11   26 1
  21   13   14 1
  22   13   27 1
  23   14   15 2
  24   14   16 1
  25   16   17 2
  26   16   20 1
  27   17   18 1
  28   17   28 1
  29   18   19 2
  30   18   29 1
  31   19   20 1
  32   19   30 1
  33   21   31 1
  34   21   32 1
  35   21   33 1

#	End of record

