#	Name: ASD01814380
#	Creating user name:	WinNT
#	Creation time:	15. 06. 2019 19:32

#	Modifying user name:	WinNT
#	Modification time:	15. 06. 2019 19:32

#	Program:	/corina/corina34_cracker 3.40 0067  02.08.2006

@<TRIPOS>MOLECULE
ASD01814380
  53   58    0    0    0
SMALL
NO_CHARGES


@<TRIPOS>ATOM
   1 C1            -0.0167     1.3819     0.0096 C.ar    
   2 C2             0.0021    -0.0041     0.0020 C.ar    
   3 C3             1.1970    -0.6936    -0.0127 C.ar    
   4 C4             2.3990     0.0034    -0.0204 C.ar    
   5 C5             2.3751     1.4118    -0.0131 C.ar    
   6 C6             1.1661     2.0940     0.0022 C.ar    
   7 N7             3.6102    -0.6577    -0.0347 N.pl3   
   8 N8             4.7455    -0.0610    -0.0415 N.2     
   9 C9             4.8827     1.2395    -0.0362 C.2     
  10 C10            3.6768     2.1037    -0.0219 C.2     
  11 C11            6.0122     2.1720    -0.0419 C.2     
  12 N12            5.4770     3.4118    -0.0313 N.am    
  13 N13            4.0818     3.3389    -0.0196 N.2     
  14 C14            6.2152     4.6009    -0.0327 C.ar    
  15 C15            7.1588     4.8331    -1.0249 C.ar    
  16 C16            7.8856     6.0076    -1.0233 C.ar    
  17 C17            7.6746     6.9517    -0.0354 C.ar    
  18 C18            6.7356     6.7236     0.9542 C.ar    
  19 C19            6.0016     5.5540     0.9551 C.ar    
  20 C20            3.5986    -2.1226    -0.0419 C.3     
  21 C21            3.5818    -2.6178    -1.4652 C.ar    
  22 C22            4.7723    -2.8540    -2.1276 C.ar    
  23 C23            4.7602    -3.3074    -3.4322 C.ar    
  24 C24            3.5509    -3.5265    -4.0783 C.ar    
  25 C25            2.3572    -3.2889    -3.4103 C.ar    
  26 C26            2.3758    -2.8405    -2.1041 C.ar    
  27 N27            3.5353    -3.9862    -5.4025 N.pl3   
  28 C28            2.4333    -4.2390    -6.1442 C.2     
  29 C29            2.8447    -4.6635    -7.3615 C.2     
  30 C30            4.2439    -4.6707    -7.3649 C.2     
  31 N31            4.6586    -4.2594    -6.1937 N.2     
  32 C32            4.9783     5.3065     2.0335 C.3     
  33 O33            7.1978     1.8862    -0.0534 O.2     
  34 H34           -0.9605     1.9069     0.0170 H       
  35 H35           -0.9294    -0.5505     0.0080 H       
  36 H36            1.1981    -1.7735    -0.0178 H       
  37 H37            1.1510     3.1739     0.0081 H       
  38 H38            7.3244     4.0959    -1.7966 H       
  39 H39            8.6198     6.1886    -1.7944 H       
  40 H40            8.2445     7.8691    -0.0363 H       
  41 H41            6.5731     7.4630     1.7244 H       
  42 H42            4.4902    -2.4955     0.4620 H       
  43 H43            2.7104    -2.4815     0.4781 H       
  44 H44            5.7127    -2.6834    -1.6246 H       
  45 H45            5.6903    -3.4910    -3.9494 H       
  46 H46            1.4150    -3.4580    -3.9104 H       
  47 H47            1.4475    -2.6555    -1.5840 H       
  48 H48            1.4087    -4.1235    -5.8227 H       
  49 H49            2.2059    -4.9466    -8.1849 H       
  50 H50            4.8734    -4.9614    -8.1930 H       
  51 H51            4.0123     5.6978     1.7144 H       
  52 H52            4.8942     4.2351     2.2155 H       
  53 H53            5.2884     5.8076     2.9505 H       
@<TRIPOS>BOND
   1    1    2 ar
   2    1    6 ar
   3    1   34 1
   4    2    3 ar
   5    2   35 1
   6    3    4 ar
   7    3   36 1
   8    4    5 ar
   9    4    7 1
  10    5    6 ar
  11    5   10 1
  12    6   37 1
  13    7    8 1
  14    7   20 1
  15    8    9 2
  16    9   10 1
  17    9   11 1
  18   10   13 2
  19   11   12 am
  20   11   33 2
  21   12   13 1
  22   12   14 1
  23   14   15 ar
  24   14   19 ar
  25   15   16 ar
  26   15   38 1
  27   16   17 ar
  28   16   39 1
  29   17   18 ar
  30   17   40 1
  31   18   19 ar
  32   18   41 1
  33   19   32 1
  34   20   21 1
  35   20   42 1
  36   20   43 1
  37   21   22 ar
  38   21   26 ar
  39   22   23 ar
  40   22   44 1
  41   23   24 ar
  42   23   45 1
  43   24   25 ar
  44   24   27 1
  45   25   26 ar
  46   25   46 1
  47   26   47 1
  48   27   28 1
  49   27   31 1
  50   28   29 2
  51   28   48 1
  52   29   30 1
  53   29   49 1
  54   30   31 2
  55   30   50 1
  56   32   51 1
  57   32   52 1
  58   32   53 1

#	End of record

