#	Name: ASD03091200
#	Creating user name:	WinNT
#	Creation time:	15. 06. 2019 20:30

#	Modifying user name:	WinNT
#	Modification time:	15. 06. 2019 20:30

#	Program:	/corina/corina34_cracker 3.40 0067  02.08.2006

@<TRIPOS>MOLECULE
ASD03091200
  66   69    0    0    0
SMALL
NO_CHARGES


@<TRIPOS>ATOM
   1 C1             1.1988     2.3496     0.2997 C.2     
   2 C2             0.7844     0.9327    -0.0037 C.3     
   3 O3             2.3543     2.5985     0.5710 O.2     
   4 N4             0.2863     3.3408     0.2640 N.am    
   5 C5             0.6891     4.7182     0.5588 C.3     
   6 C6            -0.2785     5.6891    -0.1208 C.3     
   7 C7             0.6606     4.9451     2.0716 C.3     
   8 N8             3.2610    -1.3373     1.4466 N.2     
   9 C9             2.2470    -0.5443     1.2799 C.2     
  10 N10            1.9505     0.0513     0.0944 N.am    
  11 C11            2.7228    -0.1632    -0.9962 C.2     
  12 C12            3.8801    -1.0571    -0.8409 C.ar    
  13 C13            4.7369    -1.3435    -1.9011 C.ar    
  14 C14            5.8104    -2.1932    -1.6946 C.ar    
  15 C15            6.0326    -2.7572    -0.4384 C.ar    
  16 C16            5.2001    -2.4852     0.6095 C.ar    
  17 C17            4.1098    -1.6310     0.4292 C.ar    
  18 O18            2.4691     0.3631    -2.0642 O.2     
  19 C19            1.3522    -0.2702     2.4611 C.3     
  20 C20            2.0486    -0.7258     3.7450 C.3     
  21 C21            1.0614     1.2297     2.5433 C.3     
  22 C22            0.0383    -1.0361     2.2942 C.3     
  23 N23            8.4265    -1.9282    -5.0738 N.3     
  24 C24            7.0170    -2.3272    -5.2062 C.3     
  25 C25            6.2134    -1.8691    -3.9991 C.3     
  26 N26            6.6764    -2.4880    -2.7514 N.3     
  27 C27            8.0491    -2.0644    -2.4413 C.3     
  28 C28            9.0508    -3.0757    -2.9785 C.3     
  29 C29            9.2065    -3.0262    -4.4850 C.3     
  30 C30            8.6740    -0.6545    -4.4329 C.3     
  31 C31            8.2670    -0.6580    -2.9685 C.3     
  32 H32            0.0271     0.6144     0.7127 H       
  33 H33            0.3745     0.8821    -1.0124 H       
  34 H34           -0.6371     3.1423     0.0430 H       
  35 H35            1.6984     4.8895     0.1847 H       
  36 H36           -1.2878     5.5177     0.2533 H       
  37 H37            0.0212     6.7139     0.0985 H       
  38 H38           -0.2582     5.5274    -1.1986 H       
  39 H39           -0.3488     4.7737     2.4458 H       
  40 H40            1.3499     4.2534     2.5559 H       
  41 H41            0.9602     5.9698     2.2910 H       
  42 H42            4.5655    -0.9076    -2.8742 H       
  43 H43            6.8741    -3.4182    -0.2924 H       
  44 H44            5.3846    -2.9299     1.5762 H       
  45 H45            2.9847    -0.1801     3.8639 H       
  46 H46            1.4014    -0.5275     4.5994 H       
  47 H47            2.2558    -1.7943     3.6864 H       
  48 H48            0.2858     1.4894     1.8228 H       
  49 H49            0.7218     1.4793     3.5485 H       
  50 H50            1.9693     1.7888     2.3172 H       
  51 H51            0.2252    -2.1050     2.3977 H       
  52 H52           -0.6690    -0.7151     3.0589 H       
  53 H53           -0.3773    -0.8339     1.3070 H       
  54 H54            6.5996    -1.8775    -6.1071 H       
  55 H55            6.9571    -3.4126    -5.2865 H       
  56 H56            6.2984    -0.7861    -3.9088 H       
  57 H57            5.1658    -2.1274    -4.1538 H       
  58 H58            8.1536    -2.0276    -1.3570 H       
  59 H59           10.0210    -2.8837    -2.5203 H       
  60 H60            8.7246    -4.0759    -2.6935 H       
  61 H61            8.8669    -3.9712    -4.9091 H       
  62 H62           10.2594    -2.8858    -4.7295 H       
  63 H63            9.7370    -0.4237    -4.5038 H       
  64 H64            8.1106     0.1192    -4.9545 H       
  65 H65            7.3433    -0.0904    -2.8562 H       
  66 H66            9.0500    -0.1772    -2.3821 H       
@<TRIPOS>BOND
   1    1    2 1
   2    1    3 2
   3    1    4 am
   4    2   10 1
   5    2   32 1
   6    2   33 1
   7    4    5 1
   8    4   34 1
   9    5    6 1
  10    5    7 1
  11    5   35 1
  12    6   36 1
  13    6   37 1
  14    6   38 1
  15    7   39 1
  16    7   40 1
  17    7   41 1
  18    8    9 2
  19    8   17 1
  20    9   10 1
  21    9   19 1
  22   10   11 am
  23   11   12 1
  24   11   18 2
  25   12   13 ar
  26   12   17 ar
  27   13   14 ar
  28   13   42 1
  29   14   15 ar
  30   14   26 1
  31   15   16 ar
  32   15   43 1
  33   16   17 ar
  34   16   44 1
  35   19   20 1
  36   19   22 1
  37   19   21 1
  38   20   45 1
  39   20   46 1
  40   20   47 1
  41   21   48 1
  42   21   49 1
  43   21   50 1
  44   22   51 1
  45   22   52 1
  46   22   53 1
  47   23   24 1
  48   23   29 1
  49   23   30 1
  50   24   25 1
  51   24   54 1
  52   24   55 1
  53   25   26 1
  54   25   56 1
  55   25   57 1
  56   26   27 1
  57   27   28 1
  58   27   31 1
  59   27   58 1
  60   28   29 1
  61   28   59 1
  62   28   60 1
  63   29   61 1
  64   29   62 1
  65   30   31 1
  66   30   63 1
  67   30   64 1
  68   31   65 1
  69   31   66 1

#	End of record

