#	Name: ASD01881399
#	Creating user name:	WinNT
#	Creation time:	15. 06. 2019 19:42

#	Modifying user name:	WinNT
#	Modification time:	15. 06. 2019 19:42

#	Program:	/corina/corina34_cracker 3.40 0067  02.08.2006

@<TRIPOS>MOLECULE
ASD01881399
  46   49    0    0    0
SMALL
NO_CHARGES


@<TRIPOS>ATOM
   1 Cl1           -0.3318    -2.4657    -0.2088 Cl      
   2 C2             0.1857     1.6022    -1.1398 C.ar    
   3 C3             0.2898     0.3189    -1.6345 C.ar    
   4 C4             1.2582     2.1815    -0.4764 C.ar    
   5 C5             2.4419     1.4704    -0.3083 C.ar    
   6 C6             2.5520     0.1860    -0.8011 C.ar    
   7 C7             1.4744    -0.3980    -1.4679 C.ar    
   8 C8             1.5885    -1.7764    -1.9983 C.2     
   9 C9             0.8010    -2.7904    -1.4836 C.2     
  10 C10            2.5010    -2.0681    -3.0415 C.2     
  11 C11            2.6029    -3.3211    -3.5224 C.2     
  12 N12            1.8330    -4.3296    -3.0174 N.pl3   
  13 C13            0.9322    -4.0885    -2.0084 C.2     
  14 C14            1.7260    -5.6569    -3.3016 C.2     
  15 N15            0.8203    -6.1593    -2.5025 N.2     
  16 N16            0.3441    -5.2429    -1.7350 N.2     
  17 C17            2.5085    -6.4100    -4.3464 C.3     
  18 F18            3.4844     2.0376     0.3372 F       
  19 O19            1.1520     3.4461     0.0096 O.3     
  20 C20           -0.0531     4.0641    -0.0800 C.ar    
  21 C21           -1.0006     3.9319     0.9325 C.ar    
  22 C22           -0.3718     4.8513    -1.1840 C.ar    
  23 C23           -1.6074     5.4627    -1.2376 C.ar    
  24 N24           -2.4810     5.3089    -0.2605 N.ar    
  25 C25           -2.2139     4.5759     0.8039 C.ar    
  26 C26           -3.2497     4.4353     1.8895 C.3     
  27 C27           -1.9638     6.3172    -2.4266 C.3     
  28 C28            3.7954    -6.9561    -3.7245 C.3     
  29 F29            3.4746    -7.8184    -2.6706 F       
  30 F30            4.5218    -7.6553    -4.6945 F       
  31 F31            4.5664    -5.8941    -3.2400 F       
  32 H32           -0.7302     2.1588    -1.2729 H       
  33 H33           -0.5459    -0.1308    -2.1502 H       
  34 H34            3.4710    -0.3662    -0.6711 H       
  35 H35            3.1170    -1.2821    -3.4529 H       
  36 H36            3.3023    -3.5315    -4.3180 H       
  37 H37            1.9078    -7.2375    -4.7239 H       
  38 H38            2.7584    -5.7382    -5.1675 H       
  39 H39           -0.7885     3.3332     1.8060 H       
  40 H40            0.3387     4.9815    -1.9869 H       
  41 H41           -3.8833     3.5740     1.6778 H       
  42 H42           -2.7530     4.2938     2.8494 H       
  43 H43           -3.8618     5.3364     1.9265 H       
  44 H44           -2.4369     5.6991    -3.1896 H       
  45 H45           -2.6533     7.1024    -2.1162 H       
  46 H46           -1.0591     6.7684    -2.8341 H       
@<TRIPOS>BOND
   1    1    9 1
   2    2    3 ar
   3    2    4 ar
   4    2   32 1
   5    3    7 ar
   6    3   33 1
   7    4    5 ar
   8    4   19 1
   9    5    6 ar
  10    5   18 1
  11    6    7 ar
  12    6   34 1
  13    7    8 1
  14    8    9 2
  15    8   10 1
  16    9   13 1
  17   10   11 2
  18   10   35 1
  19   11   12 1
  20   11   36 1
  21   12   13 1
  22   12   14 1
  23   13   16 2
  24   14   15 2
  25   14   17 1
  26   15   16 1
  27   17   28 1
  28   17   37 1
  29   17   38 1
  30   19   20 1
  31   20   21 ar
  32   20   22 ar
  33   21   25 ar
  34   21   39 1
  35   22   23 ar
  36   22   40 1
  37   23   24 ar
  38   23   27 1
  39   24   25 ar
  40   25   26 1
  41   26   41 1
  42   26   42 1
  43   26   43 1
  44   27   44 1
  45   27   45 1
  46   27   46 1
  47   28   29 1
  48   28   30 1
  49   28   31 1

#	End of record

