#	Name: ASD00241032
#	Creating user name:	WinNT
#	Creation time:	15. 06. 2019 18:33

#	Modifying user name:	WinNT
#	Modification time:	15. 06. 2019 18:33

#	Program:	/corina/corina34_cracker 3.40 0067  02.08.2006

@<TRIPOS>MOLECULE
ASD00241032
  59   63    0    0    0
SMALL
NO_CHARGES


@<TRIPOS>ATOM
   1 N1            -0.0158     1.3160     0.0093 N.ar    
   2 C2             0.0021    -0.0041     0.0020 C.ar    
   3 N3             1.1224    -0.6956    -0.0124 N.ar    
   4 C4             2.2984    -0.0784    -0.0203 C.ar    
   5 C5             2.3324     1.3274    -0.0131 C.ar    
   6 C6             1.1110     2.0198     0.0023 C.ar    
   7 N7             3.6079    -0.4879    -0.0357 N.pl3   
   8 C8             4.3860     0.6312    -0.0376 C.2     
   9 N9             3.6361     1.6948    -0.0243 N.2     
  10 C10            4.0827    -1.8738    -0.0480 C.3     
  11 O11            5.4252    -1.9500     0.4789 O.3     
  12 C12            5.9607    -3.1940    -0.0226 C.3     
  13 C13            5.4624    -3.2783    -1.4824 C.3     
  14 C14            4.1985    -2.3897    -1.4995 C.3     
  15 C15            7.4900    -3.1702     0.0176 C.3     
  16 F16            3.0724    -3.1458    -1.8423 F       
  17 N17            1.0815     3.4075     0.0096 N.am    
  18 O18            7.9303    -3.1353     1.3767 O.3     
  19 P19            9.4849    -3.1033     1.7942 P.3     
  20 H20            9.8445    -1.7635     1.4909 H       
  21 O21            5.1314    -4.6264    -1.8214 O.3     
  22 C22            5.0545    -6.4322    -3.4271 C.3     
  23 C23            5.3176    -4.9408    -3.2029 C.3     
  24 O24            4.4070    -4.1737    -3.9932 O.3     
  25 C25            4.5271    -4.3936    -5.4001 C.3     
  26 C26            4.2322    -5.8630    -5.7125 C.3     
  27 C27            5.1972    -6.7492    -4.9189 C.3     
  28 C28           -0.0997     4.0563     0.0243 C.2     
  29 C29           -0.1899     8.3026     0.0471 C.ar    
  30 C30           -1.3750     7.5885     0.0546 C.ar    
  31 C31           -1.3528     6.2092     0.0474 C.ar    
  32 C32           -0.1311     5.5339     0.0321 C.ar    
  33 C33            1.0609     6.2605     0.0246 C.ar    
  34 C34            1.0245     7.6396     0.0324 C.ar    
  35 O35           -1.1391     3.4263     0.0313 O.2     
  36 H36           -0.9374    -0.5367     0.0085 H       
  37 H37            5.4659     0.6348    -0.0481 H       
  38 H38            3.4116    -2.5091     0.5299 H       
  39 H39            5.5780    -4.0334     0.5581 H       
  40 H40            6.2148    -2.8852    -2.1661 H       
  41 H41            4.3260    -1.5574    -2.1916 H       
  42 H42            7.8802    -4.0648    -0.4678 H       
  43 H43            7.8535    -2.2854    -0.5049 H       
  44 H44            1.9110     3.9102     0.0040 H       
  45 H45            9.4092    -3.0749     3.2119 H       
  46 H46            5.7767    -7.0188    -2.8593 H       
  47 H47            4.0449    -6.6775    -3.0975 H       
  48 H48            6.3408    -4.7043    -3.4948 H       
  49 H49            3.8155    -3.7596    -5.9291 H       
  50 H50            5.5399    -4.1499    -5.7209 H       
  51 H51            3.2061    -6.0969    -5.4290 H       
  52 H52            4.3664    -6.0426    -6.7792 H       
  53 H53            6.2204    -6.5508    -5.2376 H       
  54 H54            4.9564    -7.7979    -5.0934 H       
  55 H55           -0.2128     9.3823     0.0483 H       
  56 H56           -2.3195     8.1121     0.0665 H       
  57 H57           -2.2786     5.6530     0.0536 H       
  58 H58            2.0094     5.7442     0.0131 H       
  59 H59            1.9459     8.2029     0.0266 H       
@<TRIPOS>BOND
   1    1    2 ar
   2    1    6 ar
   3    2    3 ar
   4    2   36 1
   5    3    4 ar
   6    4    5 ar
   7    4    7 1
   8    5    6 ar
   9    5    9 1
  10    6   17 1
  11    7    8 1
  12    7   10 1
  13    8    9 2
  14    8   37 1
  15   10   11 1
  16   10   14 1
  17   10   38 1
  18   11   12 1
  19   12   13 1
  20   12   15 1
  21   12   39 1
  22   13   14 1
  23   13   21 1
  24   13   40 1
  25   14   16 1
  26   14   41 1
  27   15   18 1
  28   15   42 1
  29   15   43 1
  30   17   28 am
  31   17   44 1
  32   18   19 1
  33   19   20 1
  34   19   45 1
  35   21   23 1
  36   22   23 1
  37   22   27 1
  38   22   46 1
  39   22   47 1
  40   23   24 1
  41   23   48 1
  42   24   25 1
  43   25   26 1
  44   25   49 1
  45   25   50 1
  46   26   27 1
  47   26   51 1
  48   26   52 1
  49   27   53 1
  50   27   54 1
  51   28   35 2
  52   28   32 1
  53   29   30 ar
  54   29   34 ar
  55   29   55 1
  56   30   31 ar
  57   30   56 1
  58   31   32 ar
  59   31   57 1
  60   32   33 ar
  61   33   34 ar
  62   33   58 1
  63   34   59 1

#	End of record

