#	Name: ASD01028288
#	Creating user name:	WinNT
#	Creation time:	15. 06. 2019 18:56

#	Modifying user name:	WinNT
#	Modification time:	15. 06. 2019 18:56

#	Program:	/corina/corina34_cracker 3.40 0067  02.08.2006

@<TRIPOS>MOLECULE
ASD01028288
  51   55    0    0    0
SMALL
NO_CHARGES


@<TRIPOS>ATOM
   1 C1             0.0701     3.2360     0.1045 C.ar    
   2 C2            -0.1654     1.8810     0.0570 C.ar    
   3 C3             1.3762     3.7353     0.1053 C.ar    
   4 C4             2.4435     2.8929     0.0592 C.ar    
   5 C5             2.2367     1.5060     0.0101 C.ar    
   6 C6             0.9184     0.9893     0.0087 C.ar    
   7 C7             3.3238     0.6045    -0.0389 C.ar    
   8 C8             3.0425    -0.7493    -0.0863 C.ar    
   9 C9             1.7216    -1.1789    -0.0844 C.ar    
  10 N10            0.7191    -0.3332    -0.0381 N.ar    
  11 O11            4.6035     1.0526    -0.0400 O.3     
  12 C12            5.6362     0.0662    -0.0915 C.3     
  13 C13            6.9811     0.7462    -0.0848 C.2     
  14 N14            7.7158     1.0687     1.0164 N.pl3   
  15 C15            8.8589     1.6675     0.5425 C.2     
  16 N16            8.7658     1.6789    -0.7760 N.2     
  17 N17            7.6591     1.1296    -1.1346 N.2     
  18 C18            7.5196     0.9104     2.3513 C.2     
  19 C19            8.4571     1.3451     3.2433 C.2     
  20 C20            9.6445     1.9664     2.7789 C.2     
  21 C21            9.8413     2.1235     1.4461 C.2     
  22 C22            8.2347     1.1691     4.6915 C.2     
  23 O23           -0.9783     4.0986     0.1454 O.3     
  24 C24           -0.6697     5.4930     0.1937 C.3     
  25 O25            7.2166     0.6369     5.0900 O.2     
  26 N26            9.1601     1.5982     5.5724 N.am    
  27 C27            8.9071     1.5207     6.9457 C.ar    
  28 C28            8.1863     0.4513     7.4613 C.ar    
  29 C29            9.3810     2.5100     7.7976 C.ar    
  30 C30            9.1298     2.4303     9.1533 C.ar    
  31 C31            8.4074     1.3669     9.6628 C.ar    
  32 C32            7.9386     0.3775     8.8180 C.ar    
  33 H33           -1.1781     1.5054     0.0571 H       
  34 H34            1.5397     4.8023     0.1427 H       
  35 H35            3.4475     3.2907     0.0600 H       
  36 H36            3.8467    -1.4691    -0.1249 H       
  37 H37            1.5138    -2.2381    -0.1216 H       
  38 H38            5.5561    -0.5892     0.7757 H       
  39 H39            5.5313    -0.5225    -1.0028 H       
  40 H40            6.6166     0.4381     2.7089 H       
  41 H41           10.3877     2.3119     3.4822 H       
  42 H42           10.7415     2.5947     1.0801 H       
  43 H43           -1.5946     6.0690     0.2230 H       
  44 H44           -0.0816     5.7042     1.0868 H       
  45 H45           -0.0975     5.7694    -0.6919 H       
  46 H46           10.0015     1.9608     5.2540 H       
  47 H47            7.8196    -0.3216     6.8020 H       
  48 H48            9.9456     3.3406     7.4003 H       
  49 H49            9.4984     3.1990     9.8163 H       
  50 H50            8.2127     1.3067    10.7234 H       
  51 H51            7.3744    -0.4515     9.2190 H       
@<TRIPOS>BOND
   1    1    2 ar
   2    1    3 ar
   3    1   23 1
   4    2    6 ar
   5    2   33 1
   6    3    4 ar
   7    3   34 1
   8    4    5 ar
   9    4   35 1
  10    5    6 ar
  11    5    7 ar
  12    6   10 ar
  13    7    8 ar
  14    7   11 1
  15    8    9 ar
  16    8   36 1
  17    9   10 ar
  18    9   37 1
  19   11   12 1
  20   12   13 1
  21   12   38 1
  22   12   39 1
  23   13   14 1
  24   13   17 2
  25   14   15 1
  26   14   18 1
  27   15   16 2
  28   15   21 1
  29   16   17 1
  30   18   19 2
  31   18   40 1
  32   19   20 1
  33   19   22 1
  34   20   21 2
  35   20   41 1
  36   21   42 1
  37   22   25 2
  38   22   26 am
  39   23   24 1
  40   24   43 1
  41   24   44 1
  42   24   45 1
  43   26   27 1
  44   26   46 1
  45   27   28 ar
  46   27   29 ar
  47   28   32 ar
  48   28   47 1
  49   29   30 ar
  50   29   48 1
  51   30   31 ar
  52   30   49 1
  53   31   32 ar
  54   31   50 1
  55   32   51 1

#	End of record

