#	Name: ASD01914108
#	Creating user name:	WinNT
#	Creation time:	15. 06. 2019 20:02

#	Modifying user name:	WinNT
#	Modification time:	15. 06. 2019 20:02

#	Program:	/corina/corina34_cracker 3.40 0067  02.08.2006

@<TRIPOS>MOLECULE
ASD01914108
  46   47    0    0    0
SMALL
NO_CHARGES


@<TRIPOS>ATOM
   1 C1            -0.0167     1.3808     0.0096 C.ar    
   2 C2             0.0021    -0.0041     0.0020 C.ar    
   3 C3             2.3857     0.0990    -0.0201 C.ar    
   4 C4             2.2848     1.4825    -0.0118 C.ar    
   5 O5             3.6041    -0.5029    -0.0354 O.3     
   6 C6             1.2225    -0.6638    -0.0132 C.ar    
   7 N7             1.1058     2.0721     0.0026 N.ar    
   8 F8            -1.1536    -0.7038     0.0097 F       
   9 C9             4.7497     0.3513    -0.0422 C.3     
  10 C10            6.0016    -0.4874    -0.0591 C.ar    
  11 N11            7.1799     0.1059    -0.0677 N.ar    
  12 C12            8.3040    -0.5802    -0.0825 C.ar    
  13 C13            8.2837    -1.9752    -0.0902 C.ar    
  14 C14            7.0480    -2.6337    -0.0814 C.ar    
  15 C15            5.8965    -1.8669    -0.0598 C.ar    
  16 C16            9.5456    -2.7452    -0.1077 C.2     
  17 N17           10.7288    -2.0998    -0.1165 N.am    
  18 C18           11.9793    -2.8628    -0.1339 C.3     
  19 O19            9.5161    -3.9604    -0.1143 O.2     
  20 C20           13.0891    -2.0090    -0.7504 C.3     
  21 C21           12.3642    -3.2439     1.2970 C.3     
  22 C22           12.7042    -1.6279    -2.1813 C.3     
  23 C23           13.2780    -0.7394     0.0823 C.3     
  24 C24           14.3951    -2.8059    -0.7686 C.3     
  25 H25           -0.9631     1.9010     0.0169 H       
  26 H26            3.1823     2.0833    -0.0168 H       
  27 H27            1.2683    -1.7428    -0.0190 H       
  28 H28            4.7250     0.9851    -0.9287 H       
  29 H29            4.7426     0.9757     0.8512 H       
  30 H30            9.2496    -0.0585    -0.0891 H       
  31 H31            6.9951    -3.7124    -0.0870 H       
  32 H32            4.9258    -2.3402    -0.0525 H       
  33 H33           10.7523    -1.1301    -0.1113 H       
  34 H34           11.8447    -3.7673    -0.7271 H       
  35 H35           12.4987    -2.3394     1.8902 H       
  36 H36           11.5735    -3.8522     1.7362 H       
  37 H37           13.2946    -3.8116     1.2840 H       
  38 H38           11.7738    -1.0602    -2.1683 H       
  39 H39           13.4949    -1.0196    -2.6205 H       
  40 H40           12.5697    -2.5324    -2.7745 H       
  41 H41           13.5522    -1.0109     1.1017 H       
  42 H42           14.0686    -0.1311    -0.3569 H       
  43 H43           12.3476    -0.1717     0.0952 H       
  44 H44           14.2606    -3.7104    -1.3618 H       
  45 H45           15.1858    -2.1976    -1.2078 H       
  46 H46           14.6693    -3.0774     0.2508 H       
@<TRIPOS>BOND
   1    1    2 ar
   2    1    7 ar
   3    1   25 1
   4    2    6 ar
   5    2    8 1
   6    3    4 ar
   7    3    5 1
   8    3    6 ar
   9    4    7 ar
  10    4   26 1
  11    5    9 1
  12    6   27 1
  13    9   10 1
  14    9   28 1
  15    9   29 1
  16   10   11 ar
  17   10   15 ar
  18   11   12 ar
  19   12   13 ar
  20   12   30 1
  21   13   14 ar
  22   13   16 1
  23   14   15 ar
  24   14   31 1
  25   15   32 1
  26   16   17 am
  27   16   19 2
  28   17   18 1
  29   17   33 1
  30   18   20 1
  31   18   21 1
  32   18   34 1
  33   20   23 1
  34   20   24 1
  35   20   22 1
  36   21   35 1
  37   21   36 1
  38   21   37 1
  39   22   38 1
  40   22   39 1
  41   22   40 1
  42   23   41 1
  43   23   42 1
  44   23   43 1
  45   24   44 1
  46   24   45 1
  47   24   46 1

#	End of record

