#	Name: ASD04842001
#	Creating user name:	WinNT
#	Creation time:	15. 06. 2019 20:52

#	Modifying user name:	WinNT
#	Modification time:	15. 06. 2019 20:52

#	Program:	/corina/corina34_cracker 3.40 0067  02.08.2006

@<TRIPOS>MOLECULE
ASD04842001
  26   25    0    0    0
SMALL
NO_CHARGES


@<TRIPOS>ATOM
   1 P1            -0.0180     1.4758     0.0102 P.3     
   2 O2             0.0021    -0.0041     0.0020 O.2     
   3 O3             1.4924     2.0330    -0.0013 O.3     
   4 O4            -1.6956     0.2531     3.0739 O.3     
   5 O5            -0.7967     2.0091    -1.2942 O.3     
   6 O6            -0.7716     1.9950     1.3348 O.3     
   7 P7            -2.0773     1.5092     2.1417 P.3     
   8 O8            -3.1301     1.1090     1.1816 O.2     
   9 O9            -2.6194     2.7146     3.0611 O.3     
  10 C10            2.4511     1.6628    -0.9942 C.3     
  11 C11            3.7784     2.3687    -0.7099 C.3     
  12 C12            4.7894     1.9783    -1.7570 C.2     
  13 C13            4.9698     2.7380    -2.8088 C.2     
  14 C14            5.5929     0.7138    -1.5941 C.3     
  15 H15           -1.0099     0.4433     3.7286 H       
  16 H16           -0.8486     2.9728    -1.3546 H       
  17 H17           -3.4066     2.4925     3.5769 H       
  18 H18            2.6011     0.5834    -0.9698 H       
  19 H19            2.0868     1.9568    -1.9785 H       
  20 H20            3.6284     3.4481    -0.7343 H       
  21 H21            4.1428     2.0747     0.2745 H       
  22 H22            5.6944     2.4582    -3.5592 H       
  23 H23            4.3940     3.6442    -2.9255 H       
  24 H24            5.3069     0.2185    -0.6662 H       
  25 H25            5.3986     0.0489    -2.4357 H       
  26 H26            6.6545     0.9594    -1.5627 H       
@<TRIPOS>BOND
   1    1    2 2
   2    1    3 1
   3    1    5 1
   4    1    6 1
   5    3   10 1
   6    4    7 1
   7    4   15 1
   8    5   16 1
   9    6    7 1
  10    7    8 2
  11    7    9 1
  12    9   17 1
  13   10   11 1
  14   10   18 1
  15   10   19 1
  16   11   12 1
  17   11   20 1
  18   11   21 1
  19   12   13 2
  20   12   14 1
  21   13   22 1
  22   13   23 1
  23   14   24 1
  24   14   25 1
  25   14   26 1

#	End of record

