#	Name: ASD03240112
#	Creating user name:	WinNT
#	Creation time:	15. 06. 2019 20:34

#	Modifying user name:	WinNT
#	Modification time:	15. 06. 2019 20:34

#	Program:	/corina/corina34_cracker 3.40 0067  02.08.2006

@<TRIPOS>MOLECULE
ASD03240112
  72   78    0    0    0
SMALL
NO_CHARGES


@<TRIPOS>ATOM
   1 C1            -0.0172     1.4171     0.0098 C.ar    
   2 C2             0.0021    -0.0041     0.0020 C.ar    
   3 C3             1.1952     2.1253     0.0021 C.ar    
   4 C4             2.3739     1.3959    -0.0132 C.ar    
   5 C5             2.3163    -0.0176    -0.0203 C.ar    
   6 N6             1.1640    -0.6587    -0.0122 N.ar    
   7 C7             3.5774    -0.7942    -0.0365 C.ar    
   8 C8             3.6829     2.0908    -0.0224 C.ar    
   9 C9             3.9286     3.1083    -0.9435 C.ar    
  10 C10            5.1494     3.7517    -0.9473 C.ar    
  11 C11            6.1284     3.3889    -0.0398 C.ar    
  12 C12            5.8905     2.3798     0.8762 C.ar    
  13 C13            4.6715     1.7335     0.8937 C.ar    
  14 C14            3.6621    -2.0065     0.6480 C.ar    
  15 C15            4.8396    -2.7256     0.6287 C.ar    
  16 C16            5.9349    -2.2462    -0.0674 C.ar    
  17 C17            5.8571    -1.0442    -0.7480 C.ar    
  18 C18            4.6833    -0.3190    -0.7413 C.ar    
  19 C19            7.2180    -3.0363    -0.0840 C.3     
  20 N20           -1.1659    -0.6556     0.0097 N.ar    
  21 C21           -2.3021     0.0122     0.0241 C.ar    
  22 N22           -2.3561     1.3424     0.0317 N.ar    
  23 C23           -1.2610     2.0736     0.0311 C.ar    
  24 C24           -3.5760    -0.7515     0.0317 C.2     
  25 N25            7.2075    -3.9633    -1.2235 N.3     
  26 C26            8.5274    -4.5782    -1.4139 C.3     
  27 C27            8.5192    -5.4220    -2.6906 C.3     
  28 C28            7.4430    -6.5049    -2.5741 C.3     
  29 C29            6.0857    -5.8401    -2.3280 C.3     
  30 C30            6.1644    -4.9843    -1.0618 C.3     
  31 C31            7.3893    -7.3012    -3.8523 C.2     
  32 N32            6.6916    -6.9790    -4.9670 N.pl3   
  33 C33            6.9371    -7.9815    -5.8661 C.2     
  34 N34            7.7439    -8.8359    -5.2769 N.2     
  35 N35            8.0122    -8.4255    -4.0884 N.2     
  36 C36            6.3967    -8.0843    -7.2393 C.ar    
  37 C37            6.7417    -9.1735    -8.0388 C.ar    
  38 C38            6.2275    -9.2557    -9.3213 C.ar    
  39 C39            5.3847    -8.2459    -9.7632 C.ar    
  40 C40            5.0840    -7.1937    -8.9170 C.ar    
  41 N41            5.5823    -7.1413    -7.6992 N.ar    
  42 N42           -4.7541    -0.0970     0.0464 N.am    
  43 O43           -3.5561    -1.9661     0.0246 O.2     
  44 H44            1.2090     3.2052     0.0074 H       
  45 H45            3.1652     3.3921    -1.6528 H       
  46 H46            5.3411     4.5397    -1.6605 H       
  47 H47            7.0823     3.8953    -0.0465 H       
  48 H48            6.6589     2.1004     1.5819 H       
  49 H49            4.4869     0.9458     1.6092 H       
  50 H50            2.8080    -2.3814     1.1924 H       
  51 H51            4.9065    -3.6644     1.1584 H       
  52 H52            6.7156    -0.6749    -1.2894 H       
  53 H53            4.6237     0.6190    -1.2732 H       
  54 H54            8.0633    -2.3546    -0.1780 H       
  55 H55            7.3086    -3.6017     0.8435 H       
  56 H56           -1.3166     3.1522     0.0373 H       
  57 H57            9.2829    -3.7973    -1.4995 H       
  58 H58            8.7582    -5.2146    -0.5595 H       
  59 H59            8.3020    -4.7838    -3.5472 H       
  60 H60            9.4943    -5.8907    -2.8233 H       
  61 H61            7.6808    -7.1666    -1.7412 H       
  62 H62            5.8303    -5.2085    -3.1788 H       
  63 H63            5.3222    -6.6076    -2.2016 H       
  64 H64            6.4063    -5.6187    -0.2091 H       
  65 H65            5.2038    -4.4982    -0.8916 H       
  66 H66            6.1322    -6.1979    -5.1010 H       
  67 H67            7.4010    -9.9419    -7.6628 H       
  68 H68            6.4771   -10.0872    -9.9639 H       
  69 H69            4.9675    -8.2810   -10.7588 H       
  70 H70            4.4283    -6.4063    -9.2584 H       
  71 H71           -4.7700     0.8729     0.0521 H       
  72 H72           -5.5860    -0.5957     0.0514 H       
@<TRIPOS>BOND
   1    1    2 ar
   2    1    3 ar
   3    1   23 ar
   4    2   20 ar
   5    2    6 ar
   6    3    4 ar
   7    3   44 1
   8    4    5 ar
   9    4    8 1
  10    5    6 ar
  11    5    7 1
  12    7   14 ar
  13    7   18 ar
  14    8    9 ar
  15    8   13 ar
  16    9   10 ar
  17    9   45 1
  18   10   11 ar
  19   10   46 1
  20   11   12 ar
  21   11   47 1
  22   12   13 ar
  23   12   48 1
  24   13   49 1
  25   14   15 ar
  26   14   50 1
  27   15   16 ar
  28   15   51 1
  29   16   17 ar
  30   16   19 1
  31   17   18 ar
  32   17   52 1
  33   18   53 1
  34   19   25 1
  35   19   54 1
  36   19   55 1
  37   20   21 ar
  38   21   22 ar
  39   21   24 1
  40   22   23 ar
  41   23   56 1
  42   24   42 am
  43   24   43 2
  44   25   26 1
  45   25   30 1
  46   26   27 1
  47   26   57 1
  48   26   58 1
  49   27   28 1
  50   27   59 1
  51   27   60 1
  52   28   29 1
  53   28   31 1
  54   28   61 1
  55   29   30 1
  56   29   62 1
  57   29   63 1
  58   30   64 1
  59   30   65 1
  60   31   32 1
  61   31   35 2
  62   32   33 1
  63   32   66 1
  64   33   34 2
  65   33   36 1
  66   34   35 1
  67   36   37 ar
  68   36   41 ar
  69   37   38 ar
  70   37   67 1
  71   38   39 ar
  72   38   68 1
  73   39   40 ar
  74   39   69 1
  75   40   41 ar
  76   40   70 1
  77   42   71 1
  78   42   72 1

#	End of record

