#	Name: ASD01410821
#	Creating user name:	WinNT
#	Creation time:	15. 06. 2019 19:18

#	Modifying user name:	WinNT
#	Modification time:	15. 06. 2019 19:18

#	Program:	/corina/corina34_cracker 3.40 0067  02.08.2006

@<TRIPOS>MOLECULE
ASD01410821
  65   65    0    0    0
SMALL
NO_CHARGES


@<TRIPOS>ATOM
   1 C1            -0.0189     1.5389     0.0105 C.3     
   2 C2             0.0021    -0.0041     0.0020 C.3     
   3 N3            -0.1282    -0.4504     1.4012 N.3     
   4 C4            -0.2041     0.7428     2.2709 C.3     
   5 C5            -0.7293     1.8715     1.3490 C.3     
   6 C6             1.3249    -0.5035    -0.5826 C.3     
   7 N7             1.3854    -1.9674    -0.4766 N.3     
   8 C8            -1.1647     0.5037     3.4071 C.2     
   9 O9            -1.9796    -0.3852     3.3323 O.2     
  10 O10           -1.1151     1.2784     4.5022 O.3     
  11 C11           -2.0706     0.9907     5.5569 C.3     
  12 C12            2.6447    -2.4836    -1.0294 C.3     
  13 C13            3.7176    -2.4274     0.0274 C.2     
  14 C14            2.4479    -3.9325    -1.4799 C.3     
  15 C15            1.3587    -3.9895    -2.5528 C.3     
  16 C16            3.7596    -4.4701    -2.0557 C.3     
  17 C17            2.0289    -4.7867    -0.2817 C.3     
  18 O18            4.9598    -2.8510    -0.2542 O.3     
  19 O19            3.4596    -2.0011     1.1281 O.2     
  20 Si20           1.4484     3.5100    -0.7380 Si      
  21 C21            3.2239     4.0713    -0.6783 C.3     
  22 C22            0.3734     4.7568     0.1341 C.3     
  23 C23            0.9053     3.3555    -2.5133 C.3     
  24 C24            3.6699     4.1982     0.7797 C.3     
  25 C25            4.1068     3.0474    -1.3946 C.3     
  26 C26            3.3530     5.4293    -1.3712 C.3     
  27 O27            1.3108     2.0623     0.0006 O.3     
  28 H28           -0.5884     1.9213    -0.8366 H       
  29 H29           -0.8329    -0.3830    -0.5874 H       
  30 H30           -0.9411    -1.0364     1.5196 H       
  31 H31            0.7841     0.9957     2.6551 H       
  32 H32           -0.4261     2.8508     1.7192 H       
  33 H33           -1.8124     1.8149     1.2407 H       
  34 H34            1.3919    -0.2120    -1.6307 H       
  35 H35            2.1552    -0.0645    -0.0295 H       
  36 H36            1.2606    -2.2662     0.4790 H       
  37 H37           -1.9225     1.6881     6.3814 H       
  38 H38           -3.0835     1.0972     5.1685 H       
  39 H39           -1.9232    -0.0290     5.9126 H       
  40 H40            2.9433    -1.8751    -1.8830 H       
  41 H41            1.6572    -3.3810    -3.4064 H       
  42 H42            1.2185    -5.0218    -2.8737 H       
  43 H43            0.4243    -3.6065    -2.1426 H       
  44 H44            4.5356    -4.4295    -1.2913 H       
  45 H45            3.6194    -5.5024    -2.3766 H       
  46 H46            4.0581    -3.8616    -2.9093 H       
  47 H47            1.0944    -4.4036     0.1285 H       
  48 H48            1.8887    -5.8189    -0.6026 H       
  49 H49            2.8049    -4.7460     0.4826 H       
  50 H50            5.6140    -2.7954     0.4557 H       
  51 H51            0.4653     5.7243    -0.3595 H       
  52 H52           -0.6654     4.4284     0.0992 H       
  53 H53            0.6912     4.8472     1.1728 H       
  54 H54            1.5343     2.6261    -3.0236 H       
  55 H55           -0.1335     3.0271    -2.5482 H       
  56 H56            0.9972     4.3230    -3.0069 H       
  57 H57            3.5780     3.2307     1.2733 H       
  58 H58            4.7087     4.5266     0.8146 H       
  59 H59            3.0409     4.9276     1.2899 H       
  60 H60            3.7890     2.9570    -2.4333 H       
  61 H61            5.1455     3.3758    -1.3597 H       
  62 H62            4.0148     2.0799    -0.9010 H       
  63 H63            2.7240     6.1588    -0.8609 H       
  64 H64            4.3917     5.7577    -1.3363 H       
  65 H65            3.0352     5.3389    -2.4099 H       
@<TRIPOS>BOND
   1    1    2 1
   2    1   27 1
   3    1    5 1
   4    1   28 1
   5    2    3 1
   6    2    6 1
   7    2   29 1
   8    3    4 1
   9    3   30 1
  10    4    5 1
  11    4    8 1
  12    4   31 1
  13    5   32 1
  14    5   33 1
  15    6    7 1
  16    6   34 1
  17    6   35 1
  18    7   12 1
  19    7   36 1
  20    8    9 2
  21    8   10 1
  22   10   11 1
  23   11   37 1
  24   11   38 1
  25   11   39 1
  26   12   13 1
  27   12   14 1
  28   12   40 1
  29   13   18 1
  30   13   19 2
  31   14   15 1
  32   14   16 1
  33   14   17 1
  34   15   41 1
  35   15   42 1
  36   15   43 1
  37   16   44 1
  38   16   45 1
  39   16   46 1
  40   17   47 1
  41   17   48 1
  42   17   49 1
  43   18   50 1
  44   20   21 1
  45   20   22 1
  46   20   23 1
  47   20   27 1
  48   21   24 1
  49   21   25 1
  50   21   26 1
  51   22   51 1
  52   22   52 1
  53   22   53 1
  54   23   54 1
  55   23   55 1
  56   23   56 1
  57   24   57 1
  58   24   58 1
  59   24   59 1
  60   25   60 1
  61   25   61 1
  62   25   62 1
  63   26   63 1
  64   26   64 1
  65   26   65 1

#	End of record

