#	Name: ASD01885047
#	Creating user name:	WinNT
#	Creation time:	15. 06. 2019 19:49

#	Modifying user name:	WinNT
#	Modification time:	15. 06. 2019 19:49

#	Program:	/corina/corina34_cracker 3.40 0067  02.08.2006

@<TRIPOS>MOLECULE
ASD01885047
  39   41    0    0    0
SMALL
NO_CHARGES


@<TRIPOS>ATOM
   1 C1            -0.0187     1.5258     0.0104 C.3     
   2 C2             0.0021    -0.0041     0.0020 C.3     
   3 C3            -1.4318    -0.5377     0.0025 C.3     
   4 C4             0.7420    -0.5028    -1.2458 C.3     
   5 C5             2.1303     0.1425    -1.2695 C.3     
   6 C6             2.7766     0.0026     0.0841 C.ar    
   7 C7             2.0355    -0.2944     1.2176 C.ar    
   8 O8             0.6920    -0.4810     1.1576 O.3     
   9 N9             2.6315    -0.4068     2.3963 N.ar    
  10 C10            3.9401    -0.2474     2.5460 C.ar    
  11 C11            4.7486     0.0483     1.4554 C.ar    
  12 C12            4.1584     0.1779     0.1947 C.ar    
  13 C13            4.9805     0.4940    -0.9986 C.ar    
  14 C14            5.9320    -0.4168    -1.4531 C.ar    
  15 C15            6.6947    -0.1189    -2.5635 C.ar    
  16 C16            6.5167     1.0841    -3.2279 C.ar    
  17 F17            7.2665     1.3704    -4.3146 F       
  18 C18            5.5723     1.9939    -2.7817 C.ar    
  19 C19            4.7996     1.7027    -1.6736 C.ar    
  20 F20            3.8749     2.5878    -1.2415 F       
  21 C21            4.5460    -0.3868     3.8908 C.2     
  22 N22            3.7687    -0.6740     4.9537 N.am    
  23 O23            5.7439    -0.2423     4.0354 O.2     
  24 H24            1.0039     1.9031     0.0027 H       
  25 H25           -0.5459     1.8868    -0.8726 H       
  26 H26           -0.5289     1.8773     0.9072 H       
  27 H27           -1.9537    -0.1781    -0.8843 H       
  28 H28           -1.4139    -1.6276    -0.0035 H       
  29 H29           -1.9495    -0.1878     0.8956 H       
  30 H30            0.8414    -1.5875    -1.2052 H       
  31 H31            0.1885    -0.2170    -2.1402 H       
  32 H32            2.7477    -0.3523    -2.0192 H       
  33 H33            2.0350     1.1993    -1.5186 H       
  34 H34            5.8138     0.1764     1.5795 H       
  35 H35            6.0725    -1.3548    -0.9365 H       
  36 H36            7.4325    -0.8247    -2.9155 H       
  37 H37            5.4371     2.9303    -3.3027 H       
  38 H38            2.8125    -0.7894     4.8382 H       
  39 H39            4.1654    -0.7653     5.8341 H       
@<TRIPOS>BOND
   1    1    2 1
   2    1   24 1
   3    1   25 1
   4    1   26 1
   5    2    8 1
   6    2    3 1
   7    2    4 1
   8    3   27 1
   9    3   28 1
  10    3   29 1
  11    4    5 1
  12    4   30 1
  13    4   31 1
  14    5    6 1
  15    5   32 1
  16    5   33 1
  17    6   12 ar
  18    6    7 ar
  19    7    8 1
  20    7    9 ar
  21    9   10 ar
  22   10   11 ar
  23   10   21 1
  24   11   12 ar
  25   11   34 1
  26   12   13 1
  27   13   19 ar
  28   13   14 ar
  29   14   15 ar
  30   14   35 1
  31   15   16 ar
  32   15   36 1
  33   16   17 1
  34   16   18 ar
  35   18   19 ar
  36   18   37 1
  37   19   20 1
  38   21   22 am
  39   21   23 2
  40   22   38 1
  41   22   39 1

#	End of record

