#	Name: ASD03910058
#	Creating user name:	WinNT
#	Creation time:	15. 06. 2019 20:47

#	Modifying user name:	WinNT
#	Modification time:	15. 06. 2019 20:47

#	Program:	/corina/corina34_cracker 3.40 0067  02.08.2006

@<TRIPOS>MOLECULE
ASD03910058
  76   80    0    0    0
SMALL
NO_CHARGES


@<TRIPOS>ATOM
   1 C1            -0.3628    16.4341    -5.6435 C.ar    
   2 C2             0.7226    17.2565    -5.8839 C.ar    
   3 C3             2.0049    16.8063    -5.6287 C.ar    
   4 C4             2.2054    15.5329    -5.1329 C.ar    
   5 C5             1.1175    14.7045    -4.8904 C.ar    
   6 C6            -0.1694    15.1618    -5.1420 C.ar    
   7 N7             1.3173    13.4138    -4.3882 N.am    
   8 C8             0.4176    12.8729    -3.5430 C.2     
   9 O9            -0.5142    13.5379    -3.1423 O.2     
  10 C10           -0.5578    11.0853    -2.1612 C.ar    
  11 C11           -1.7331    10.5606    -2.6661 C.ar    
  12 C12           -2.7657    10.2276    -1.8109 C.ar    
  13 C13           -2.6227    10.4203    -0.4445 C.ar    
  14 C14           -1.4424    10.9470     0.0596 C.ar    
  15 C15           -0.4127    11.2783    -0.7997 C.ar    
  16 O16           -3.6373    10.0940     0.3987 O.3     
  17 C17           -3.4436    10.3755     1.7863 C.3     
  18 C18           -2.2762     9.5828     2.3154 C.2     
  19 C19           -1.7585    16.9288    -5.9231 C.3     
  20 C20            3.1849    17.7059    -5.8921 C.3     
  21 O21           -1.5122    10.0865     3.1114 O.2     
  22 N22           -2.0811     8.3143     1.9040 N.am    
  23 C23            0.5694    11.4418    -3.0957 C.3     
  24 C24           -0.8947     7.5759     2.3437 C.3     
  25 C25           -1.1637     6.9463     3.6862 C.2     
  26 O26           -2.2365     7.0987     4.2208 O.2     
  27 O27           -0.2116     6.2162     4.2879 O.3     
  28 C28           -0.5673     6.4830     1.3242 C.3     
  29 C29           -3.1941    11.8803     1.9890 C.3     
  30 C30           -4.3287    12.3966     2.8978 C.3     
  31 C31           -4.8086    11.1362     3.6595 C.3     
  32 C32           -4.7206    10.0286     2.5791 C.3     
  33 C33           -0.1787     7.1183     0.0141 C.2     
  34 C34            1.1541     7.5963    -0.3611 C.ar    
  35 C35            1.0312     8.1056    -1.6666 C.ar    
  36 N36           -0.2829     7.9430    -2.0440 N.pl3   
  37 C37           -0.9871     7.3481    -1.0327 C.2     
  38 C38            2.3911     7.6289     0.2859 C.ar    
  39 C39            3.4772     8.1562    -0.3536 C.ar    
  40 C40            3.3610     8.6606    -1.6418 C.ar    
  41 C41            2.1505     8.6376    -2.2988 C.ar    
  42 H42            0.5685    18.2524    -6.2722 H       
  43 H43            3.2072    15.1816    -4.9345 H       
  44 H44           -1.0175    14.5201    -4.9541 H       
  45 H45            2.1032    12.9084    -4.6484 H       
  46 H46           -1.8441    10.4111    -3.7299 H       
  47 H47           -3.6837     9.8181    -2.2058 H       
  48 H48           -1.3288    11.0982     1.1229 H       
  49 H49            0.5063    11.6884    -0.4078 H       
  50 H50           -2.0318    16.6843    -6.9496 H       
  51 H51           -2.4577    16.4505    -5.2372 H       
  52 H52           -1.7955    18.0094    -5.7848 H       
  53 H53            3.4062    18.2865    -4.9966 H       
  54 H54            4.0519    17.1001    -6.1558 H       
  55 H55            2.9501    18.3816    -6.7145 H       
  56 H56           -2.7263     7.8902     1.3169 H       
  57 H57            0.5424    10.7847    -3.9649 H       
  58 H58            1.5216    11.3218    -2.5789 H       
  59 H59           -0.0505     8.2605     2.4261 H       
  60 H60           -0.4307     5.8323     5.1480 H       
  61 H61            0.2601     5.8774     1.6939 H       
  62 H62           -1.4426     5.8506     1.1759 H       
  63 H63           -2.2291    12.0372     2.4708 H       
  64 H64           -3.2208    12.3958     1.0290 H       
  65 H65           -3.9488    13.1426     3.5958 H       
  66 H66           -5.1389    12.8115     2.2981 H       
  67 H67           -4.1448    10.9136     4.4949 H       
  68 H68           -5.8356    11.2601     4.0031 H       
  69 H69           -5.5940    10.0608     1.9278 H       
  70 H70           -4.6270     9.0477     3.0452 H       
  71 H71           -0.6535     8.2072    -2.9005 H       
  72 H72           -2.0391     7.1065    -1.0685 H       
  73 H73            2.4888     7.2390     1.2883 H       
  74 H74            4.4338     8.1812     0.1472 H       
  75 H75            4.2286     9.0746    -2.1341 H       
  76 H76            2.0704     9.0321    -3.3010 H       
@<TRIPOS>BOND
   1    1    2 ar
   2    1   19 1
   3    1    6 ar
   4    2    3 ar
   5    2   42 1
   6    3    4 ar
   7    3   20 1
   8    4    5 ar
   9    4   43 1
  10    5    6 ar
  11    5    7 1
  12    6   44 1
  13    7    8 am
  14    7   45 1
  15    8    9 2
  16    8   23 1
  17   10   11 ar
  18   10   15 ar
  19   10   23 1
  20   11   12 ar
  21   11   46 1
  22   12   13 ar
  23   12   47 1
  24   13   14 ar
  25   13   16 1
  26   14   15 ar
  27   14   48 1
  28   15   49 1
  29   16   17 1
  30   17   18 1
  31   17   29 1
  32   17   32 1
  33   18   21 2
  34   18   22 am
  35   19   50 1
  36   19   51 1
  37   19   52 1
  38   20   53 1
  39   20   54 1
  40   20   55 1
  41   22   24 1
  42   22   56 1
  43   23   57 1
  44   23   58 1
  45   24   25 1
  46   24   28 1
  47   24   59 1
  48   25   26 2
  49   25   27 1
  50   27   60 1
  51   28   33 1
  52   28   61 1
  53   28   62 1
  54   29   30 1
  55   29   63 1
  56   29   64 1
  57   30   31 1
  58   30   65 1
  59   30   66 1
  60   31   32 1
  61   31   67 1
  62   31   68 1
  63   32   69 1
  64   32   70 1
  65   33   34 1
  66   33   37 2
  67   34   35 ar
  68   34   38 ar
  69   35   36 1
  70   35   41 ar
  71   36   37 1
  72   36   71 1
  73   37   72 1
  74   38   39 ar
  75   38   73 1
  76   39   40 ar
  77   39   74 1
  78   40   41 ar
  79   40   75 1
  80   41   76 1

#	End of record

