#	Name: ASD03081105
#	Creating user name:	WinNT
#	Creation time:	15. 06. 2019 20:26

#	Modifying user name:	WinNT
#	Modification time:	15. 06. 2019 20:26

#	Program:	/corina/corina34_cracker 3.40 0067  02.08.2006

@<TRIPOS>MOLECULE
ASD03081105
  33   35    0    0    0
SMALL
NO_CHARGES


@<TRIPOS>ATOM
   1 N1            -0.0168     1.3898     0.0097 N.3     
   2 C2             0.0021    -0.0041     0.0020 C.ar    
   3 C3            -0.5822    -0.7133     1.0497 C.ar    
   4 C4            -0.5643    -2.0914     1.0443 C.ar    
   5 C5             0.0404    -2.7763    -0.0135 C.ar    
   6 C6             0.6244    -2.0615    -1.0618 C.ar    
   7 C7             0.5988    -0.6841    -1.0537 C.ar    
   8 O8            -0.4563    -5.0658     0.9111 O.3     
   9 N9            -0.2688    -6.2231     0.6008 N.2     
  10 C10            0.3740    -6.2909    -0.5369 C.2     
  11 N11            0.5945    -5.0260    -0.9514 N.2     
  12 C12            0.0621    -4.2524    -0.0226 C.2     
  13 C13            1.5273    -9.7680    -2.5123 C.ar    
  14 N14            0.8821    -9.8681    -1.3670 N.ar    
  15 C15            0.4977    -8.7891    -0.7069 C.ar    
  16 C16            0.7856    -7.5311    -1.2413 C.ar    
  17 C17            1.4710    -7.4721    -2.4569 C.ar    
  18 N18            1.8187    -8.6006    -3.0511 N.ar    
  19 C19            1.3473     1.9349    -0.0004 C.3     
  20 C20           -0.8007     1.9119    -1.1177 C.3     
  21 F21           -1.1662    -0.0496     2.0713 F       
  22 H22           -1.0164    -2.6413     1.8564 H       
  23 H23            1.0925    -2.5884    -1.8801 H       
  24 H24            1.0470    -0.1316    -1.8663 H       
  25 H25            1.8305   -10.6702    -3.0227 H       
  26 H26           -0.0308    -8.8790     0.2306 H       
  27 H27            1.7135    -6.5194    -2.9042 H       
  28 H28            1.8668     1.5973    -0.8972 H       
  29 H29            1.3034     3.0240     0.0059 H       
  30 H30            1.8838     1.5877     0.8826 H       
  31 H31           -1.8257     1.5480    -1.0469 H       
  32 H32           -0.7990     3.0015    -1.0877 H       
  33 H33           -0.3590     1.5735    -2.0550 H       
@<TRIPOS>BOND
   1    1    2 1
   2    1   19 1
   3    1   20 1
   4    2    3 ar
   5    2    7 ar
   6    3    4 ar
   7    3   21 1
   8    4    5 ar
   9    4   22 1
  10    5    6 ar
  11    5   12 1
  12    6    7 ar
  13    6   23 1
  14    7   24 1
  15    8    9 1
  16    8   12 1
  17    9   10 2
  18   10   11 1
  19   10   16 1
  20   11   12 2
  21   13   14 ar
  22   13   18 ar
  23   13   25 1
  24   14   15 ar
  25   15   16 ar
  26   15   26 1
  27   16   17 ar
  28   17   18 ar
  29   17   27 1
  30   19   28 1
  31   19   29 1
  32   19   30 1
  33   20   31 1
  34   20   32 1
  35   20   33 1

#	End of record

