#	Name: ASD05513017
#	Creating user name:	WinNT
#	Creation time:	15. 06. 2019 21:01

#	Modifying user name:	WinNT
#	Modification time:	15. 06. 2019 21:01

#	Program:	/corina/corina34_cracker 3.40 0067  02.08.2006

@<TRIPOS>MOLECULE
ASD05513017
  29   31    0    0    0
SMALL
NO_CHARGES


@<TRIPOS>ATOM
   1 C1            -0.1878     1.1311    -0.9090 C.2     
   2 C2             0.0021    -0.0041     0.0020 C.2     
   3 C3             1.1417    -0.7447    -0.0623 C.2     
   4 C4             2.5216    -0.2574    -0.2597 C.ar    
   5 C5             3.3491    -1.3905    -0.2549 C.ar    
   6 N6             2.5728    -2.5301    -0.0691 N.am    
   7 C7             1.2707    -2.2217     0.0574 C.2     
   8 C8             3.0690     1.0137    -0.4306 C.ar    
   9 C9             4.4336     1.1544    -0.5960 C.ar    
  10 C10            5.2515     0.0373    -0.5915 C.ar    
  11 C11            4.7186    -1.2262    -0.4225 C.ar    
  12 O12            0.3613    -3.0088     0.2294 O.2     
  13 O13            0.5993     1.3208    -1.8162 O.2     
  14 C14           -1.3414     2.0416    -0.7270 C.ar    
  15 Cl15           2.0409     2.4125    -0.4364 Cl      
  16 C16           -1.5413     3.1296    -1.5840 C.ar    
  17 C17           -2.6305     3.9531    -1.3775 C.ar    
  18 N18           -3.4743     3.7251    -0.3904 N.ar    
  19 C19           -3.3234     2.7120     0.4396 C.ar    
  20 C20           -2.2655     1.8347     0.3033 C.ar    
  21 H21           -0.7627    -0.2514     0.7233 H       
  22 H22            2.9269    -3.4324    -0.0313 H       
  23 H23            4.8625     2.1366    -0.7291 H       
  24 H24            6.3172     0.1548    -0.7217 H       
  25 H25            5.3685    -2.0887    -0.4210 H       
  26 H26           -0.8540     3.3226    -2.3944 H       
  27 H27           -2.7932     4.7956    -2.0333 H       
  28 H28           -4.0392     2.5637     1.2345 H       
  29 H29           -2.1484     1.0067     0.9867 H       
@<TRIPOS>BOND
   1    1    2 1
   2    1   13 2
   3    1   14 1
   4    2    3 2
   5    2   21 1
   6    3    4 1
   7    3    7 1
   8    4    5 ar
   9    4    8 ar
  10    5    6 1
  11    5   11 ar
  12    6    7 am
  13    6   22 1
  14    7   12 2
  15    8    9 ar
  16    8   15 1
  17    9   10 ar
  18    9   23 1
  19   10   11 ar
  20   10   24 1
  21   11   25 1
  22   14   16 ar
  23   14   20 ar
  24   16   17 ar
  25   16   26 1
  26   17   18 ar
  27   17   27 1
  28   18   19 ar
  29   19   20 ar
  30   19   28 1
  31   20   29 1

#	End of record

