#	Name: ASD01912620
#	Creating user name:	WinNT
#	Creation time:	15. 06. 2019 20:00

#	Modifying user name:	WinNT
#	Modification time:	15. 06. 2019 20:00

#	Program:	/corina/corina34_cracker 3.40 0067  02.08.2006

@<TRIPOS>MOLECULE
ASD01912620
  64   68    0    0    0
SMALL
NO_CHARGES


@<TRIPOS>ATOM
   1 C1             0.0008     1.4166    -0.3898 C.ar    
   2 C2            -1.2143     1.9574     0.0311 C.ar    
   3 C3             1.2606     2.1626    -0.1737 C.2     
   4 N4             1.3790     3.5089     0.0077 N.pl3   
   5 C5             2.5141     1.6276    -0.1139 C.2     
   6 C6             3.4194     2.6796     0.1049 C.2     
   7 N7             2.7377     3.8037     0.1773 N.2     
   8 C8             4.8919     2.5461     0.2357 C.ar    
   9 C9             5.6787     3.6756     0.4521 C.ar    
  10 C10            5.4895     1.2903     0.1479 C.ar    
  11 C11            6.8580     1.1692     0.2702 C.ar    
  12 C12            7.6398     2.2967     0.4810 C.ar    
  13 C13            7.0467     3.5484     0.5737 C.ar    
  14 C14            0.2791     4.4765     0.0219 C.3     
  15 C15           -0.1681     4.7078     1.4423 C.2     
  16 N16           -1.1751     5.5656     1.7006 N.am    
  17 O17            0.3782     4.1221     2.3531 O.2     
  18 C18           -1.6272     5.8059     3.0794 C.3     
  19 C19           -1.6566     7.3182     3.3253 C.3     
  20 N20           -2.4668     7.9647     2.2844 N.3     
  21 C21           -1.8718     7.7793     0.9541 C.3     
  22 C22           -1.8471     6.2906     0.6115 C.3     
  23 C23           -2.6517     9.3099     2.5628 C.ar    
  24 C24           -3.3934    10.1142     1.7016 C.ar    
  25 C25           -3.5496    11.4561     2.0252 C.ar    
  26 N26           -2.9895    11.9221     3.1379 N.ar    
  27 C27           -2.2943    11.1298     3.9288 C.ar    
  28 N28           -2.1274     9.8510     3.6606 N.ar    
  29 C29           -2.3854     1.2571    -0.1733 C.ar    
  30 C30           -2.3563     0.0209    -0.7937 C.ar    
  31 C31           -1.1545    -0.5207    -1.2134 C.ar    
  32 C32            0.0241     0.1673    -1.0099 C.ar    
  33 O33            8.9878     2.1744     0.6016 O.3     
  34 C34            9.7315     3.3754     0.8172 C.3     
  35 F35            9.5278     4.2491    -0.2563 F       
  36 F36            9.3018     3.9837     2.0015 F       
  37 O37           -4.2625    12.2792     1.2179 O.3     
  38 C38           -4.3760    13.6453     1.6217 C.3     
  39 H39           -1.2382     2.9221     0.5161 H       
  40 H40            2.7655     0.5822    -0.2159 H       
  41 H41            5.2179     4.6496     0.5243 H       
  42 H42            4.8816     0.4127    -0.0154 H       
  43 H43            7.3217     0.1962     0.2022 H       
  44 H44            7.6575     4.4240     0.7373 H       
  45 H45            0.6179     5.4180    -0.4102 H       
  46 H46           -0.5546     4.0874    -0.5627 H       
  47 H47           -2.6271     5.3935     3.2140 H       
  48 H48           -0.9364     5.3346     3.7786 H       
  49 H49           -2.0935     7.5192     4.3035 H       
  50 H50           -0.6407     7.7119     3.2924 H       
  51 H51           -2.4648     8.3148     0.2126 H       
  52 H52           -0.8529     8.1666     0.9543 H       
  53 H53           -1.3043     6.1385    -0.3213 H       
  54 H54           -2.8676     5.9215     0.5090 H       
  55 H55           -3.8354     9.7055     0.8049 H       
  56 H56           -1.8522    11.5399     4.8248 H       
  57 H57           -3.3268     1.6747     0.1520 H       
  58 H58           -3.2756    -0.5237    -0.9508 H       
  59 H59           -1.1381    -1.4864    -1.6968 H       
  60 H60            0.9617    -0.2564    -1.3383 H       
  61 H61           10.7922     3.1369     0.8953 H       
  62 H62           -4.9699    14.1924     0.8895 H       
  63 H63           -4.8623    13.6971     2.5958 H       
  64 H64           -3.3823    14.0884     1.6877 H       
@<TRIPOS>BOND
   1    1    2 ar
   2    1    3 1
   3    1   32 ar
   4    2   29 ar
   5    2   39 1
   6    3    4 1
   7    3    5 2
   8    4   14 1
   9    4    7 1
  10    5    6 1
  11    5   40 1
  12    6    7 2
  13    6    8 1
  14    8    9 ar
  15    8   10 ar
  16    9   13 ar
  17    9   41 1
  18   10   11 ar
  19   10   42 1
  20   11   12 ar
  21   11   43 1
  22   12   13 ar
  23   12   33 1
  24   13   44 1
  25   14   15 1
  26   14   45 1
  27   14   46 1
  28   15   16 am
  29   15   17 2
  30   16   18 1
  31   16   22 1
  32   18   19 1
  33   18   47 1
  34   18   48 1
  35   19   20 1
  36   19   49 1
  37   19   50 1
  38   20   21 1
  39   20   23 1
  40   21   22 1
  41   21   51 1
  42   21   52 1
  43   22   53 1
  44   22   54 1
  45   23   24 ar
  46   23   28 ar
  47   24   25 ar
  48   24   55 1
  49   25   26 ar
  50   25   37 1
  51   26   27 ar
  52   27   28 ar
  53   27   56 1
  54   29   30 ar
  55   29   57 1
  56   30   31 ar
  57   30   58 1
  58   31   32 ar
  59   31   59 1
  60   32   60 1
  61   33   34 1
  62   34   35 1
  63   34   36 1
  64   34   61 1
  65   37   38 1
  66   38   62 1
  67   38   63 1
  68   38   64 1

#	End of record

