#	Name: ASD08151070
#	Creating user name:	WinNT
#	Creation time:	15. 06. 2019 21:17

#	Modifying user name:	WinNT
#	Modification time:	15. 06. 2019 21:17

#	Program:	/corina/corina34_cracker 3.40 0067  02.08.2006

@<TRIPOS>MOLECULE
ASD08151070
  33   35    0    0    0
SMALL
NO_CHARGES


@<TRIPOS>ATOM
   1 C1            -0.0187     1.5258     0.0104 C.3     
   2 C2             0.0021    -0.0041     0.0020 C.3     
   3 N3             4.1195     2.8163     2.2958 N.ar    
   4 N4             5.3244     3.2619     2.2706 N.ar    
   5 C5             5.9486     3.6058     1.1529 C.ar    
   6 C6             5.3223     3.4999    -0.0577 C.ar    
   7 C7             4.0011     3.0145    -0.0659 C.ar    
   8 C8             3.2684     2.8667    -1.2539 C.ar    
   9 C9             1.9908     2.3902    -1.2089 C.ar    
  10 C10            1.3951     2.0474    -0.0003 C.ar    
  11 C11            2.0833     2.1793     1.1929 C.ar    
  12 C12            3.4101     2.6700     1.1763 C.ar    
  13 C13            1.4375     1.8106     2.4742 C.ar    
  14 C14            1.9328     0.7460     3.2263 C.ar    
  15 C15            1.3267     0.4058     4.4211 C.ar    
  16 C16            0.2288     1.1203     4.8714 C.ar    
  17 C17           -0.2673     2.1785     4.1277 C.ar    
  18 C18            0.3358     2.5306     2.9349 C.ar    
  19 F19           -1.3390     2.8710     4.5717 F       
  20 F20            1.8057    -0.6254     5.1506 F       
  21 Cl21           3.9865     3.2885    -2.7771 Cl      
  22 O22           -0.7098     1.9991    -1.1473 O.3     
  23 H23           -0.5289     1.8773     0.9072 H       
  24 H24            0.5293    -0.3651     0.8851 H       
  25 H25           -1.0205    -0.3814     0.0098 H       
  26 H26            0.5123    -0.3556    -0.8948 H       
  27 H27            6.9629     3.9740     1.1991 H       
  28 H28            5.8224     3.7784    -0.9736 H       
  29 H29            1.4325     2.2792    -2.1267 H       
  30 H30            2.7884     0.1879     2.8756 H       
  31 H31           -0.2423     0.8513     5.8053 H       
  32 H32           -0.0487     3.3588     2.3581 H       
  33 H33           -0.3104     1.7238    -1.9838 H       
@<TRIPOS>BOND
   1    1    2 1
   2    1   10 1
   3    1   22 1
   4    1   23 1
   5    2   24 1
   6    2   25 1
   7    2   26 1
   8    3    4 ar
   9    3   12 ar
  10    4    5 ar
  11    5    6 ar
  12    5   27 1
  13    6    7 ar
  14    6   28 1
  15    7    8 ar
  16    7   12 ar
  17    8    9 ar
  18    8   21 1
  19    9   10 ar
  20    9   29 1
  21   10   11 ar
  22   11   12 ar
  23   11   13 1
  24   13   14 ar
  25   13   18 ar
  26   14   15 ar
  27   14   30 1
  28   15   16 ar
  29   15   20 1
  30   16   17 ar
  31   16   31 1
  32   17   18 ar
  33   17   19 1
  34   18   32 1
  35   22   33 1

#	End of record

