#	Name: ASD01008008
#	Creating user name:	WinNT
#	Creation time:	15. 06. 2019 18:56

#	Modifying user name:	WinNT
#	Modification time:	15. 06. 2019 18:56

#	Program:	/corina/corina34_cracker 3.40 0067  02.08.2006

@<TRIPOS>MOLECULE
ASD01008008
  49   51    0    0    0
SMALL
NO_CHARGES


@<TRIPOS>ATOM
   1 C1            -0.0165     1.3630     0.0095 C.2     
   2 C2             0.0021    -0.0041     0.0020 C.2     
   3 C3             1.3424    -0.5612    -0.0136 C.2     
   4 C4             2.2880     0.3854    -0.0176 C.2     
   5 S5             1.5676     1.9867    -0.0022 S.3     
   6 C6             3.7784     0.1049    -0.0338 C.3     
   7 C7             4.0090    -1.3532     0.3725 C.3     
   8 C8             3.0971    -2.2551    -0.4648 C.3     
   9 C9             1.6460    -2.0509    -0.0237 C.3     
  10 C10           -1.2117    -0.8260     0.0098 C.2     
  11 O11           -1.7259    -1.1620    -1.0410 O.2     
  12 N12           -1.7582    -1.2097     1.1805 N.am    
  13 N13           -1.1666     2.1349     0.0193 N.am    
  14 C14           -1.0757     3.4796     0.0262 C.2     
  15 O15            0.0170     4.0157     0.0238 O.2     
  16 C16           -2.2923     4.2960     0.0366 C.2     
  17 C17           -2.3303     5.6624     0.0442 C.2     
  18 C18           -3.6075     6.1706     0.0532 C.2     
  19 C19           -4.5830     5.2545     0.0530 C.2     
  20 S20           -3.9374     3.6753     0.0336 S.3     
  21 C21            3.4938    -3.7180    -0.2562 C.3     
  22 C22           -2.9713    -2.0311     1.1882 C.3     
  23 C23           -2.5848    -3.5115     1.1770 C.3     
  24 C24           -1.1393    -0.8053     2.4452 C.3     
  25 C25           -1.7326     0.5298     2.8994 C.3     
  26 H26            4.1708     0.2711    -1.0371 H       
  27 H27            4.2823     0.7651     0.6721 H       
  28 H28            5.0504    -1.6212     0.1941 H       
  29 H29            3.7748    -1.4785     1.4297 H       
  30 H30            3.1974    -1.9964    -1.5189 H       
  31 H31            1.5072    -2.4589     0.9775 H       
  32 H32            0.9778    -2.5552    -0.7218 H       
  33 H33           -2.0374     1.7076     0.0213 H       
  34 H34           -1.4450     6.2811     0.0436 H       
  35 H35           -3.8089     7.2316     0.0603 H       
  36 H36           -5.6383     5.4842     0.0594 H       
  37 H37            3.3904    -3.9757     0.7979 H       
  38 H38            2.8444    -4.3591    -0.8523 H       
  39 H39            4.5291    -3.8613    -0.5654 H       
  40 H40           -3.5515    -1.8138     2.0850 H       
  41 H41           -3.5689    -1.8049     0.3052 H       
  42 H42           -1.9872    -3.7377     2.0601 H       
  43 H43           -3.4873    -4.1226     1.1828 H       
  44 H44           -2.0046    -3.7287     0.2802 H       
  45 H45           -1.3316    -1.5649     3.2030 H       
  46 H46           -0.0639    -0.6961     2.3049 H       
  47 H47           -1.5403     1.2894     2.1417 H       
  48 H48           -2.8080     0.4206     3.0397 H       
  49 H49           -1.2721     0.8307     3.8405 H       
@<TRIPOS>BOND
   1    1    2 2
   2    1    5 1
   3    1   13 1
   4    2    3 1
   5    2   10 1
   6    3    4 2
   7    3    9 1
   8    4    5 1
   9    4    6 1
  10    6    7 1
  11    6   26 1
  12    6   27 1
  13    7    8 1
  14    7   28 1
  15    7   29 1
  16    8    9 1
  17    8   21 1
  18    8   30 1
  19    9   31 1
  20    9   32 1
  21   10   11 2
  22   10   12 am
  23   12   22 1
  24   12   24 1
  25   13   14 am
  26   13   33 1
  27   14   15 2
  28   14   16 1
  29   16   17 2
  30   16   20 1
  31   17   18 1
  32   17   34 1
  33   18   19 2
  34   18   35 1
  35   19   20 1
  36   19   36 1
  37   21   37 1
  38   21   38 1
  39   21   39 1
  40   22   23 1
  41   22   40 1
  42   22   41 1
  43   23   42 1
  44   23   43 1
  45   23   44 1
  46   24   25 1
  47   24   45 1
  48   24   46 1
  49   25   47 1
  50   25   48 1
  51   25   49 1

#	End of record

