#	Name: ASD00241021
#	Creating user name:	WinNT
#	Creation time:	15. 06. 2019 18:33

#	Modifying user name:	WinNT
#	Modification time:	15. 06. 2019 18:33

#	Program:	/corina/corina34_cracker 3.40 0067  02.08.2006

@<TRIPOS>MOLECULE
ASD00241021
  47   49    0    0    0
SMALL
NO_CHARGES


@<TRIPOS>ATOM
   1 C1            -0.2321     0.9432    -0.5091 C.3     
   2 C2            -0.1540    -0.5784    -0.2540 C.3     
   3 O3             1.1607    -0.7920     0.3045 O.3     
   4 C4             2.0402     0.0671    -0.4534 C.3     
   5 C5             1.2446     1.3776    -0.6433 C.3     
   6 O6             1.4887     1.9283    -1.9391 O.3     
   7 N7            -1.1865    -0.9891     0.7007 N.pl3   
   8 C8            -2.3478    -1.6583     0.4034 C.ar    
   9 C9            -3.0181    -1.8338     1.6257 C.ar    
  10 N10           -2.2466    -1.2735     2.5889 N.2     
  11 C11           -1.1676    -0.7820     2.0487 C.2     
  12 N12           -2.9024    -2.1252    -0.7102 N.ar    
  13 C13           -4.0637    -2.7442    -0.6729 C.ar    
  14 N14           -4.7307    -2.9323     0.4510 N.ar    
  15 C15           -4.2544    -2.5008     1.6144 C.ar    
  16 Cl16           0.1008     0.0271     2.9148 Cl      
  17 N17           -4.9608    -2.7028     2.7876 N.pl3   
  18 C18            3.3278     0.3342     0.3287 C.3     
  19 N19            4.0892    -0.9151     0.4597 N.3     
  20 C20            4.5658    -1.3810    -0.8494 C.3     
  21 C21            5.2064    -0.7546     1.4000 C.3     
  22 C22            5.8105    -2.1029     1.6973 C.2     
  23 C23            7.1010    -2.2857     1.5664 C.2     
  24 C24            7.9732    -1.1656     1.0607 C.3     
  25 N25            9.0920    -0.9585     1.9900 N.3     
  26 H26           -0.7759     1.1484    -1.4311 H       
  27 H27           -0.7036     1.4481     0.3340 H       
  28 H28           -0.2621    -1.1262    -1.1901 H       
  29 H29            2.2685    -0.3816    -1.4201 H       
  30 H30            1.5031     2.0973     0.1335 H       
  31 H31            1.0137     2.7526    -2.1120 H       
  32 H32           -4.4868    -3.1116    -1.5962 H       
  33 H33           -5.8139    -3.1640     2.7668 H       
  34 H34           -4.6027    -2.3832     3.6306 H       
  35 H35            3.9290     1.0722    -0.2024 H       
  36 H36            3.0789     0.7137     1.3197 H       
  37 H37            5.2118    -0.6227    -1.2918 H       
  38 H38            5.1262    -2.3073    -0.7235 H       
  39 H39            3.7128    -1.5586    -1.5044 H       
  40 H40            5.9634    -0.1069     0.9576 H       
  41 H41            4.8416    -0.3080     2.3249 H       
  42 H42            5.1794    -2.9184     2.0183 H       
  43 H43            7.5399    -3.2391     1.8209 H       
  44 H44            8.3621    -1.4242     0.0758 H       
  45 H45            7.3852    -0.2506     0.9904 H       
  46 H46            9.6149    -1.8112     2.1222 H       
  47 H47            9.6920    -0.2118     1.6728 H       
@<TRIPOS>BOND
   1    1    2 1
   2    1    5 1
   3    1   26 1
   4    1   27 1
   5    2    3 1
   6    2    7 1
   7    2   28 1
   8    3    4 1
   9    4    5 1
  10    4   18 1
  11    4   29 1
  12    5    6 1
  13    5   30 1
  14    6   31 1
  15    7    8 1
  16    7   11 1
  17    8    9 ar
  18    8   12 ar
  19    9   10 1
  20    9   15 ar
  21   10   11 2
  22   11   16 1
  23   12   13 ar
  24   13   14 ar
  25   13   32 1
  26   14   15 ar
  27   15   17 1
  28   17   33 1
  29   17   34 1
  30   18   19 1
  31   18   35 1
  32   18   36 1
  33   19   20 1
  34   19   21 1
  35   20   37 1
  36   20   38 1
  37   20   39 1
  38   21   22 1
  39   21   40 1
  40   21   41 1
  41   22   23 2
  42   22   42 1
  43   23   24 1
  44   23   43 1
  45   24   25 1
  46   24   44 1
  47   24   45 1
  48   25   46 1
  49   25   47 1

#	End of record

