#	Name: ASD01914661
#	Creating user name:	WinNT
#	Creation time:	15. 06. 2019 20:04

#	Modifying user name:	WinNT
#	Modification time:	15. 06. 2019 20:04

#	Program:	/corina/corina34_cracker 3.40 0067  02.08.2006

@<TRIPOS>MOLECULE
ASD01914661
  36   38    0    0    0
SMALL
NO_CHARGES


@<TRIPOS>ATOM
   1 N1            -0.0158     1.3157     0.0093 N.ar    
   2 C2             7.1867    -1.2915    -0.0730 C.2     
   3 N3             8.1073    -2.3013    -0.0861 N.pl3   
   4 C4             5.9569    -1.8823    -0.0641 C.2     
   5 N5             6.1460    -3.2257    -0.0718 N.2     
   6 C6             7.4243    -3.4770    -0.0849 C.2     
   7 C7             4.6945    -1.2064    -0.0489 C.1     
   8 C8             3.6596    -0.6523    -0.0364 C.1     
   9 C9             2.3972     0.0236    -0.0212 C.ar    
  10 C10            1.1940    -0.6962    -0.0131 C.ar    
  11 C11            0.0021    -0.0041     0.0020 C.ar    
  12 C12            1.0927     2.0325     0.0025 C.ar    
  13 C13            2.3292     1.4245    -0.0130 C.ar    
  14 C14            9.5019    -2.1522    -0.0990 C.ar    
  15 C15            8.0459    -4.8497    -0.0972 C.3     
  16 C16            1.0047     3.5369     0.0115 C.3     
  17 C17           10.2381    -2.5787    -1.1984 C.ar    
  18 C18           11.6133    -2.4293    -1.2072 C.ar    
  19 C19           12.2542    -1.8568    -0.1242 C.ar    
  20 C20           11.5236    -1.4320     0.9703 C.ar    
  21 C21           10.1495    -1.5733     0.9835 C.ar    
  22 F22            9.6115    -3.1385    -2.2563 F       
  23 H23            7.3927    -0.2314    -0.0663 H       
  24 H24            1.2009    -1.7762    -0.0186 H       
  25 H25           -0.9302    -0.5492     0.0084 H       
  26 H26            3.2319     2.0174    -0.0184 H       
  27 H27            8.1858    -5.1760    -1.1278 H       
  28 H28            9.0115    -4.8159     0.4074 H       
  29 H29            7.3901    -5.5502     0.4198 H       
  30 H30            0.9733     3.9051    -1.0140 H       
  31 H31            0.1002     3.8448     0.5360 H       
  32 H32            1.8770     3.9489     0.5189 H       
  33 H33           12.1867    -2.7604    -2.0604 H       
  34 H34           13.3280    -1.7414    -0.1329 H       
  35 H35           12.0277    -0.9852     1.8145 H       
  36 H36            9.5803    -1.2407     1.8389 H       
@<TRIPOS>BOND
   1    1   11 ar
   2    1   12 ar
   3    2    3 1
   4    2    4 2
   5    2   23 1
   6    3   14 1
   7    3    6 1
   8    4    5 1
   9    4    7 1
  10    5    6 2
  11    6   15 1
  12    7    8 3
  13    8    9 1
  14    9   10 ar
  15    9   13 ar
  16   10   11 ar
  17   10   24 1
  18   11   25 1
  19   12   13 ar
  20   12   16 1
  21   13   26 1
  22   14   17 ar
  23   14   21 ar
  24   15   27 1
  25   15   28 1
  26   15   29 1
  27   16   30 1
  28   16   31 1
  29   16   32 1
  30   17   18 ar
  31   17   22 1
  32   18   19 ar
  33   18   33 1
  34   19   20 ar
  35   19   34 1
  36   20   21 ar
  37   20   35 1
  38   21   36 1

#	End of record

