#	Name: ASD01230347
#	Creating user name:	WinNT
#	Creation time:	15. 06. 2019 19:14

#	Modifying user name:	WinNT
#	Modification time:	15. 06. 2019 19:14

#	Program:	/corina/corina34_cracker 3.40 0067  02.08.2006

@<TRIPOS>MOLECULE
ASD01230347
  29   30    0    0    0
SMALL
NO_CHARGES


@<TRIPOS>ATOM
   1 C1             0.1877     1.4286    -0.7080 C.ar    
   2 C2             0.2139     0.0599    -0.8588 C.ar    
   3 C3             1.3908    -0.6424    -0.6658 C.ar    
   4 C4             2.5412     0.0378    -0.3067 C.ar    
   5 C5             2.5128     1.4071    -0.1421 C.ar    
   6 C6             1.3476     2.1272    -0.3584 C.ar    
   7 N7             1.2686     3.5114    -0.2851 N.3     
   8 S8             3.9774     2.2508     0.3822 S.o2    
   9 N9             3.5678     3.8676     0.2802 N.am    
  10 C10            2.1702     4.1761     0.6468 C.3     
  11 Cl11           1.4236    -2.3657    -0.8724 Cl      
  12 O12            4.1536     1.9552     1.7609 O.2     
  13 O13            4.9686     2.0123    -0.6077 O.2     
  14 C14            4.5194     4.8986    -0.1412 C.3     
  15 C15            1.9469     5.6883     0.5826 C.3     
  16 C16           -0.1184     3.9493    -0.0787 C.3     
  17 H17           -0.7350     1.9673    -0.8654 H       
  18 H18           -0.6887    -0.4682    -1.1288 H       
  19 H19            3.4627    -0.5045    -0.1546 H       
  20 H20            1.9737     3.8214     1.6586 H       
  21 H21            5.4821     4.4367    -0.3605 H       
  22 H22            4.1434     5.3967    -1.0348 H       
  23 H23            4.6409     5.6295     0.6583 H       
  24 H24            0.9607     5.9272     0.9807 H       
  25 H25            2.7099     6.1937     1.1747 H       
  26 H26            2.0110     6.0215    -0.4532 H       
  27 H27           -0.5272     3.4573     0.8038 H       
  28 H28           -0.1409     5.0296     0.0643 H       
  29 H29           -0.7163     3.6858    -0.9512 H       
@<TRIPOS>BOND
   1    1    2 ar
   2    1    6 ar
   3    1   17 1
   4    2    3 ar
   5    2   18 1
   6    3    4 ar
   7    3   11 1
   8    4    5 ar
   9    4   19 1
  10    5    6 ar
  11    5    8 1
  12    6    7 1
  13    7   10 1
  14    7   16 1
  15    8    9 am
  16    8   12 2
  17    8   13 2
  18    9   10 1
  19    9   14 1
  20   10   15 1
  21   10   20 1
  22   14   21 1
  23   14   22 1
  24   14   23 1
  25   15   24 1
  26   15   25 1
  27   15   26 1
  28   16   27 1
  29   16   28 1
  30   16   29 1

#	End of record

