#	Name: ASD01881290
#	Creating user name:	WinNT
#	Creation time:	15. 06. 2019 19:42

#	Modifying user name:	WinNT
#	Modification time:	15. 06. 2019 19:42

#	Program:	/corina/corina34_cracker 3.40 0067  02.08.2006

@<TRIPOS>MOLECULE
ASD01881290
  47   49    0    0    0
SMALL
NO_CHARGES


@<TRIPOS>ATOM
   1 C1            -0.0162     1.3398     0.0094 C.2     
   2 N2             0.0021    -0.0041     0.0020 N.am    
   3 C3             1.3975    -0.4574    -0.0137 C.3     
   4 C4             2.2453     0.7903    -0.0151 C.ar    
   5 C5             3.6007     1.0050    -0.0273 C.ar    
   6 C6             4.0976     2.3066    -0.0255 C.ar    
   7 C7             3.2198     3.3874    -0.0113 C.ar    
   8 C8             1.8605     3.1761     0.0009 C.ar    
   9 C9             1.3571     1.8711    -0.0009 C.ar    
  10 O10           -1.0238     2.0204     0.0181 O.2     
  11 C11            0.9148     4.3493     0.0168 C.3     
  12 C12           -1.1772    -0.8732     0.0086 C.3     
  13 C13           -1.6012    -1.1686    -1.4315 C.3     
  14 O14           -0.5784    -1.9240    -2.0837 O.3     
  15 C15           -0.8764    -2.2545    -3.4417 C.3     
  16 N16            5.4706     2.5264    -0.0373 N.pl3   
  17 C17            5.9934     3.8949    -0.0354 C.3     
  18 C18            8.1892     3.8456    -1.2499 C.ar    
  19 C19            7.4998     3.8572    -0.0498 C.ar    
  20 C20            8.2126     3.8341     1.1382 C.ar    
  21 C21            9.5979     3.8001     1.0768 C.ar    
  22 C22           10.2177     3.7904    -0.1578 C.ar    
  23 N23            9.5081     3.8135    -1.2695 N.ar    
  24 C24            7.4995     3.8461     2.4658 C.3     
  25 F25            8.4403     3.8180     3.5008 F       
  26 F26            6.7267     5.0077     2.5695 F       
  27 F27            6.6694     2.7239     2.5595 F       
  28 Cl28           7.3086     3.8670    -2.7458 Cl      
  29 H29            1.6082    -1.0527     0.8747 H       
  30 H30            1.5912    -1.0431    -0.9124 H       
  31 H31            4.2810     0.1663    -0.0380 H       
  32 H32            3.6076     4.3954    -0.0095 H       
  33 H33            0.6767     4.6379    -1.0070 H       
  34 H34           -0.0010     4.0708     0.5381 H       
  35 H35            1.3848     5.1879     0.5306 H       
  36 H36           -0.9369    -1.8078     0.5155 H       
  37 H37           -1.9929    -0.3750     0.5326 H       
  38 H38           -2.5288    -1.7410    -1.4271 H       
  39 H39           -1.7557    -0.2304    -1.9644 H       
  40 H40           -1.0159    -1.3388    -4.0163 H       
  41 H41           -0.0517    -2.8274    -3.8656 H       
  42 H42           -1.7890    -2.8494    -3.4789 H       
  43 H43            6.0822     1.7735    -0.0469 H       
  44 H44            5.6346     4.4221    -0.9194 H       
  45 H45            5.6514     4.4132     0.8604 H       
  46 H46           10.1849     3.7817     1.9832 H       
  47 H47           11.2959     3.7640    -0.2134 H       
@<TRIPOS>BOND
   1    1    2 am
   2    1    9 1
   3    1   10 2
   4    2    3 1
   5    2   12 1
   6    3    4 1
   7    3   29 1
   8    3   30 1
   9    4    5 ar
  10    4    9 ar
  11    5    6 ar
  12    5   31 1
  13    6    7 ar
  14    6   16 1
  15    7    8 ar
  16    7   32 1
  17    8    9 ar
  18    8   11 1
  19   11   33 1
  20   11   34 1
  21   11   35 1
  22   12   13 1
  23   12   36 1
  24   12   37 1
  25   13   14 1
  26   13   38 1
  27   13   39 1
  28   14   15 1
  29   15   40 1
  30   15   41 1
  31   15   42 1
  32   16   17 1
  33   16   43 1
  34   17   19 1
  35   17   44 1
  36   17   45 1
  37   18   19 ar
  38   18   23 ar
  39   18   28 1
  40   19   20 ar
  41   20   21 ar
  42   20   24 1
  43   21   22 ar
  44   21   46 1
  45   22   23 ar
  46   22   47 1
  47   24   25 1
  48   24   26 1
  49   24   27 1

#	End of record

