#	Name: ASD03731679
#	Creating user name:	WinNT
#	Creation time:	15. 06. 2019 20:46

#	Modifying user name:	WinNT
#	Modification time:	15. 06. 2019 20:46

#	Program:	/corina/corina34_cracker 3.40 0067  02.08.2006

@<TRIPOS>MOLECULE
ASD03731679
  39   40    0    0    0
SMALL
NO_CHARGES


@<TRIPOS>ATOM
   1 C1            -0.4029     1.1041    -1.9610 C.2     
   2 C2            -0.2816    -0.2739    -1.4505 C.ar    
   3 C3             0.9020    -0.9944    -1.6488 C.ar    
   4 C4             1.0107    -2.2842    -1.1691 C.ar    
   5 C5            -0.0517    -2.8664    -0.4910 C.ar    
   6 C6            -1.2311    -2.1532    -0.2921 C.ar    
   7 C7            -1.3465    -0.8629    -0.7619 C.ar    
   8 O8             0.5261     1.6163    -2.5553 O.2     
   9 N9            -1.5455     1.7939    -1.7738 N.am    
  10 S10           -1.6818     3.3415    -2.3471 S.o2    
  11 O11           -2.9839     3.7490    -1.9500 O.2     
  12 O12           -0.5249     4.0017    -1.8521 O.2     
  13 C13           -1.5919     3.1658    -4.1503 C.3     
  14 F14           -2.2620    -2.7252     0.3677 F       
  15 F15            1.9361    -0.4286    -2.3090 F       
  16 O16            0.0593    -4.1350    -0.0209 O.3     
  17 C17            1.2617    -4.7566    -0.1402 C.ar    
  18 C18            2.2132    -4.6278     0.8615 C.ar    
  19 C19            3.4346    -5.2611     0.7379 C.ar    
  20 C20            3.7096    -6.0225    -0.3831 C.ar    
  21 C21            2.7632    -6.1525    -1.3828 C.ar    
  22 C22            1.5381    -5.5259    -1.2615 C.ar    
  23 C23            3.0666    -6.9827    -2.6033 C.3     
  24 C24            4.4684    -5.1217     1.8254 C.3     
  25 H25            1.9233    -2.8412    -1.3217 H       
  26 H26           -2.2598    -0.3090    -0.6025 H       
  27 H27           -2.2881     1.3839    -1.3032 H       
  28 H28           -2.4084     2.5310    -4.4946 H       
  29 H29           -1.6744     4.1480    -4.6156 H       
  30 H30           -0.6391     2.7128    -4.4242 H       
  31 H31            1.9991    -4.0326     1.7369 H       
  32 H32            4.6654    -6.5163    -0.4781 H       
  33 H33            0.7977    -5.6311    -2.0407 H       
  34 H34            2.7575    -8.0132    -2.4278 H       
  35 H35            2.5243    -6.5816    -3.4596 H       
  36 H36            4.1373    -6.9540    -2.8054 H       
  37 H37            4.3349    -5.9179     2.5578 H       
  38 H38            5.4653    -5.1917     1.3902 H       
  39 H39            4.3527    -4.1547     2.3149 H       
@<TRIPOS>BOND
   1    1    2 1
   2    1    8 2
   3    1    9 am
   4    2    3 ar
   5    2    7 ar
   6    3    4 ar
   7    3   15 1
   8    4    5 ar
   9    4   25 1
  10    5    6 ar
  11    5   16 1
  12    6    7 ar
  13    6   14 1
  14    7   26 1
  15    9   10 am
  16    9   27 1
  17   10   11 2
  18   10   12 2
  19   10   13 1
  20   13   28 1
  21   13   29 1
  22   13   30 1
  23   16   17 1
  24   17   18 ar
  25   17   22 ar
  26   18   19 ar
  27   18   31 1
  28   19   20 ar
  29   19   24 1
  30   20   21 ar
  31   20   32 1
  32   21   22 ar
  33   21   23 1
  34   22   33 1
  35   23   34 1
  36   23   35 1
  37   23   36 1
  38   24   37 1
  39   24   38 1
  40   24   39 1

#	End of record

