#	Name: ASD03091275
#	Creating user name:	WinNT
#	Creation time:	15. 06. 2019 20:30

#	Modifying user name:	WinNT
#	Modification time:	15. 06. 2019 20:30

#	Program:	/corina/corina34_cracker 3.40 0067  02.08.2006

@<TRIPOS>MOLECULE
ASD03091275
  51   55    0    0    0
SMALL
NO_CHARGES


@<TRIPOS>ATOM
   1 N1             0.9858     1.0069    -0.7087 N.2     
   2 C2             1.4299    -0.1072    -1.2296 C.2     
   3 N3             2.7497    -0.3206    -1.5234 N.am    
   4 C4             3.6699     0.6413    -1.2784 C.2     
   5 C5             3.1930     1.9032    -0.6931 C.ar    
   6 C6             4.0618     2.9531    -0.4050 C.ar    
   7 C7             3.5581     4.1196     0.1454 C.ar    
   8 C8             2.1940     4.2441     0.4097 C.ar    
   9 C9             1.3304     3.2238     0.1327 C.ar    
  10 C10            1.8115     2.0342    -0.4229 C.ar    
  11 O11            4.8477     0.4682    -1.5327 O.2     
  12 C12            0.4614    -1.1869    -1.5141 C.ar    
  13 C13           -0.5578    -1.4723    -0.6038 C.ar    
  14 C14           -1.3533    -3.2095    -2.0474 C.ar    
  15 C15            0.5584    -1.9218    -2.6967 C.ar    
  16 C16           -1.4586    -2.4809    -0.8756 C.ar    
  17 C17           -0.3492    -2.9281    -2.9563 C.ar    
  18 C18           -2.5595    -2.7904     0.1058 C.3     
  19 C19            5.7967     4.6779     0.7538 C.3     
  20 N20            4.4216     5.1786     0.4385 N.3     
  21 C21            3.9687     5.9161     1.6425 C.3     
  22 C22            5.1707     5.8503     2.6348 C.3     
  23 N23            5.1988     4.4215     3.0803 N.3     
  24 C24            5.5693     3.6271     1.8843 C.3     
  25 C25            6.3606     5.8683     1.6095 C.3     
  26 C26            3.8899     4.0071     3.6027 C.3     
  27 C27            3.1688    -1.5978    -2.1058 C.3     
  28 H28            5.1182     2.8581    -0.6087 H       
  29 H29            1.8160     5.1600     0.8395 H       
  30 H30            0.2769     3.3349     0.3432 H       
  31 H31           -0.6406    -0.9049     0.3114 H       
  32 H32           -2.0610    -3.9985    -2.2553 H       
  33 H33            1.3419    -1.7031    -3.4071 H       
  34 H34           -0.2725    -3.5005    -3.8689 H       
  35 H35           -3.4376    -2.1900    -0.1319 H       
  36 H36           -2.8149    -3.8482     0.0436 H       
  37 H37           -2.2222    -2.5569     1.1157 H       
  38 H38            6.3946     4.3492    -0.0963 H       
  39 H39            3.7431     6.9520     1.3893 H       
  40 H40            3.0933     5.4322     2.0757 H       
  41 H41            5.1840     6.6002     3.4257 H       
  42 H42            4.7593     2.9497     1.6140 H       
  43 H43            6.4858     3.0673     2.0707 H       
  44 H44            7.3148     5.6267     2.0777 H       
  45 H45            6.4068     6.7993     1.0446 H       
  46 H46            3.1771     3.9350     2.7812 H       
  47 H47            3.9835     3.0359     4.0887 H       
  48 H48            3.5378     4.7428     4.3258 H       
  49 H49            3.0756    -1.5504    -3.1908 H       
  50 H50            4.2069    -1.7958    -1.8387 H       
  51 H51            2.5358    -2.3976    -1.7214 H       
@<TRIPOS>BOND
   1    1    2 2
   2    1   10 1
   3    2    3 1
   4    2   12 1
   5    3    4 am
   6    3   27 1
   7    4    5 1
   8    4   11 2
   9    5    6 ar
  10    5   10 ar
  11    6    7 ar
  12    6   28 1
  13    7    8 ar
  14    7   20 1
  15    8    9 ar
  16    8   29 1
  17    9   10 ar
  18    9   30 1
  19   12   13 ar
  20   12   15 ar
  21   13   16 ar
  22   13   31 1
  23   14   16 ar
  24   14   17 ar
  25   14   32 1
  26   15   17 ar
  27   15   33 1
  28   16   18 1
  29   17   34 1
  30   18   35 1
  31   18   36 1
  32   18   37 1
  33   19   20 1
  34   19   24 1
  35   19   25 1
  36   19   38 1
  37   20   21 1
  38   21   22 1
  39   21   39 1
  40   21   40 1
  41   22   23 1
  42   22   25 1
  43   22   41 1
  44   23   24 1
  45   23   26 1
  46   24   42 1
  47   24   43 1
  48   25   44 1
  49   25   45 1
  50   26   46 1
  51   26   47 1
  52   26   48 1
  53   27   49 1
  54   27   50 1
  55   27   51 1

#	End of record

