#	Name: ASD05720126
#	Creating user name:	WinNT
#	Creation time:	15. 06. 2019 21:01

#	Modifying user name:	WinNT
#	Modification time:	15. 06. 2019 21:01

#	Program:	/corina/corina34_cracker 3.40 0067  02.08.2006

@<TRIPOS>MOLECULE
ASD05720126
  78   81    0    0    0
SMALL
NO_CHARGES


@<TRIPOS>ATOM
   1 C1             0.2564     1.3228    -1.5226 C.ar    
   2 C2             0.2253    -0.0265    -1.2095 C.ar    
   3 C3             1.3920    -0.7250    -0.9883 C.ar    
   4 C4             2.6382    -0.0863    -1.0751 C.ar    
   5 C5             2.6474     1.2717    -1.3918 C.ar    
   6 C6             1.4739     1.9704    -1.6134 C.ar    
   7 N7             3.8908    -0.6445    -0.8824 N.pl3   
   8 C8             4.9786     0.1652    -1.0174 C.2     
   9 S9             4.3449     1.7684    -1.4234 S.3     
  10 N10            6.2334    -0.1723    -0.8755 N.2     
  11 C11            7.2866     0.8297    -1.0573 C.3     
  12 C12            8.0924     0.9631     0.2365 C.3     
  13 C13            8.7261    -0.3855     0.5839 C.3     
  14 C14            9.6538    -0.8210    -0.5522 C.3     
  15 C15            8.8479    -0.9543    -1.8459 C.3     
  16 C16            8.2142     0.3942    -2.1934 C.3     
  17 O17            7.2260     1.3698     1.2975 O.3     
  18 C18           10.2874    -2.1695    -0.2047 C.3     
  19 C19           11.2200    -2.0005     0.9964 C.3     
  20 C20           11.7633    -3.3676     1.4167 C.3     
  21 C21           10.5990    -4.2833     1.7999 C.3     
  22 C22           11.1308    -5.6861     2.1000 C.3     
  23 C23           12.3843    -1.0848     0.6132 C.3     
  24 O24           12.6483    -3.2072     2.5565 O.3     
  25 C25           13.6508    -4.0913     2.6788 C.2     
  26 C26           14.6098    -3.9878     3.8368 C.3     
  27 N27           15.2850    -5.2775     4.0297 N.3     
  28 C28           16.1998    -5.2314     5.1774 C.3     
  29 C29           17.2877    -4.1856     4.9227 C.3     
  30 C30           16.6339    -2.8171     4.7120 C.3     
  31 C31           15.6501    -2.9049     3.5420 C.3     
  32 O32           13.7844    -4.9702     1.8606 O.2     
  33 H33           10.4373    -0.0754    -0.6874 H       
  34 C34            7.8693     2.1517     2.3059 C.3     
  35 C35            4.0419    -2.0617    -0.5433 C.3     
  36 C36            4.1640    -2.8832    -1.8282 C.3     
  37 F37           -0.9624    -0.6642    -1.1196 F       
  38 H38           -0.6623     1.8627    -1.6986 H       
  39 H39            1.3468    -1.7763    -0.7450 H       
  40 H40            1.5094     3.0219    -1.8572 H       
  41 H41            6.8352     1.7904    -1.3048 H       
  42 H42            8.8760     1.7086     0.1012 H       
  43 H43            9.3002    -0.2905     1.5056 H       
  44 H44            7.9425    -1.1310     0.7192 H       
  45 H45            9.5088    -1.2646    -2.6552 H       
  46 H46            8.0643    -1.6999    -1.7106 H       
  47 H47            7.6401     0.2992    -3.1150 H       
  48 H48            8.9978     1.1398    -2.3286 H       
  49 H49            9.5041    -2.8863     0.0416 H       
  50 H50           10.8578    -2.5339    -1.0591 H       
  51 H51           10.6678    -1.5584     1.8257 H       
  52 H52           12.3154    -3.8097     0.5873 H       
  53 H53           10.1008    -3.8866     2.6845 H       
  54 H54            9.8888    -4.3328     0.9745 H       
  55 H55           11.8410    -5.6366     2.9254 H       
  56 H56           10.3013    -6.3384     2.3731 H       
  57 H57           11.6290    -6.0828     1.2154 H       
  58 H58           12.8720    -1.4723    -0.2813 H       
  59 H59           12.0075    -0.0813     0.4157 H       
  60 H60           13.1028    -1.0486     1.4320 H       
  61 H61           14.0602    -3.7267     4.7412 H       
  62 H62           14.6148    -6.0249     4.1313 H       
  63 H63           15.6427    -4.9646     6.0755 H       
  64 H64           16.6612    -6.2095     5.3137 H       
  65 H65           17.9575    -4.1406     5.7814 H       
  66 H66           17.8542    -4.4591     4.0325 H       
  67 H67           16.0995    -2.5257     5.6162 H       
  68 H68           17.4021    -2.0771     4.4873 H       
  69 H69           16.1908    -3.1583     2.6301 H       
  70 H70           15.1499    -1.9448     3.4143 H       
  71 H71            8.6771     1.5731     2.7541 H       
  72 H72            8.2768     3.0581     1.8580 H       
  73 H73            7.1449     2.4203     3.0747 H       
  74 H74            4.9387    -2.1970     0.0611 H       
  75 H75            3.1703    -2.3954     0.0199 H       
  76 H76            3.2671    -2.7479    -2.4327 H       
  77 H77            5.0355    -2.5495    -2.3914 H       
  78 H78            4.2764    -3.9377    -1.5760 H       
@<TRIPOS>BOND
   1    1    2 ar
   2    1    6 ar
   3    1   38 1
   4    2    3 ar
   5    2   37 1
   6    3    4 ar
   7    3   39 1
   8    4    5 ar
   9    4    7 1
  10    5    6 ar
  11    5    9 1
  12    6   40 1
  13    7   35 1
  14    7    8 1
  15    8    9 1
  16    8   10 2
  17   10   11 1
  18   11   12 1
  19   11   16 1
  20   11   41 1
  21   12   13 1
  22   12   17 1
  23   12   42 1
  24   13   14 1
  25   13   43 1
  26   13   44 1
  27   14   15 1
  28   14   18 1
  29   14   33 1
  30   15   16 1
  31   15   45 1
  32   15   46 1
  33   16   47 1
  34   16   48 1
  35   17   34 1
  36   18   19 1
  37   18   49 1
  38   18   50 1
  39   19   23 1
  40   19   20 1
  41   19   51 1
  42   20   21 1
  43   20   24 1
  44   20   52 1
  45   21   22 1
  46   21   53 1
  47   21   54 1
  48   22   55 1
  49   22   56 1
  50   22   57 1
  51   23   58 1
  52   23   59 1
  53   23   60 1
  54   24   25 1
  55   25   26 1
  56   25   32 2
  57   26   27 1
  58   26   31 1
  59   26   61 1
  60   27   28 1
  61   27   62 1
  62   28   29 1
  63   28   63 1
  64   28   64 1
  65   29   30 1
  66   29   65 1
  67   29   66 1
  68   30   31 1
  69   30   67 1
  70   30   68 1
  71   31   69 1
  72   31   70 1
  73   34   71 1
  74   34   72 1
  75   34   73 1
  76   35   36 1
  77   35   74 1
  78   35   75 1
  79   36   76 1
  80   36   77 1
  81   36   78 1

#	End of record

