#	Name: ASD01882736
#	Creating user name:	WinNT
#	Creation time:	15. 06. 2019 19:45

#	Modifying user name:	WinNT
#	Modification time:	15. 06. 2019 19:45

#	Program:	/corina/corina34_cracker 3.40 0067  02.08.2006

@<TRIPOS>MOLECULE
ASD01882736
  41   42    0    0    0
SMALL
NO_CHARGES


@<TRIPOS>ATOM
   1 N1            -0.0165     1.3692     0.0096 N.pl3   
   2 O2             1.1412    -0.7243    -0.0127 O.3     
   3 C3             0.0021    -0.0041     0.0020 C.2     
   4 N4            -1.0753    -0.7270     0.0089 N.2     
   5 C5            -0.6823    -2.1496     0.0076 C.3     
   6 C6             0.8153    -2.0697     0.3922 C.3     
   7 C7             1.6390    -3.0940    -0.3909 C.3     
   8 O8             3.0178    -2.9666    -0.0377 O.3     
   9 C9             3.8917    -3.8097    -0.6485 C.ar    
  10 C10            5.2466    -3.7411    -0.3525 C.ar    
  11 C11            6.1328    -4.5998    -0.9752 C.ar    
  12 C12            5.6707    -5.5259    -1.8924 C.ar    
  13 C13            4.3223    -5.5954    -2.1887 C.ar    
  14 C14            3.4311    -4.7437    -1.5640 C.ar    
  15 C15            6.6389    -6.4606    -2.5704 C.3     
  16 C16            5.8766    -7.3764    -3.5301 C.3     
  17 C17            6.8596    -8.3255    -4.2185 C.3     
  18 C18            7.6704    -5.6462    -3.3539 C.3     
  19 C19            7.3530    -7.3083    -1.5156 C.3     
  20 Cl20           5.8270    -2.5778     0.7980 Cl      
  21 H21            0.8168     1.8655     0.0043 H       
  22 H22           -0.8631     1.8427     0.0162 H       
  23 H23           -1.2463    -2.7101     0.7532 H       
  24 H24           -0.8071    -2.5872    -0.9829 H       
  25 H25            0.9511    -2.1991     1.4659 H       
  26 H26            1.2935    -4.0992    -0.1495 H       
  27 H27            1.5198    -2.9156    -1.4596 H       
  28 H28            7.1868    -4.5472    -0.7457 H       
  29 H29            3.9642    -6.3194    -2.9057 H       
  30 H30            2.3771    -4.8021    -1.7927 H       
  31 H31            5.1418    -7.9567    -2.9720 H       
  32 H32            5.3679    -6.7725    -4.2816 H       
  33 H33            6.3165    -8.9779    -4.9022 H       
  34 H34            7.5944    -7.7453    -4.7766 H       
  35 H35            7.3683    -8.9294    -3.4670 H       
  36 H36            8.2135    -4.9938    -2.6702 H       
  37 H37            8.3707    -6.3223    -3.8443 H       
  38 H38            7.1617    -5.0423    -4.1053 H       
  39 H39            6.6182    -7.8885    -0.9575 H       
  40 H40            8.0533    -7.9844    -2.0060 H       
  41 H41            7.8961    -6.6559    -0.8319 H       
@<TRIPOS>BOND
   1    1    3 1
   2    1   21 1
   3    1   22 1
   4    2    3 1
   5    2    6 1
   6    3    4 2
   7    4    5 1
   8    5    6 1
   9    5   23 1
  10    5   24 1
  11    6    7 1
  12    6   25 1
  13    7    8 1
  14    7   26 1
  15    7   27 1
  16    8    9 1
  17    9   10 ar
  18    9   14 ar
  19   10   11 ar
  20   10   20 1
  21   11   12 ar
  22   11   28 1
  23   12   13 ar
  24   12   15 1
  25   13   14 ar
  26   13   29 1
  27   14   30 1
  28   15   16 1
  29   15   18 1
  30   15   19 1
  31   16   17 1
  32   16   31 1
  33   16   32 1
  34   17   33 1
  35   17   34 1
  36   17   35 1
  37   18   36 1
  38   18   37 1
  39   18   38 1
  40   19   39 1
  41   19   40 1
  42   19   41 1

#	End of record

