#	Name: ASD03430476
#	Creating user name:	WinNT
#	Creation time:	15. 06. 2019 20:41

#	Modifying user name:	WinNT
#	Modification time:	15. 06. 2019 20:41

#	Program:	/corina/corina34_cracker 3.40 0067  02.08.2006

@<TRIPOS>MOLECULE
ASD03430476
  53   57    0    0    0
SMALL
NO_CHARGES


@<TRIPOS>ATOM
   1 N1            -0.0161     1.3395     0.0094 N.am    
   2 C2             0.0021    -0.0041     0.0020 C.2     
   3 C3             1.4548    -0.4298    -0.0141 C.3     
   4 C4             2.2197     0.8737    -0.0144 C.ar    
   5 C5             3.5641     1.1705    -0.0263 C.ar    
   6 C6             3.9795     2.4906    -0.0239 C.ar    
   7 C7             3.0415     3.5068    -0.0095 C.ar    
   8 C8             1.6940     3.2122     0.0024 C.ar    
   9 C9             1.2680     1.8853     0.0001 C.ar    
  10 O10           -0.9637    -0.7377     0.0076 O.2     
  11 C11           -1.2434     2.1395     0.0197 C.3     
  12 O12           -1.9334     1.1726     2.1336 O.3     
  13 C13           -1.6633     2.4106     1.4658 C.3     
  14 C14           -2.9622     3.2448     1.4863 C.3     
  15 C15           -3.7433     2.6094     2.6687 C.3     
  16 C16           -3.3087     1.1273     2.5456 C.3     
  17 O17            3.0382    -4.5379     2.0618 O.3     
  18 C18            3.6406    -5.1498     3.2070 C.3     
  19 C19            2.7361    -4.8794     4.4164 C.3     
  20 N20            2.6894    -3.4315     4.6512 N.3     
  21 C21            2.3910    -2.7180     3.4861 C.ar    
  22 C22            2.5688    -3.2689     2.2223 C.ar    
  23 C23            1.9038    -1.4210     3.6074 C.ar    
  24 C24            1.6007    -0.6817     2.4758 C.ar    
  25 C25            1.7830    -1.2343     1.2172 C.ar    
  26 C26            2.2653    -2.5234     1.0925 C.ar    
  27 C27            1.7441    -3.1028     5.7266 C.3     
  28 O28            1.1235     0.5856     2.5993 O.3     
  29 O29            1.7436    -1.1801    -1.1956 O.3     
  30 H30            4.2935     0.3741    -0.0372 H       
  31 H31            5.0333     2.7266    -0.0329 H       
  32 H32            3.3659     4.5370    -0.0072 H       
  33 H33            0.9677     4.0114     0.0136 H       
  34 H34           -1.0644     3.0860    -0.4902 H       
  35 H35           -2.0364     1.5949    -0.4929 H       
  36 H36           -0.8710     2.9472     1.9877 H       
  37 H37           -2.7459     4.2947     1.6839 H       
  38 H38           -3.5118     3.1300     0.5520 H       
  39 H39           -3.4270     3.0337     3.6216 H       
  40 H40           -4.8193     2.7160     2.5312 H       
  41 H41           -3.9120     0.6172     1.7946 H       
  42 H42           -3.3987     0.6253     3.5090 H       
  43 H43            3.7306    -6.2242     3.0466 H       
  44 H44            4.6265    -4.7182     3.3799 H       
  45 H45            1.7315    -5.2496     4.2120 H       
  46 H46            3.1415    -5.3799     5.2957 H       
  47 H47            1.7611    -0.9889     4.5868 H       
  48 H48            2.4069    -2.9520     0.1114 H       
  49 H49            2.0148    -3.6516     6.6286 H       
  50 H50            1.7807    -2.0322     5.9278 H       
  51 H51            0.7354    -3.3809     5.4211 H       
  52 H52            1.8115     1.2649     2.6181 H       
  53 H53            1.2345    -1.9982    -1.2762 H       
@<TRIPOS>BOND
   1    1    2 am
   2    1    9 1
   3    1   11 1
   4    2    3 1
   5    2   10 2
   6    3    4 1
   7    3   25 1
   8    3   29 1
   9    4    5 ar
  10    4    9 ar
  11    5    6 ar
  12    5   30 1
  13    6    7 ar
  14    6   31 1
  15    7    8 ar
  16    7   32 1
  17    8    9 ar
  18    8   33 1
  19   11   13 1
  20   11   34 1
  21   11   35 1
  22   12   13 1
  23   12   16 1
  24   13   14 1
  25   13   36 1
  26   14   15 1
  27   14   37 1
  28   14   38 1
  29   15   16 1
  30   15   39 1
  31   15   40 1
  32   16   41 1
  33   16   42 1
  34   17   18 1
  35   17   22 1
  36   18   19 1
  37   18   43 1
  38   18   44 1
  39   19   20 1
  40   19   45 1
  41   19   46 1
  42   20   21 1
  43   20   27 1
  44   21   22 ar
  45   21   23 ar
  46   22   26 ar
  47   23   24 ar
  48   23   47 1
  49   24   25 ar
  50   24   28 1
  51   25   26 ar
  52   26   48 1
  53   27   49 1
  54   27   50 1
  55   27   51 1
  56   28   52 1
  57   29   53 1

#	End of record

