#	Name: ASD00170067
#	Creating user name:	WinNT
#	Creation time:	15. 06. 2019 18:31

#	Modifying user name:	WinNT
#	Modification time:	15. 06. 2019 18:31

#	Program:	/corina/corina34_cracker 3.40 0067  02.08.2006

@<TRIPOS>MOLECULE
ASD00170067
 109  113    0    0    0
SMALL
NO_CHARGES


@<TRIPOS>ATOM
   1 C1             3.1232     2.9134    -1.5956 C.ar    
   2 C2             3.1413     1.5302    -1.4855 C.ar    
   3 C3             4.3317     0.8386    -1.6485 C.ar    
   4 C4             5.5014     1.5311    -1.9212 C.ar    
   5 C5             5.4780     2.9143    -2.0303 C.ar    
   6 C6             4.2903     3.6014    -1.8675 C.ar    
   7 O7             1.9933     0.8542    -1.2177 O.3     
   8 C8             0.8042     1.6313    -1.0615 C.3     
   9 O9             6.6699     0.8559    -2.0811 O.3     
  10 C10            7.8357     1.6338    -2.3601 C.3     
  11 C11            4.3543    -0.6635    -1.5290 C.3     
  12 N12            4.1108    -1.2634    -2.8476 N.3     
  13 C13            4.3583    -2.7106    -2.8212 C.3     
  14 C14            4.2371    -3.2761    -4.2381 C.3     
  15 C15            2.8335    -2.9892    -4.7786 C.3     
  16 C16            2.5830    -1.4789    -4.7502 C.3     
  17 C17            2.7522    -0.9655    -3.3185 C.3     
  18 N18            2.7299    -3.4782    -6.1599 N.3     
  19 C19            3.0642    -4.9064    -6.2393 C.3     
  20 C20            2.1924    -5.6897    -5.2557 C.3     
  21 C21            2.4389    -7.1887    -5.4376 C.3     
  22 C22            1.3933    -3.2189    -6.7113 C.3     
  23 C23            1.4234    -3.4034    -8.2299 C.3     
  24 C24            0.0574    -3.0396    -8.8150 C.3     
  25 C25            0.0875    -3.2241   -10.3336 C.3     
  26 C26           -1.2785    -2.8602   -10.9187 C.3     
  27 C27           -1.2484    -3.0447   -12.4373 C.3     
  28 C28           -2.6145    -2.6809   -13.0225 C.3     
  29 N29           -2.5855    -2.8580   -14.4805 N.3     
  30 C30           -3.9398    -2.7486   -15.0530 C.3     
  31 C31           -3.8987    -1.6285   -16.1137 C.3     
  32 C32           -2.3941    -1.5536   -16.4847 C.3     
  33 C33           -1.7206    -1.8440   -15.1203 C.3     
  34 C34           -4.7387    -2.0085   -17.3347 C.3     
  35 C35           -4.7047    -0.8841   -18.3375 C.2     
  36 C36           -4.1766    -3.2582   -17.9619 C.ar    
  37 C37           -6.1622    -2.2575   -16.9073 C.ar    
  38 C38           -4.6593    -3.6971   -19.1806 C.ar    
  39 C39           -4.1437    -4.8434   -19.7559 C.ar    
  40 C40           -3.1452    -5.5506   -19.1127 C.ar    
  41 C41           -2.6619    -5.1112   -17.8944 C.ar    
  42 C42           -3.1744    -3.9625   -17.3212 C.ar    
  43 C43           -6.6948    -3.5307   -16.9860 C.ar    
  44 C44           -6.9335    -1.2138   -16.4312 C.ar    
  45 C45           -8.2393    -1.4422   -16.0392 C.ar    
  46 C46           -8.7739    -2.7142   -16.1237 C.ar    
  47 C47           -8.0006    -3.7591   -16.5939 C.ar    
  48 N48           -3.5294    -0.4847   -18.8624 N.am    
  49 O49           -5.7349    -0.3387   -18.6722 O.2     
  50 H50            2.1953     3.4523    -1.4731 H       
  51 H51            6.3889     3.4542    -2.2428 H       
  52 H52            4.2742     4.6779    -1.9528 H       
  53 H53           -0.0368     0.9704    -0.8517 H       
  54 H54            0.9326     2.3297    -0.2345 H       
  55 H55            0.6099     2.1866    -1.9791 H       
  56 H56            7.6889     2.1888    -3.2867 H       
  57 H57            8.0107     2.3324    -1.5419 H       
  58 H58            8.6966     0.9735    -2.4645 H       
  59 H59            5.3280    -0.9839    -1.1583 H       
  60 H60            3.5777    -0.9845    -0.8348 H       
  61 H61            5.3612    -2.9007    -2.4389 H       
  62 H62            3.6256    -3.1926    -2.1739 H       
  63 H63            4.9787    -2.8045    -4.8828 H       
  64 H64            4.4054    -4.3528    -4.2158 H       
  65 H65            2.0936    -3.4929    -4.1565 H       
  66 H66            3.2986    -0.9791    -5.4030 H       
  67 H67            1.5696    -1.2716    -5.0938 H       
  68 H68            2.0270    -1.4557    -2.6688 H       
  69 H69            2.5885     0.1119    -3.2973 H       
  70 H70            2.8827    -5.2664    -7.2520 H       
  71 H71            4.1149    -5.0483    -5.9862 H       
  72 H72            2.4461    -5.4009    -4.2357 H       
  73 H73            1.1421    -5.4685    -5.4454 H       
  74 H74            2.1852    -7.4775    -6.4576 H       
  75 H75            3.4892    -7.4098    -5.2479 H       
  76 H76            1.8178    -7.7467    -4.7369 H       
  77 H77            0.6785    -3.9165    -6.2747 H       
  78 H78            1.0947    -2.1975    -6.4753 H       
  79 H79            2.1871    -2.7551    -8.6595 H       
  80 H80            1.6544    -4.4423    -8.4651 H       
  81 H81           -0.7063    -3.6879    -8.3854 H       
  82 H82           -0.1737    -2.0007    -8.5798 H       
  83 H83            0.8512    -2.5758   -10.7633 H       
  84 H84            0.3185    -4.2630   -10.5688 H       
  85 H85           -2.0422    -3.5085   -10.4891 H       
  86 H86           -1.5096    -1.8213   -10.6835 H       
  87 H87           -0.4847    -2.3964   -12.8670 H       
  88 H88           -1.0174    -4.0837   -12.6726 H       
  89 H89           -3.3781    -3.3292   -12.5928 H       
  90 H90           -2.8455    -1.6420   -12.7872 H       
  91 H91           -4.2220    -3.6919   -15.5206 H       
  92 H92           -4.6537    -2.4921   -14.2703 H       
  93 H93           -4.2385    -0.6836   -15.6897 H       
  94 H94           -2.1345    -2.3166   -17.2186 H       
  95 H95           -2.1302    -0.5600   -16.8468 H       
  96 H96           -1.6850    -0.9387   -14.5143 H       
  97 H97           -0.7166    -2.2413   -15.2697 H       
  98 H98           -5.4394    -3.1446   -19.6831 H       
  99 H99           -4.5213    -5.1867   -20.7078 H       
 100 H100          -2.7429    -6.4466   -19.5619 H       
 101 H101          -1.8820    -5.6640   -17.3917 H       
 102 H102          -2.7943    -3.6172   -16.3711 H       
 103 H103          -6.0909    -4.3469   -17.3541 H       
 104 H104          -6.5159    -0.2200   -16.3652 H       
 105 H105          -8.8417    -0.6270   -15.6666 H       
 106 H106          -9.7939    -2.8928   -15.8171 H       
 107 H107          -8.4168    -4.7538   -16.6558 H       
 108 H108          -2.7054    -0.9209   -18.5947 H       
 109 H109          -3.5075     0.2391   -19.5079 H       
@<TRIPOS>BOND
   1    1    2 ar
   2    1    6 ar
   3    1   50 1
   4    2    3 ar
   5    2    7 1
   6    3    4 ar
   7    3   11 1
   8    4    5 ar
   9    4    9 1
  10    5    6 ar
  11    5   51 1
  12    6   52 1
  13    7    8 1
  14    8   53 1
  15    8   54 1
  16    8   55 1
  17    9   10 1
  18   10   56 1
  19   10   57 1
  20   10   58 1
  21   11   12 1
  22   11   59 1
  23   11   60 1
  24   12   13 1
  25   12   17 1
  26   13   14 1
  27   13   61 1
  28   13   62 1
  29   14   15 1
  30   14   63 1
  31   14   64 1
  32   15   16 1
  33   15   18 1
  34   15   65 1
  35   16   17 1
  36   16   66 1
  37   16   67 1
  38   17   68 1
  39   17   69 1
  40   18   19 1
  41   18   22 1
  42   19   20 1
  43   19   70 1
  44   19   71 1
  45   20   21 1
  46   20   72 1
  47   20   73 1
  48   21   74 1
  49   21   75 1
  50   21   76 1
  51   22   23 1
  52   22   77 1
  53   22   78 1
  54   23   24 1
  55   23   79 1
  56   23   80 1
  57   24   25 1
  58   24   81 1
  59   24   82 1
  60   25   26 1
  61   25   83 1
  62   25   84 1
  63   26   27 1
  64   26   85 1
  65   26   86 1
  66   27   28 1
  67   27   87 1
  68   27   88 1
  69   28   29 1
  70   28   89 1
  71   28   90 1
  72   29   30 1
  73   29   33 1
  74   30   31 1
  75   30   91 1
  76   30   92 1
  77   31   32 1
  78   31   34 1
  79   31   93 1
  80   32   33 1
  81   32   94 1
  82   32   95 1
  83   33   96 1
  84   33   97 1
  85   34   35 1
  86   34   36 1
  87   34   37 1
  88   35   48 am
  89   35   49 2
  90   36   38 ar
  91   36   42 ar
  92   37   44 ar
  93   37   43 ar
  94   38   39 ar
  95   38   98 1
  96   39   40 ar
  97   39   99 1
  98   40   41 ar
  99   40  100 1
 100   41   42 ar
 101   41  101 1
 102   42  102 1
 103   43   47 ar
 104   43  103 1
 105   44   45 ar
 106   44  104 1
 107   45   46 ar
 108   45  105 1
 109   46   47 ar
 110   46  106 1
 111   47  107 1
 112   48  108 1
 113   48  109 1

#	End of record

