#	Name: ASD00170521
#	Creating user name:	WinNT
#	Creation time:	15. 06. 2019 18:32

#	Modifying user name:	WinNT
#	Modification time:	15. 06. 2019 18:32

#	Program:	/corina/corina34_cracker 3.40 0067  02.08.2006

@<TRIPOS>MOLECULE
ASD00170521
  55   58    0    0    0
SMALL
NO_CHARGES


@<TRIPOS>ATOM
   1 C1            -0.2791     1.5960     0.2660 C.3     
   2 N2            -0.3083     0.1293     0.1903 N.3     
   3 C3            -1.6124    -0.3944     0.6202 C.3     
   4 C4            -1.6291    -1.9155     0.4515 C.3     
   5 N5            -0.5408    -2.5055     1.2435 N.3     
   6 C6             0.7632    -1.9818     0.8136 C.3     
   7 C7             0.7799    -0.4607     0.9822 C.3     
   8 C8            -0.5701    -3.9722     1.1677 C.3     
   9 C9             0.6882    -4.5320     1.7797 C.2     
  10 C10            1.7264    -4.9400     1.0666 C.2     
  11 S11            3.0095    -5.5286     2.1082 S.3     
  12 C12            2.1121    -5.2110     3.5220 C.2     
  13 C13            0.8862    -4.6722     3.2070 C.2     
  14 C14           -0.1127    -4.2914     4.2054 C.2     
  15 O15           -0.1702    -3.1412     4.6011 O.2     
  16 C16           -1.0528    -5.3031     4.7341 C.ar    
  17 C17           -2.0738    -4.9225     5.6068 C.ar    
  18 C18           -2.9474    -5.8704     6.0966 C.ar    
  19 C19           -2.8133    -7.1978     5.7244 C.ar    
  20 C20           -1.8023    -7.5814     4.8588 C.ar    
  21 C21           -0.9262    -6.6415     4.3579 C.ar    
  22 Cl22          -3.9165    -8.3856     6.3455 Cl      
  23 N23            2.5563    -5.4553     4.8057 N.pl3   
  24 C24           -1.2365     2.1705    -0.7462 C.2     
  25 C25           -1.4862     3.6196    -0.7826 C.ar    
  26 O26           -1.8010     1.4381    -1.5306 O.2     
  27 C27           -2.3743     4.1564    -1.7208 C.ar    
  28 C28           -2.6033     5.5151    -1.7491 C.ar    
  29 C29           -1.9563     6.3490    -0.8512 C.ar    
  30 C30           -1.0754     5.8243     0.0808 C.ar    
  31 C31           -0.8410     4.4669     0.1246 C.ar    
  32 Cl32          -2.2505     8.0593    -0.8946 Cl      
  33 H33           -0.5736     1.9142     1.2661 H       
  34 H34            0.7296     1.9508     0.0542 H       
  35 H35           -1.7779    -0.1428     1.6678 H       
  36 H36           -2.4006     0.0477     0.0108 H       
  37 H37           -2.5850    -2.3092     0.7970 H       
  38 H38           -1.4908    -2.1663    -0.6002 H       
  39 H39            1.5515    -2.4239     1.4229 H       
  40 H40            0.9287    -2.2334    -0.2340 H       
  41 H41            1.7358    -0.0670     0.6368 H       
  42 H42            0.6416    -0.2099     2.0339 H       
  43 H43           -1.4368    -4.3470     1.7123 H       
  44 H44           -0.6351    -4.2810     0.1244 H       
  45 H45            1.7764    -4.9144    -0.0119 H       
  46 H46           -2.1791    -3.8879     5.8981 H       
  47 H47           -3.7375    -5.5773     6.7721 H       
  48 H48           -1.7026    -8.6178     4.5720 H       
  49 H49           -0.1385    -6.9417     3.6828 H       
  50 H50            3.4061    -5.9007     4.9484 H       
  51 H51            2.0186    -5.1816     5.5653 H       
  52 H52           -2.8789     3.5077    -2.4214 H       
  53 H53           -3.2883     5.9309    -2.4731 H       
  54 H54           -0.5747     6.4802     0.7776 H       
  55 H55           -0.1541     4.0594     0.8516 H       
@<TRIPOS>BOND
   1    1    2 1
   2    1   24 1
   3    1   33 1
   4    1   34 1
   5    2    3 1
   6    2    7 1
   7    3    4 1
   8    3   35 1
   9    3   36 1
  10    4    5 1
  11    4   37 1
  12    4   38 1
  13    5    6 1
  14    5    8 1
  15    6    7 1
  16    6   39 1
  17    6   40 1
  18    7   41 1
  19    7   42 1
  20    8    9 1
  21    8   43 1
  22    8   44 1
  23    9   10 2
  24    9   13 1
  25   10   11 1
  26   10   45 1
  27   11   12 1
  28   12   13 2
  29   12   23 1
  30   13   14 1
  31   14   15 2
  32   14   16 1
  33   16   17 ar
  34   16   21 ar
  35   17   18 ar
  36   17   46 1
  37   18   19 ar
  38   18   47 1
  39   19   20 ar
  40   19   22 1
  41   20   21 ar
  42   20   48 1
  43   21   49 1
  44   23   50 1
  45   23   51 1
  46   24   25 1
  47   24   26 2
  48   25   27 ar
  49   25   31 ar
  50   27   28 ar
  51   27   52 1
  52   28   29 ar
  53   28   53 1
  54   29   30 ar
  55   29   32 1
  56   30   31 ar
  57   30   54 1
  58   31   55 1

#	End of record

