#	Name: ASD05430678
#	Creating user name:	WinNT
#	Creation time:	15. 06. 2019 21:00

#	Modifying user name:	WinNT
#	Modification time:	15. 06. 2019 21:00

#	Program:	/corina/corina34_cracker 3.40 0067  02.08.2006

@<TRIPOS>MOLECULE
ASD05430678
  18   18    0    0    0
SMALL
NO_CHARGES


@<TRIPOS>ATOM
   1 C1            -0.0184     1.5028     0.0103 C.2     
   2 C2             0.0021    -0.0041     0.0020 C.3     
   3 C3            -0.7002    -0.5305     1.2552 C.3     
   4 C4            -0.7241    -0.5171    -1.2431 C.3     
   5 C5             1.0609     2.2860     0.0042 C.2     
   6 C6             0.7958     3.6451     0.0140 C.2     
   7 C7            -0.5003     3.9645     0.0281 C.2     
   8 S8            -1.4693     2.4967     0.0219 S.3     
   9 Cl9           -1.1326     5.5812     0.0429 Cl      
  10 H10            1.0345    -0.3534    -0.0097 H       
  11 H11           -1.7327    -0.1812     1.2669 H       
  12 H12           -0.6854    -1.6204     1.2492 H       
  13 H13           -0.1829    -0.1650     2.1423 H       
  14 H14           -0.2237    -0.1421    -2.1359 H       
  15 H15           -0.7093    -1.6070    -1.2491 H       
  16 H16           -1.7565    -0.1678    -1.2314 H       
  17 H17            2.0657     1.8902    -0.0072 H       
  18 H18            1.5780     4.3898     0.0109 H       
@<TRIPOS>BOND
   1    1    2 1
   2    1    5 2
   3    1    8 1
   4    2    3 1
   5    2    4 1
   6    2   10 1
   7    3   11 1
   8    3   12 1
   9    3   13 1
  10    4   14 1
  11    4   15 1
  12    4   16 1
  13    5    6 1
  14    5   17 1
  15    6    7 2
  16    6   18 1
  17    7    8 1
  18    7    9 1

#	End of record

