#	Name: ASD01918608
#	Creating user name:	WinNT
#	Creation time:	15. 06. 2019 20:11

#	Modifying user name:	WinNT
#	Modification time:	15. 06. 2019 20:11

#	Program:	/corina/corina34_cracker 3.40 0067  02.08.2006

@<TRIPOS>MOLECULE
ASD01918608
  40   42    0    0    0
SMALL
NO_CHARGES


@<TRIPOS>ATOM
   1 F1             0.0054    -0.0040     0.0074 F       
   2 C2            -0.0144     1.3468     0.0132 C.ar    
   3 C3            -0.1102     2.0316     1.2121 C.ar    
   4 C4            -0.1302     3.4130     1.2205 C.ar    
   5 C5            -0.0542     4.1156     0.0256 C.ar    
   6 C6             0.0419     3.4286    -1.1773 C.ar    
   7 C7             0.0670     2.0461    -1.1821 C.ar    
   8 F8             0.1656     1.3763    -2.3513 F       
   9 N9            -0.0749     5.5165     0.0333 N.am    
  10 C10           -1.2663     6.1689    -0.0442 C.2     
  11 C11           -1.3188     7.5182    -0.0385 C.2     
  12 C12           -0.1270     8.2651     0.0486 C.2     
  13 O13           -0.1632     9.6192     0.0559 O.3     
  14 C14            1.0893    10.3012     0.1467 C.3     
  15 C15            0.8489    11.8122     0.1411 C.3     
  16 O16            0.1295    12.1844     1.3184 O.3     
  17 C17           -0.1674    13.5020     1.4692 C.ar    
  18 C18            0.2206    14.4169     0.5012 C.ar    
  19 C19           -0.0828    15.7556     0.6567 C.ar    
  20 C20           -0.7722    16.1840     1.7761 C.ar    
  21 C21           -1.1595    15.2742     2.7425 C.ar    
  22 C22           -0.8639    13.9335     2.5887 C.ar    
  23 C23            1.0799     7.5948     0.1270 C.2     
  24 C24            1.0838     6.1955     0.1229 C.2     
  25 O25            2.1413     5.5890     0.1961 O.2     
  26 H26           -0.1697     1.4855     2.1419 H       
  27 H27           -0.2053     3.9462     2.1567 H       
  28 H28            0.1011     3.9735    -2.1079 H       
  29 H29           -2.1820     5.6002    -0.1114 H       
  30 H30           -2.2713     8.0234    -0.1009 H       
  31 H31            1.5917    10.0167     1.0712 H       
  32 H32            1.7135    10.0294    -0.7045 H       
  33 H33            1.8065    12.3324     0.1207 H       
  34 H34            0.2687    12.0845    -0.7406 H       
  35 H35            0.7597    14.0829    -0.3730 H       
  36 H36            0.2190    16.4683    -0.0966 H       
  37 H37           -1.0081    17.2311     1.8960 H       
  38 H38           -1.6976    15.6113     3.6162 H       
  39 H39           -1.1706    13.2226     3.3417 H       
  40 H40            2.0073     8.1441     0.1942 H       
@<TRIPOS>BOND
   1    1    2 1
   2    2    7 ar
   3    2    3 ar
   4    3    4 ar
   5    3   26 1
   6    4    5 ar
   7    4   27 1
   8    5    6 ar
   9    5    9 1
  10    6    7 ar
  11    6   28 1
  12    7    8 1
  13    9   24 am
  14    9   10 1
  15   10   11 2
  16   10   29 1
  17   11   12 1
  18   11   30 1
  19   12   13 1
  20   12   23 2
  21   13   14 1
  22   14   15 1
  23   14   31 1
  24   14   32 1
  25   15   16 1
  26   15   33 1
  27   15   34 1
  28   16   17 1
  29   17   22 ar
  30   17   18 ar
  31   18   19 ar
  32   18   35 1
  33   19   20 ar
  34   19   36 1
  35   20   21 ar
  36   20   37 1
  37   21   22 ar
  38   21   38 1
  39   22   39 1
  40   23   24 1
  41   23   40 1
  42   24   25 2

#	End of record

