#	Name: ASD01915290
#	Creating user name:	WinNT
#	Creation time:	15. 06. 2019 20:05

#	Modifying user name:	WinNT
#	Modification time:	15. 06. 2019 20:05

#	Program:	/corina/corina34_cracker 3.40 0067  02.08.2006

@<TRIPOS>MOLECULE
ASD01915290
  46   48    0    0    0
SMALL
NO_CHARGES


@<TRIPOS>ATOM
   1 C1             0.0125     1.4522     0.0090 C.2     
   2 C2             0.0642    -0.0533    -0.0315 C.3     
   3 N3             1.1556     2.1662     0.0023 N.am    
   4 O4            -1.0579     2.0215     0.0427 O.2     
   5 O5            -1.2656    -0.5762    -0.0157 O.3     
   6 C6            -1.3295    -2.0034    -0.0516 C.3     
   7 C7            -2.7709    -2.4424    -0.0310 C.ar    
   8 C8            -3.4587    -2.6124    -1.2180 C.ar    
   9 C9            -4.7809    -3.0151    -1.1992 C.ar    
  10 C10           -5.4153    -3.2482     0.0067 C.ar    
  11 C11           -4.7273    -3.0790     1.1937 C.ar    
  12 C12           -3.4038    -2.6805     1.1747 C.ar    
  13 C13            1.1277     3.6362     0.0414 C.3     
  14 C14            2.0541     4.1109     1.1660 C.3     
  15 N15            3.3860     3.5196     0.9813 N.3     
  16 C16            3.3377     2.0550     1.0836 C.3     
  17 C17            2.4641     1.4959    -0.0382 C.3     
  18 C18            4.2975     4.0524     1.8859 C.ar    
  19 C19            4.6677     5.4037     1.8011 C.ar    
  20 C20            5.5848     5.9264     2.7166 C.ar    
  21 C21            6.1188     5.1151     3.6940 C.ar    
  22 C22            5.7511     3.7815     3.7748 C.ar    
  23 C23            4.8421     3.2518     2.8815 C.ar    
  24 C24            4.1093     6.2412     0.7826 C.1     
  25 N25            3.6664     6.9056    -0.0254 N.1     
  26 H26            0.5703    -0.3751    -0.9417 H       
  27 H27            0.6098    -0.4217     0.8372 H       
  28 H28           -0.8523    -2.3656    -0.9622 H       
  29 H29           -0.8127    -2.4122     0.8167 H       
  30 H30           -2.9630    -2.4303    -2.1602 H       
  31 H31           -5.3185    -3.1472    -2.1265 H       
  32 H32           -6.4486    -3.5621     0.0215 H       
  33 H33           -5.2231    -3.2608     2.1358 H       
  34 H34           -2.8663    -2.5484     2.1020 H       
  35 H35            1.4752     4.0345    -0.9119 H       
  36 H36            0.1111     3.9781     0.2356 H       
  37 H37            2.1317     5.1978     1.1389 H       
  38 H38            1.6477     3.7987     2.1281 H       
  39 H39            4.3463     1.6508     0.9967 H       
  40 H40            2.9135     1.7714     2.0468 H       
  41 H41            2.3320     0.4228     0.1007 H       
  42 H42            2.9374     1.6877    -1.0012 H       
  43 H43            5.8751     6.9650     2.6579 H       
  44 H44            6.8278     5.5206     4.4006 H       
  45 H45            6.1752     3.1537     4.5445 H       
  46 H46            4.5608     2.2114     2.9512 H       
@<TRIPOS>BOND
   1    1    2 1
   2    1    3 am
   3    1    4 2
   4    2    5 1
   5    2   26 1
   6    2   27 1
   7    3   13 1
   8    3   17 1
   9    5    6 1
  10    6    7 1
  11    6   28 1
  12    6   29 1
  13    7    8 ar
  14    7   12 ar
  15    8    9 ar
  16    8   30 1
  17    9   10 ar
  18    9   31 1
  19   10   11 ar
  20   10   32 1
  21   11   12 ar
  22   11   33 1
  23   12   34 1
  24   13   14 1
  25   13   35 1
  26   13   36 1
  27   14   15 1
  28   14   37 1
  29   14   38 1
  30   15   16 1
  31   15   18 1
  32   16   17 1
  33   16   39 1
  34   16   40 1
  35   17   41 1
  36   17   42 1
  37   18   19 ar
  38   18   23 ar
  39   19   20 ar
  40   19   24 1
  41   20   21 ar
  42   20   43 1
  43   21   22 ar
  44   21   44 1
  45   22   23 ar
  46   22   45 1
  47   23   46 1
  48   24   25 3

#	End of record

