#	Name: ASD03240946
#	Creating user name:	WinNT
#	Creation time:	15. 06. 2019 20:35

#	Modifying user name:	WinNT
#	Modification time:	15. 06. 2019 20:35

#	Program:	/corina/corina34_cracker 3.40 0067  02.08.2006

@<TRIPOS>MOLECULE
ASD03240946
  75   81    0    0    0
SMALL
NO_CHARGES


@<TRIPOS>ATOM
   1 N1            -0.0584     1.3584    -0.1737 N.am    
   2 C2            -0.0245     0.0112    -0.1894 C.2     
   3 O3             1.0267    -0.5682    -0.3829 O.2     
   4 N4            -1.1558    -0.6938     0.0094 N.am    
   5 C5            -0.0467    -4.1942     0.1572 C.ar    
   6 C6            -0.0221    -2.8209     0.2844 C.ar    
   7 C7            -1.1403    -2.0845    -0.1036 C.ar    
   8 C8            -2.2427    -2.7734    -0.6069 C.ar    
   9 C9            -2.1876    -4.1484    -0.7020 C.ar    
  10 N10           -1.1101    -4.8100    -0.3241 N.ar    
  11 N11            2.7797     4.4505     0.1956 N.3     
  12 C12            2.1043     4.3282    -1.1027 C.3     
  13 C13            0.8209     3.5113    -0.9365 C.3     
  14 C14            1.1714     2.1247    -0.3898 C.3     
  15 C15            1.9165     2.2819     0.9386 C.3     
  16 C16            3.1681     3.1343     0.7181 C.3     
  17 C17            3.9421     5.3439     0.1022 C.3     
  18 C18            4.4603     5.6402     1.4859 C.ar    
  19 C19            5.4237     4.8233     2.0502 C.ar    
  20 C20            5.9025     5.0896     3.3166 C.ar    
  21 C21            5.4132     6.1852     4.0279 C.ar    
  22 C22            4.4419     7.0052     3.4534 C.ar    
  23 C23            3.9749     6.7314     2.1842 C.ar    
  24 N24            7.0328     4.6320     8.2465 N.pl3   
  25 C25            7.5046     4.8793     9.5072 C.2     
  26 N26            7.6612     6.1295     9.9771 N.2     
  27 C27            7.3720     7.1826     9.2570 C.2     
  28 C28            6.8628     6.9968     7.8999 C.ar    
  29 C29            6.5352     8.0834     7.0819 C.ar    
  30 C30            6.0572     7.8155     5.8035 C.ar    
  31 C31            5.9225     6.4764     5.3876 C.ar    
  32 N32            6.2426     5.4730     6.1907 N.ar    
  33 C33            6.7011     5.6824     7.4125 C.ar    
  34 C34            7.7457     3.6441    10.0934 C.2     
  35 C35            7.4120     2.6641     9.1671 C.2     
  36 N36            6.9832     3.2437     8.0716 N.2     
  37 C37            5.6928     8.9253     4.8905 C.ar    
  38 C38            4.8537     9.9474     5.3316 C.ar    
  39 C39            4.5183    10.9781     4.4775 C.ar    
  40 C40            5.0129    10.9984     3.1858 C.ar    
  41 C41            5.8455     9.9866     2.7424 C.ar    
  42 C42            6.1924     8.9538     3.5894 C.ar    
  43 C43            7.5197     1.1772     9.3873 C.3     
  44 H44           -0.8978     1.8207    -0.0233 H       
  45 H45           -1.9809    -0.2344     0.2310 H       
  46 H46            0.8168    -4.7724     0.4511 H       
  47 H47            0.8513    -2.3232     0.6794 H       
  48 H48           -3.1277    -2.2380    -0.9176 H       
  49 H49           -3.0370    -4.6904    -1.0908 H       
  50 H50            1.8569     5.3210    -1.4783 H       
  51 H51            2.7650     3.8267    -1.8099 H       
  52 H52            0.1539     4.0192    -0.2400 H       
  53 H53            0.3280     3.4075    -1.9032 H       
  54 H54            1.8060     1.6010    -1.1047 H       
  55 H55            1.2667     2.7704     1.6647 H       
  56 H56            2.2063     1.2996     1.3117 H       
  57 H57            3.8238     2.6385     0.0024 H       
  58 H58            3.6933     3.2601     1.6650 H       
  59 H59            4.7248     4.8617    -0.4834 H       
  60 H60            3.6470     6.2746    -0.3824 H       
  61 H61            5.8015     3.9751     1.4986 H       
  62 H62            6.6543     4.4510     3.7562 H       
  63 H63            4.0590     7.8547     3.9994 H       
  64 H64            3.2258     7.3678     1.7367 H       
  65 H65            7.5073     8.1754     9.6599 H       
  66 H66            6.6501     9.0986     7.4321 H       
  67 H67            8.1251     3.4754    11.0904 H       
  68 H68            4.4667     9.9324     6.3398 H       
  69 H69            3.8680    11.7703     4.8181 H       
  70 H70            4.7477    11.8070     2.5209 H       
  71 H71            6.2281    10.0072     1.7326 H       
  72 H72            6.8462     8.1668     3.2436 H       
  73 H73            6.5844     0.8028     9.8034 H       
  74 H74            7.7181     0.6825     8.4364 H       
  75 H75            8.3345     0.9707    10.0812 H       
@<TRIPOS>BOND
   1    1    2 am
   2    1   14 1
   3    1   44 1
   4    2    3 2
   5    2    4 am
   6    4    7 1
   7    4   45 1
   8    5    6 ar
   9    5   10 ar
  10    5   46 1
  11    6    7 ar
  12    6   47 1
  13    7    8 ar
  14    8    9 ar
  15    8   48 1
  16    9   10 ar
  17    9   49 1
  18   11   12 1
  19   11   16 1
  20   11   17 1
  21   12   13 1
  22   12   50 1
  23   12   51 1
  24   13   14 1
  25   13   52 1
  26   13   53 1
  27   14   15 1
  28   14   54 1
  29   15   16 1
  30   15   55 1
  31   15   56 1
  32   16   57 1
  33   16   58 1
  34   17   18 1
  35   17   59 1
  36   17   60 1
  37   18   19 ar
  38   18   23 ar
  39   19   20 ar
  40   19   61 1
  41   20   21 ar
  42   20   62 1
  43   21   22 ar
  44   21   31 1
  45   22   23 ar
  46   22   63 1
  47   23   64 1
  48   24   25 1
  49   24   33 1
  50   24   36 1
  51   25   26 1
  52   25   34 2
  53   26   27 2
  54   27   28 1
  55   27   65 1
  56   28   29 ar
  57   28   33 ar
  58   29   30 ar
  59   29   66 1
  60   30   31 ar
  61   30   37 1
  62   31   32 ar
  63   32   33 ar
  64   34   35 1
  65   34   67 1
  66   35   36 2
  67   35   43 1
  68   37   38 ar
  69   37   42 ar
  70   38   39 ar
  71   38   68 1
  72   39   40 ar
  73   39   69 1
  74   40   41 ar
  75   40   70 1
  76   41   42 ar
  77   41   71 1
  78   42   72 1
  79   43   73 1
  80   43   74 1
  81   43   75 1

#	End of record

