#	Name: ASD03080101
#	Creating user name:	WinNT
#	Creation time:	15. 06. 2019 20:26

#	Modifying user name:	WinNT
#	Modification time:	15. 06. 2019 20:26

#	Program:	/corina/corina34_cracker 3.40 0067  02.08.2006

@<TRIPOS>MOLECULE
ASD03080101
  29   31    0    0    0
SMALL
NO_CHARGES


@<TRIPOS>ATOM
   1 N1             0.0175    -1.1399    -0.0042 N.1     
   2 C2             0.0021    -0.0041     0.0020 C.1     
   3 C3            -0.0173     1.4278     0.0099 C.ar    
   4 C4             1.1809     2.1448     0.0023 C.ar    
   5 C5             1.1589     3.5248     0.0100 C.ar    
   6 C6            -0.0463     4.2013     0.0256 C.ar    
   7 C7            -1.2443     3.4970     0.0333 C.ar    
   8 C8            -1.2338     2.1115     0.0194 C.ar    
   9 N9            -2.4636     4.1884     0.0491 N.pl3   
  10 N10           -3.7341     3.6102     0.1576 N.2     
  11 C11           -4.6278     4.5638     0.1376 C.2     
  12 C12           -3.9532     5.7946     0.0146 C.2     
  13 C13           -2.6158     5.5284    -0.0317 C.2     
  14 C14           -4.5828     7.1378    -0.0469 C.ar    
  15 C15           -5.9715     7.2742     0.0177 C.ar    
  16 C16           -6.5098     8.5484    -0.0434 C.ar    
  17 C17           -5.6635     9.6350    -0.1653 C.ar    
  18 N18           -4.3555     9.4747    -0.2244 N.ar    
  19 C19           -3.7979     8.2827    -0.1643 C.ar    
  20 H20            2.1245     1.6197    -0.0092 H       
  21 H21            2.0865     4.0778     0.0041 H       
  22 H22           -0.0570     5.2813     0.0323 H       
  23 H23           -2.1639     1.5626     0.0253 H       
  24 H24           -5.6976     4.4313     0.2032 H       
  25 H25           -1.8231     6.2561    -0.1232 H       
  26 H26           -6.6092     6.4077     0.1126 H       
  27 H27           -7.5792     8.6920     0.0034 H       
  28 H28           -6.0798    10.6304    -0.2132 H       
  29 H29           -2.7230     8.1917    -0.2156 H       
@<TRIPOS>BOND
   1    1    2 3
   2    2    3 1
   3    3    4 ar
   4    3    8 ar
   5    4    5 ar
   6    4   20 1
   7    5    6 ar
   8    5   21 1
   9    6    7 ar
  10    6   22 1
  11    7    8 ar
  12    7    9 1
  13    8   23 1
  14    9   10 1
  15    9   13 1
  16   10   11 2
  17   11   12 1
  18   11   24 1
  19   12   13 2
  20   12   14 1
  21   13   25 1
  22   14   15 ar
  23   14   19 ar
  24   15   16 ar
  25   15   26 1
  26   16   17 ar
  27   16   27 1
  28   17   18 ar
  29   17   28 1
  30   18   19 ar
  31   19   29 1

#	End of record

