#	Name: ASD03090023
#	Creating user name:	WinNT
#	Creation time:	15. 06. 2019 20:28

#	Modifying user name:	WinNT
#	Modification time:	15. 06. 2019 20:28

#	Program:	/corina/corina34_cracker 3.40 0067  02.08.2006

@<TRIPOS>MOLECULE
ASD03090023
  43   47    0    0    0
SMALL
NO_CHARGES


@<TRIPOS>ATOM
   1 C1            -0.4947     1.3322     0.9324 C.ar    
   2 C2            -0.3385    -0.0312     0.6669 C.ar    
   3 C3            -1.4891    -0.7843     0.4666 C.ar    
   4 C4            -2.7808    -0.3289     0.5672 C.ar    
   5 C5            -2.9210     1.0225     0.8285 C.ar    
   6 C6            -1.7996     1.8173     1.0038 C.ar    
   7 O7             0.5777     2.1475     1.1182 O.3     
   8 C8             0.3070     3.5253     1.3839 C.3     
   9 C9            -1.0417    -2.1938     0.1693 C.3     
  10 C10           -2.1145    -3.1325     0.6689 C.3     
  11 C11           -3.4443    -2.7051     0.0623 C.3     
  12 C12           -3.9037    -1.3066     0.4398 C.3     
  13 C13            0.3019    -2.2062     0.8911 C.3     
  14 C14            0.1016    -2.1970     2.4111 C.3     
  15 C15           -1.1340    -2.8731     2.8820 C.2     
  16 C16           -2.1354    -3.2529     2.1481 C.2     
  17 O17            0.7512    -0.8310     0.6027 O.3     
  18 C18           -0.9095    -2.3524    -1.3473 C.3     
  19 C19           -2.2691    -1.9891    -1.9631 C.3     
  20 N20           -3.3362    -2.8221    -1.4024 N.3     
  21 C21           -4.6232    -2.5352    -2.0499 C.3     
  22 O22            0.0693    -0.8387     2.8537 O.3     
  23 H23           -1.8843    -4.1202     0.2693 H       
  24 H24           -3.9067     1.4581     0.9001 H       
  25 H25           -1.9439     2.8701     1.1968 H       
  26 H26           -0.2460     3.9545     0.5483 H       
  27 H27           -0.2865     3.6100     2.2942 H       
  28 H28            1.2469     4.0622     1.5117 H       
  29 H29           -4.2073    -3.4117     0.3889 H       
  30 H30           -4.4329    -1.3573     1.3914 H       
  31 H31           -4.5948    -0.9478    -0.3229 H       
  32 H32            0.9749    -2.9915     0.5469 H       
  33 H33            0.9590    -2.6854     2.8742 H       
  34 H34           -1.2125    -3.0583     3.9431 H       
  35 H35           -2.9993    -3.6884     2.6281 H       
  36 H36           -0.1394    -1.6797    -1.7250 H       
  37 H37           -0.6550    -3.3837    -1.5917 H       
  38 H38           -2.4871    -0.9411    -1.7575 H       
  39 H39           -2.2258    -2.1404    -3.0417 H       
  40 H40           -4.8731    -1.4833    -1.9115 H       
  41 H41           -4.5508    -2.7544    -3.1151 H       
  42 H42           -5.4007    -3.1551    -1.6034 H       
  43 H43           -0.0546    -0.7386     3.8075 H       
@<TRIPOS>BOND
   1    1    2 ar
   2    1    7 1
   3    1    6 ar
   4    2    3 ar
   5    2   17 1
   6    3    4 ar
   7    3    9 1
   8    4    5 ar
   9    4   12 1
  10    5    6 ar
  11    5   24 1
  12    6   25 1
  13    7    8 1
  14    8   26 1
  15    8   27 1
  16    8   28 1
  17    9   10 1
  18    9   18 1
  19    9   13 1
  20   10   23 1
  21   10   11 1
  22   10   16 1
  23   11   12 1
  24   11   20 1
  25   11   29 1
  26   12   30 1
  27   12   31 1
  28   13   14 1
  29   13   17 1
  30   13   32 1
  31   14   15 1
  32   14   22 1
  33   14   33 1
  34   15   16 2
  35   15   34 1
  36   16   35 1
  37   18   19 1
  38   18   36 1
  39   18   37 1
  40   19   20 1
  41   19   38 1
  42   19   39 1
  43   20   21 1
  44   21   40 1
  45   21   41 1
  46   21   42 1
  47   22   43 1

#	End of record

