#	Name: ASD03910130
#	Creating user name:	WinNT
#	Creation time:	15. 06. 2019 20:47

#	Modifying user name:	WinNT
#	Modification time:	15. 06. 2019 20:47

#	Program:	/corina/corina34_cracker 3.40 0067  02.08.2006

@<TRIPOS>MOLECULE
ASD03910130
  53   55    0    0    0
SMALL
NO_CHARGES


@<TRIPOS>ATOM
   1 C1             0.0229     1.4139     0.0712 C.ar    
   2 N2            -0.0714     0.1005     0.0282 N.ar    
   3 C3             1.0059    -0.6723    -0.0470 C.ar    
   4 C4             2.2814    -0.1080    -0.0826 C.ar    
   5 C5             2.4083     1.2689    -0.0389 C.ar    
   6 C6             1.2557     2.0388     0.0391 C.ar    
   7 C7             0.8524    -2.1426    -0.0930 C.2     
   8 N8             0.1506    -2.8532    -1.0212 N.pl3   
   9 N9             0.2652    -4.2105    -0.6946 N.2     
  10 C10            1.0025    -4.3182     0.3817 C.2     
  11 C11            1.3928    -3.0411     0.7835 C.2     
  12 C12           -0.5904    -2.2970    -2.1560 C.3     
  13 C13            0.0579    -2.7573    -3.4632 C.3     
  14 C14           -2.0400    -2.7839    -2.1066 C.3     
  15 C15            3.5034    -0.9858    -0.1670 C.3     
  16 O16            4.6662    -0.1699    -0.3225 O.3     
  17 C17            5.8467    -0.8103    -0.5162 C.ar    
  18 C18            5.9187    -2.1942    -0.4420 C.ar    
  19 N19            7.0608    -2.8232    -0.6293 N.ar    
  20 C20            8.1842    -2.1779    -0.8945 C.ar    
  21 C21            8.2076    -0.7956    -0.9875 C.ar    
  22 C22            7.0162    -0.0825    -0.8013 C.ar    
  23 C23            6.9901     1.3860    -0.8960 C.2     
  24 O24            8.0086     1.9959    -1.1427 O.2     
  25 O25            9.3318    -2.8802    -1.0777 O.3     
  26 C26            9.2463    -4.3025    -0.9692 C.3     
  27 C27           10.6280    -4.9159    -1.2048 C.3     
  28 O28           11.5140    -4.5096    -0.1598 O.3     
  29 C29           12.8387    -5.0307    -0.2854 C.3     
  30 H30           -0.8754     2.0108     0.1277 H       
  31 H31            3.3824     1.7345    -0.0648 H       
  32 H32            1.3215     3.1162     0.0745 H       
  33 H33            1.2674    -5.2422     0.8742 H       
  34 H34            2.0108    -2.8041     1.6369 H       
  35 H35           -0.5708    -1.2084    -2.1044 H       
  36 H36           -0.4382    -2.2739    -4.3048 H       
  37 H37            1.1139    -2.4871    -3.4599 H       
  38 H38           -0.0400    -3.8389    -3.5562 H       
  39 H39           -2.5018    -2.4560    -1.1753 H       
  40 H40           -2.5913    -2.3701    -2.9510 H       
  41 H41           -2.0596    -3.8725    -2.1582 H       
  42 H42            3.5918    -1.5743     0.7462 H       
  43 H43            3.4118    -1.6547    -1.0228 H       
  44 H44            5.0261    -2.7632    -0.2274 H       
  45 H45            9.1294    -0.2762    -1.2041 H       
  46 H46            6.0636     1.9204    -0.7457 H       
  47 H47            8.8949    -4.5704     0.0272 H       
  48 H48            8.5481    -4.6824    -1.7150 H       
  49 H49           10.5469    -6.0028    -1.2102 H       
  50 H50           11.0177    -4.5758    -2.1642 H       
  51 H51           12.8034    -6.1200    -0.2718 H       
  52 H52           13.2742    -4.6930    -1.2259 H       
  53 H53           13.4488    -4.6765     0.5455 H       
@<TRIPOS>BOND
   1    1    2 ar
   2    1    6 ar
   3    1   30 1
   4    2    3 ar
   5    3    4 ar
   6    3    7 1
   7    4    5 ar
   8    4   15 1
   9    5    6 ar
  10    5   31 1
  11    6   32 1
  12    7    8 1
  13    7   11 2
  14    8    9 1
  15    8   12 1
  16    9   10 2
  17   10   11 1
  18   10   33 1
  19   11   34 1
  20   12   13 1
  21   12   14 1
  22   12   35 1
  23   13   36 1
  24   13   37 1
  25   13   38 1
  26   14   39 1
  27   14   40 1
  28   14   41 1
  29   15   16 1
  30   15   42 1
  31   15   43 1
  32   16   17 1
  33   17   18 ar
  34   17   22 ar
  35   18   19 ar
  36   18   44 1
  37   19   20 ar
  38   20   21 ar
  39   20   25 1
  40   21   22 ar
  41   21   45 1
  42   22   23 1
  43   23   24 2
  44   23   46 1
  45   25   26 1
  46   26   27 1
  47   26   47 1
  48   26   48 1
  49   27   28 1
  50   27   49 1
  51   27   50 1
  52   28   29 1
  53   29   51 1
  54   29   52 1
  55   29   53 1

#	End of record

