#	Name: ASD01040029
#	Creating user name:	WinNT
#	Creation time:	15. 06. 2019 18:58

#	Modifying user name:	WinNT
#	Modification time:	15. 06. 2019 18:58

#	Program:	/corina/corina34_cracker 3.40 0067  02.08.2006

@<TRIPOS>MOLECULE
ASD01040029
  37   39    0    0    0
SMALL
NO_CHARGES


@<TRIPOS>ATOM
   1 Cl1            2.0408     0.2214     3.3055 Cl      
   2 C2             0.7501     0.6672     2.2336 C.ar    
   3 C3            -0.1907     1.5950     2.6317 C.ar    
   4 C4            -1.2172     1.9552     1.7761 C.ar    
   5 C5            -1.3088     1.3892     0.5168 C.ar    
   6 C6            -0.3759     0.4608     0.1040 C.ar    
   7 C7             0.6639     0.0912     0.9614 C.ar    
   8 N8             1.5940    -0.8234     0.5578 N.2     
   9 C9             1.2087    -1.9847     0.0791 C.2     
  10 C10           -0.2167    -2.3696     0.1327 C.ar    
  11 C11           -0.9532    -2.1676     1.3025 C.ar    
  12 C12           -2.2820    -2.5279     1.3484 C.ar    
  13 C13           -2.8898    -3.0920     0.2334 C.ar    
  14 O14           -4.1997    -3.4462     0.2828 O.3     
  15 C15           -2.1609    -3.2941    -0.9322 C.ar    
  16 C16           -0.8332    -2.9312    -0.9881 C.ar    
  17 C17            2.2008    -2.9057    -0.5128 C.ar    
  18 C18            1.8299    -4.2080    -0.8564 C.ar    
  19 C19            2.7565    -5.0618    -1.4132 C.ar    
  20 C20            4.0585    -4.6293    -1.6333 C.ar    
  21 O21            4.9687    -5.4738    -2.1828 O.3     
  22 C22            4.4315    -3.3347    -1.2930 C.ar    
  23 C23            3.5109    -2.4747    -0.7357 C.ar    
  24 H24           -0.1260     2.0408     3.6133 H       
  25 H25           -1.9509     2.6815     2.0932 H       
  26 H26           -2.1132     1.6750    -0.1448 H       
  27 H27           -0.4493     0.0199    -0.8792 H       
  28 H28           -0.4814    -1.7299     2.1698 H       
  29 H29           -2.8521    -2.3721     2.2524 H       
  30 H30           -4.8075    -2.7436     0.0143 H       
  31 H31           -2.6370    -3.7325    -1.7968 H       
  32 H32           -0.2684    -3.0848    -1.8958 H       
  33 H33            0.8182    -4.5450    -0.6853 H       
  34 H34            2.4706    -6.0689    -1.6787 H       
  35 H35            5.0036    -5.4401    -3.1486 H       
  36 H36            5.4444    -3.0023    -1.4656 H       
  37 H37            3.8003    -1.4671    -0.4760 H       
@<TRIPOS>BOND
   1    1    2 1
   2    2    7 ar
   3    2    3 ar
   4    3   24 1
   5    3    4 ar
   6    4    5 ar
   7    4   25 1
   8    5    6 ar
   9    5   26 1
  10    6    7 ar
  11    6   27 1
  12    7    8 1
  13    8    9 2
  14    9   10 1
  15    9   17 1
  16   10   11 ar
  17   10   16 ar
  18   11   12 ar
  19   11   28 1
  20   12   13 ar
  21   12   29 1
  22   13   14 1
  23   13   15 ar
  24   14   30 1
  25   15   31 1
  26   15   16 ar
  27   16   32 1
  28   17   23 ar
  29   17   18 ar
  30   18   33 1
  31   18   19 ar
  32   19   20 ar
  33   19   34 1
  34   20   22 ar
  35   20   21 1
  36   21   35 1
  37   22   23 ar
  38   22   36 1
  39   23   37 1

#	End of record

