#	Name: ASD03380005
#	Creating user name:	WinNT
#	Creation time:	15. 06. 2019 20:40

#	Modifying user name:	WinNT
#	Modification time:	15. 06. 2019 20:40

#	Program:	/corina/corina34_cracker 3.40 0067  02.08.2006

@<TRIPOS>MOLECULE
ASD03380005
  61   62    0    0    0
SMALL
NO_CHARGES


@<TRIPOS>ATOM
   1 N1            -0.0178     1.4648     0.0101 N.3     
   2 C2             0.0021    -0.0041     0.0020 C.3     
   3 C3            -1.4074    -0.5262     0.1106 C.2     
   4 O4            -2.3433     0.1912    -0.1729 O.2     
   5 C5             0.6299    -0.4984    -1.3027 C.3     
   6 C6             2.0767    -0.0798    -1.3542 C.ar    
   7 C7             2.4237     1.1370    -1.9117 C.ar    
   8 C8             3.0543    -0.9106    -0.8387 C.ar    
   9 C9             3.7491     1.5232    -1.9596 C.ar    
  10 C10            4.3812    -0.5290    -0.8843 C.ar    
  11 C11            4.7325     0.6891    -1.4479 C.ar    
  12 O12            6.0371     1.0668    -1.4939 O.3     
  13 N13           -1.6279    -1.7903     0.5228 N.am    
  14 C14           -2.9981    -2.2978     0.6284 C.3     
  15 C15           -2.9893    -3.7990     0.4969 C.2     
  16 O16           -1.9416    -4.3871     0.3312 O.2     
  17 C17           -3.5829    -1.9084     1.9876 C.3     
  18 C18           -3.7076    -0.3858     2.0718 C.3     
  19 C19           -4.2836    -0.0023     3.4105 C.2     
  20 N20           -4.4844     1.2962     3.7107 N.am    
  21 O21           -4.5665    -0.8621     4.2178 O.2     
  22 N22           -4.1456    -4.4882     0.5633 N.am    
  23 C23           -4.1370    -5.9475     0.4354 C.3     
  24 C24           -3.8577    -6.5680     1.7801 C.2     
  25 O25           -3.6838    -5.8635     2.7461 O.2     
  26 C26           -5.4996    -6.4230    -0.0726 C.3     
  27 C27           -5.7252    -5.9018    -1.4685 C.ar    
  28 C28           -5.3173    -6.6472    -2.5589 C.ar    
  29 C29           -6.3450    -4.6809    -1.6586 C.ar    
  30 C30           -5.5241    -6.1690    -3.8393 C.ar    
  31 C31           -6.5519    -4.2028    -2.9391 C.ar    
  32 C32           -6.1392    -4.9458    -4.0293 C.ar    
  33 O33           -3.8023    -7.9034     1.9045 O.3     
  34 H34            0.9191     1.8392     0.0032 H       
  35 H35           -0.5563     1.8234    -0.7642 H       
  36 H36            0.5890    -0.3641     0.8470 H       
  37 H37            0.5644    -1.5855    -1.3484 H       
  38 H38            0.0963    -0.0663    -2.1493 H       
  39 H39            1.6578     1.7858    -2.3102 H       
  40 H40            2.7803    -1.8586    -0.3998 H       
  41 H41            4.0197     2.4736    -2.3955 H       
  42 H42            5.1445    -1.1783    -0.4815 H       
  43 H43            6.3308     1.5620    -0.7170 H       
  44 H44           -0.8794    -2.3640     0.7496 H       
  45 H45           -3.6074    -1.8670    -0.1661 H       
  46 H46           -4.5680    -2.3606     2.1023 H       
  47 H47           -2.9255    -2.2636     2.7812 H       
  48 H48           -2.7225     0.0663     1.9571 H       
  49 H49           -4.3650    -0.0307     1.2782 H       
  50 H50           -4.2581     1.9838     3.0651 H       
  51 H51           -4.8551     1.5431     4.5724 H       
  52 H52           -4.9836    -4.0178     0.6958 H       
  53 H53           -3.3618    -6.2458    -0.2704 H       
  54 H54           -5.5233    -7.5127    -0.0834 H       
  55 H55           -6.2836    -6.0491     0.5860 H       
  56 H56           -4.8367    -7.6029    -2.4104 H       
  57 H57           -6.6680    -4.1008    -0.8069 H       
  58 H58           -5.2048    -6.7510    -4.6912 H       
  59 H59           -7.0365    -3.2491    -3.0876 H       
  60 H60           -6.3005    -4.5721    -5.0297 H       
  61 H61           -3.6203    -8.2548     2.7868 H       
@<TRIPOS>BOND
   1    1    2 1
   2    1   34 1
   3    1   35 1
   4    2    5 1
   5    2    3 1
   6    2   36 1
   7    3    4 2
   8    3   13 am
   9    5    6 1
  10    5   37 1
  11    5   38 1
  12    6    8 ar
  13    6    7 ar
  14    7    9 ar
  15    7   39 1
  16    8   10 ar
  17    8   40 1
  18    9   11 ar
  19    9   41 1
  20   10   11 ar
  21   10   42 1
  22   11   12 1
  23   12   43 1
  24   13   14 1
  25   13   44 1
  26   14   15 1
  27   14   17 1
  28   14   45 1
  29   15   22 am
  30   15   16 2
  31   17   18 1
  32   17   46 1
  33   17   47 1
  34   18   19 1
  35   18   48 1
  36   18   49 1
  37   19   20 am
  38   19   21 2
  39   20   50 1
  40   20   51 1
  41   22   23 1
  42   22   52 1
  43   23   24 1
  44   23   26 1
  45   23   53 1
  46   24   33 1
  47   24   25 2
  48   26   27 1
  49   26   54 1
  50   26   55 1
  51   27   28 ar
  52   27   29 ar
  53   28   30 ar
  54   28   56 1
  55   29   31 ar
  56   29   57 1
  57   30   32 ar
  58   30   58 1
  59   31   32 ar
  60   31   59 1
  61   32   60 1
  62   33   61 1

#	End of record

