#	Name: ASD07300991
#	Creating user name:	WinNT
#	Creation time:	15. 06. 2019 21:10

#	Modifying user name:	WinNT
#	Modification time:	15. 06. 2019 21:10

#	Program:	/corina/corina34_cracker 3.40 0067  02.08.2006

@<TRIPOS>MOLECULE
ASD07300991
  30   31    0    0    0
SMALL
NO_CHARGES


@<TRIPOS>ATOM
   1 C1            -0.0165     1.4147     0.0503 C.2     
   2 C2             0.0021    -0.0041     0.0030 C.2     
   3 C3             1.2452    -0.6714    -0.0522 C.2     
   4 C4             2.3916     0.0602    -0.0586 C.2     
   5 N5             2.3387     1.4080    -0.0123 N.pl3   
   6 N6             1.1135     2.0798     0.0421 N.2     
   7 O7            -1.0436    -0.6393     0.0103 O.2     
   8 C8             3.5278     2.1442    -0.0187 C.ar    
   9 C9             3.4884     3.5298    -0.1153 C.ar    
  10 C10            4.6642     4.2536    -0.1209 C.ar    
  11 C11            5.8804     3.6009    -0.0310 C.ar    
  12 C12            5.9233     2.2221     0.0647 C.ar    
  13 C13            4.7507     1.4924     0.0771 C.ar    
  14 C14            4.6225     5.7564    -0.2255 C.3     
  15 F15            4.5603     6.3116     1.0571 F       
  16 F16            5.7752     6.2108    -0.8750 F       
  17 F17            3.4931     6.1418    -0.9557 F       
  18 O18            1.2956    -2.0299    -0.0980 O.3     
  19 C19            2.5915    -2.6296    -0.1524 C.3     
  20 N20           -1.2304     2.0976     0.0994 N.pl3   
  21 H21            3.3482    -0.4394    -0.1006 H       
  22 H22            2.5392     4.0400    -0.1861 H       
  23 H23            6.7986     4.1694    -0.0360 H       
  24 H24            6.8746     1.7156     0.1340 H       
  25 H25            4.7847     0.4158     0.1564 H       
  26 H26            2.4888    -3.7143    -0.1850 H       
  27 H27            3.1132    -2.2870    -1.0459 H       
  28 H28            3.1610    -2.3451     0.7324 H       
  29 H29           -2.0651     1.6035     0.1014 H       
  30 H30           -1.2405     3.0670     0.1317 H       
@<TRIPOS>BOND
   1    1    2 1
   2    1    6 2
   3    1   20 1
   4    2    3 1
   5    2    7 2
   6    3    4 2
   7    3   18 1
   8    4    5 1
   9    4   21 1
  10    5    6 1
  11    5    8 1
  12    8    9 ar
  13    8   13 ar
  14    9   10 ar
  15    9   22 1
  16   10   11 ar
  17   10   14 1
  18   11   12 ar
  19   11   23 1
  20   12   13 ar
  21   12   24 1
  22   13   25 1
  23   14   15 1
  24   14   16 1
  25   14   17 1
  26   18   19 1
  27   19   26 1
  28   19   27 1
  29   19   28 1
  30   20   29 1
  31   20   30 1

#	End of record

