#	Name: ASD01209100
#	Creating user name:	WinNT
#	Creation time:	15. 06. 2019 19:10

#	Modifying user name:	WinNT
#	Modification time:	15. 06. 2019 19:10

#	Program:	/corina/corina34_cracker 3.40 0067  02.08.2006

@<TRIPOS>MOLECULE
ASD01209100
  68   70    0    0    0
SMALL
NO_CHARGES


@<TRIPOS>ATOM
   1 C1            -0.7505     1.8927     0.0079 C.3     
   2 C2             1.9130    -0.8486    -3.6350 C.ar    
   3 S3            -0.5763     0.0872     0.0281 S.o2    
   4 O4             0.2370    -0.3231     1.1187 O.2     
   5 O5            -1.8266    -0.5373    -0.2290 O.2     
   6 C6             2.7418    -1.1601    -4.8545 C.3     
   7 C7             2.4775    -0.1266    -5.9189 C.2     
   8 N8             3.1997    -0.1312    -7.0568 N.am    
   9 O9             1.6148     0.7094    -5.7516 O.2     
  10 C10            2.3678    -2.5456    -5.3849 C.3     
  11 C11            2.7535    -3.6078    -4.3535 C.3     
  12 C12            2.2527    -4.9900    -4.8077 C.3     
  13 C13            3.5015    -5.8825    -4.9620 C.3     
  14 C14            4.5576    -5.2201    -4.0427 C.3     
  15 C15            4.2893    -3.7085    -4.2476 C.3     
  16 C16            2.5315    -0.6017    -2.4236 C.ar    
  17 C17            1.7713    -0.3163    -1.3049 C.ar    
  18 C18            0.3927    -0.2771    -1.3977 C.ar    
  19 C19           -0.2258    -0.5240    -2.6091 C.ar    
  20 C20            0.5346    -0.8042    -3.7290 C.ar    
  21 C21            2.8869     0.7537    -8.0821 C.2     
  22 N22            1.9246     1.6214    -8.0462 N.2     
  23 P23            3.7904     4.3221   -11.2754 P.3     
  24 O24            5.1510     3.8794   -10.8971 O.2     
  25 O25            3.2171     5.3180   -10.1477 O.3     
  26 O26            3.8496     5.0897   -12.6894 O.3     
  27 C27            4.7041     6.2090   -12.9322 C.3     
  28 C28            4.5122     6.6948   -14.3703 C.3     
  29 C29            1.7688     2.3854    -9.1112 C.2     
  30 C30            2.6412     2.1521   -10.0937 C.2     
  31 S31            3.7201     0.8611    -9.5712 S.3     
  32 C32            3.9066     6.4969    -9.7272 C.3     
  33 C33            3.0882     7.2087    -8.6481 C.3     
  34 C34            2.6966     2.8706   -11.4172 C.3     
  35 O35            1.3829     3.2981   -11.7826 O.3     
  36 H36            0.2361     2.3535     0.0578 H       
  37 H37           -1.2486     2.1994    -0.9118 H       
  38 H38           -1.3435     2.2102     0.8656 H       
  39 H39            3.7988    -1.1459    -4.5888 H       
  40 H40            3.9378    -0.7520    -7.1602 H       
  41 H41            1.2937    -2.5878    -5.5656 H       
  42 H42            2.9007    -2.7339    -6.3170 H       
  43 H43            2.3272    -3.3569    -3.3822 H       
  44 H44            1.5840    -5.4103    -4.0564 H       
  45 H45            1.7348    -4.9041    -5.7629 H       
  46 H46            3.2883    -6.8980    -4.6282 H       
  47 H47            3.8438    -5.8840    -5.9968 H       
  48 H48            4.3965    -5.5036    -3.0026 H       
  49 H49            5.5664    -5.4803    -4.3632 H       
  50 H50            4.7588    -3.3589    -5.1671 H       
  51 H51            4.6510    -3.1375    -3.3925 H       
  52 H52            3.6087    -0.6323    -2.3511 H       
  53 H53            2.2545    -0.1241    -0.3583 H       
  54 H54           -1.3030    -0.4937    -2.6815 H       
  55 H55            0.0514    -0.9971    -4.6754 H       
  56 H56            4.4543     7.0136   -12.2405 H       
  57 H57            5.7425     5.9122   -12.7844 H       
  58 H58            5.1639     7.5486   -14.5554 H       
  59 H59            4.7620     5.8902   -15.0619 H       
  60 H60            3.4738     6.9916   -14.5180 H       
  61 H61            0.9978     3.1383    -9.1817 H       
  62 H62            4.8810     6.2232    -9.3228 H       
  63 H63            4.0410     7.1628   -10.5797 H       
  64 H64            3.6141     8.1080    -8.3273 H       
  65 H65            2.1137     7.4825    -9.0525 H       
  66 H66            2.9538     6.5429    -7.7957 H       
  67 H67            3.0847     2.1964   -12.1807 H       
  68 H68            0.9748     3.9019   -11.1470 H       
@<TRIPOS>BOND
   1    1    3 1
   2    1   36 1
   3    1   37 1
   4    1   38 1
   5    2    6 1
   6    2   16 ar
   7    2   20 ar
   8    3    4 2
   9    3    5 2
  10    3   18 1
  11    6    7 1
  12    6   10 1
  13    6   39 1
  14    7    8 am
  15    7    9 2
  16    8   21 1
  17    8   40 1
  18   10   11 1
  19   10   41 1
  20   10   42 1
  21   11   12 1
  22   11   15 1
  23   11   43 1
  24   12   13 1
  25   12   44 1
  26   12   45 1
  27   13   14 1
  28   13   46 1
  29   13   47 1
  30   14   15 1
  31   14   48 1
  32   14   49 1
  33   15   50 1
  34   15   51 1
  35   16   17 ar
  36   16   52 1
  37   17   18 ar
  38   17   53 1
  39   18   19 ar
  40   19   20 ar
  41   19   54 1
  42   20   55 1
  43   21   22 2
  44   21   31 1
  45   22   29 1
  46   23   24 2
  47   23   25 1
  48   23   26 1
  49   23   34 1
  50   25   32 1
  51   26   27 1
  52   27   28 1
  53   27   56 1
  54   27   57 1
  55   28   58 1
  56   28   59 1
  57   28   60 1
  58   29   30 2
  59   29   61 1
  60   30   31 1
  61   30   34 1
  62   32   33 1
  63   32   62 1
  64   32   63 1
  65   33   64 1
  66   33   65 1
  67   33   66 1
  68   34   35 1
  69   34   67 1
  70   35   68 1

#	End of record

