#	Name: ASD07930386
#	Creating user name:	WinNT
#	Creation time:	15. 06. 2019 21:12

#	Modifying user name:	WinNT
#	Modification time:	15. 06. 2019 21:12

#	Program:	/corina/corina34_cracker 3.40 0067  02.08.2006

@<TRIPOS>MOLECULE
ASD07930386
  45   47    0    0    0
SMALL
NO_CHARGES


@<TRIPOS>ATOM
   1 N1            -0.0045     1.2783     0.0188 N.2     
   2 N2            -1.1649    -0.7501     0.0206 N.pl3   
   3 C3            -1.3888    -1.7859    -0.9933 C.3     
   4 C4            -0.2707    -2.8336    -0.9019 C.3     
   5 S5             1.3272    -1.9812    -1.0876 S.o2    
   6 N6             1.2045    -0.7295     0.0055 N.am    
   7 C7             0.0090    -0.0250     0.0153 C.2     
   8 C8             2.3043    -0.3899     0.9118 C.3     
   9 C9            -1.3801    -1.1493    -2.3846 C.3     
  10 C10           -2.7204    -2.4485    -0.7504 C.ar    
  11 C11           -3.7514    -1.7336    -0.1736 C.ar    
  12 C12           -4.9785    -2.3452     0.0500 C.ar    
  13 C13           -5.1640    -3.6742    -0.3076 C.ar    
  14 C14           -4.1285    -4.3836    -0.8842 C.ar    
  15 C15           -2.9101    -3.7703    -1.1106 C.ar    
  16 N16           -6.0245    -1.6243     0.6344 N.am    
  17 C17           -7.2973    -1.8592     0.2585 C.2     
  18 O18           -7.5293    -2.6264    -0.6552 O.2     
  19 C19           -8.4125    -1.1830     0.9583 C.ar    
  20 N20           -8.1521    -0.3462     1.9556 N.ar    
  21 C21           -9.1124     0.2750     2.6037 C.ar    
  22 C22          -10.4445     0.0763     2.2653 C.ar    
  23 C23          -10.7601    -0.7915     1.2276 C.ar    
  24 C24           -9.7262    -1.4264     0.5606 C.ar    
  25 F25          -11.4232     0.7198     2.9386 F       
  26 O26            2.3885    -2.7858    -0.5921 O.2     
  27 O27            1.4140    -1.3426    -2.3540 O.2     
  28 H28            0.8305     1.7721     0.0146 H       
  29 H29           -1.8427    -0.5724     0.6914 H       
  30 H30           -0.3115    -3.3309     0.0671 H       
  31 H31           -0.3898    -3.5685    -1.6981 H       
  32 H32            2.9545     0.3438     0.4352 H       
  33 H33            1.8996     0.0278     1.8337 H       
  34 H34            2.8771    -1.2885     1.1408 H       
  35 H35           -0.4159    -0.6722    -2.5598 H       
  36 H36           -1.5465    -1.9196    -3.1376 H       
  37 H37           -2.1717    -0.4027    -2.4474 H       
  38 H38           -3.6038    -0.7003     0.1038 H       
  39 H39           -6.1167    -4.1526    -0.1348 H       
  40 H40           -4.2721    -5.4172    -1.1626 H       
  41 H41           -2.1022    -4.3271    -1.5618 H       
  42 H42           -5.8341    -0.9551     1.3102 H       
  43 H43           -8.8621     0.9485     3.4101 H       
  44 H44          -11.7881    -0.9636     0.9447 H       
  45 H45           -9.9351    -2.1075    -0.2511 H       
@<TRIPOS>BOND
   1    1    7 2
   2    1   28 1
   3    2    3 1
   4    2    7 1
   5    2   29 1
   6    3    4 1
   7    3    9 1
   8    3   10 1
   9    4    5 1
  10    4   30 1
  11    4   31 1
  12    5    6 am
  13    5   26 2
  14    5   27 2
  15    6    7 1
  16    6    8 1
  17    8   32 1
  18    8   33 1
  19    8   34 1
  20    9   35 1
  21    9   36 1
  22    9   37 1
  23   10   11 ar
  24   10   15 ar
  25   11   12 ar
  26   11   38 1
  27   12   13 ar
  28   12   16 1
  29   13   14 ar
  30   13   39 1
  31   14   15 ar
  32   14   40 1
  33   15   41 1
  34   16   17 am
  35   16   42 1
  36   17   18 2
  37   17   19 1
  38   19   20 ar
  39   19   24 ar
  40   20   21 ar
  41   21   22 ar
  42   21   43 1
  43   22   23 ar
  44   22   25 1
  45   23   24 ar
  46   23   44 1
  47   24   45 1

#	End of record

