#	Name: ASD03330167
#	Creating user name:	WinNT
#	Creation time:	15. 06. 2019 20:36

#	Modifying user name:	WinNT
#	Modification time:	15. 06. 2019 20:36

#	Program:	/corina/corina34_cracker 3.40 0067  02.08.2006

@<TRIPOS>MOLECULE
ASD03330167
  85   90    0    0    0
SMALL
NO_CHARGES


@<TRIPOS>ATOM
   1 N1             0.0844     1.4012    -0.8449 N.am    
   2 C2             0.4297    -0.0250    -0.7703 C.3     
   3 C3             0.7708    -0.5240    -2.1779 C.3     
   4 C4             1.8694     0.3583    -2.7753 C.3     
   5 C5             1.3665     1.7997    -2.8825 C.3     
   6 C6             1.0321     2.3251    -1.4828 C.3     
   7 C7             3.0860     0.3158    -1.8869 C.2     
   8 O8             3.5867     1.3484    -1.4945 O.2     
   9 N9             3.6176    -0.8697    -1.5285 N.am    
  10 C10            2.2316    -0.1504    -4.1468 C.ar    
  11 C11            3.1427     0.5418    -4.9224 C.ar    
  12 C12            3.4749     0.0752    -6.1805 C.ar    
  13 C13            2.8963    -1.0838    -6.6628 C.ar    
  14 C14            1.9858    -1.7766    -5.8869 C.ar    
  15 C15            1.6569    -1.3123    -4.6270 C.ar    
  16 C16           -1.0821     1.8525    -0.3427 C.2     
  17 O17           -1.9873     1.0725    -0.1112 O.2     
  18 C18           -1.2604     3.2823    -0.0754 C.2     
  19 C19           -2.4378     3.8705     0.2777 C.2     
  20 C20           -2.3639     5.2332     0.4787 C.2     
  21 C21           -1.1097     5.7665     0.2875 C.2     
  22 S22            0.0144     4.4896    -0.1558 S.3     
  23 C23           -3.5359     6.0536     0.8677 C.ar    
  24 C24           -4.6961     6.0250     0.0951 C.ar    
  25 C25           -5.7847     6.7894     0.4597 C.ar    
  26 C26           -5.7258     7.5870     1.5943 C.ar    
  27 C27           -4.5722     7.6178     2.3658 C.ar    
  28 C28           -3.4823     6.8511     2.0102 C.ar    
  29 O29           -6.7999     8.3398     1.9504 O.3     
  30 C30           -6.6711     9.1373     3.1291 C.3     
  31 C31           -7.9709     9.9084     3.3677 C.3     
  32 C32           -7.8330    10.7623     4.6297 C.3     
  33 O33           -9.0469    11.4826     4.8525 O.3     
  34 C34           -9.0238    12.3157     6.0133 C.3     
  35 C35          -10.3190    13.1287     6.0841 C.3     
  36 C36          -10.3131    13.9737     7.3617 C.3     
  37 C37          -10.1398    13.0497     8.5711 C.3     
  38 C38           -8.8515    12.2397     8.4042 C.3     
  39 O39           -8.9096    11.5014     7.1821 O.3     
  40 C40           -0.7605     7.1923     0.4371 C.ar    
  41 C41            0.3240     7.5700     1.2348 C.ar    
  42 C42            0.6442     8.9060     1.3697 C.ar    
  43 C43           -0.1053     9.8695     0.7183 C.ar    
  44 C44           -1.1800     9.5023    -0.0722 C.ar    
  45 C45           -1.5080     8.1708    -0.2219 C.ar    
  46 Cl46           1.2646     6.3624     2.0536 Cl      
  47 H47            1.2915    -0.1586    -0.1164 H       
  48 H48           -0.4188    -0.5864    -0.3792 H       
  49 H49            1.1214    -1.5547    -2.1235 H       
  50 H50           -0.1180    -0.4742    -2.8069 H       
  51 H51            2.1410     2.4229    -3.3296 H       
  52 H52            0.4721     1.8276    -3.5048 H       
  53 H53            0.5811     3.3142    -1.5619 H       
  54 H54            1.9430     2.3831    -0.8871 H       
  55 H55            3.2629    -1.6925    -1.9001 H       
  56 H56            4.3550    -0.9001    -0.8991 H       
  57 H57            3.5948     1.4474    -4.5456 H       
  58 H58            4.1862     0.6164    -6.7868 H       
  59 H59            3.1553    -1.4480    -7.6461 H       
  60 H60            1.5335    -2.6820    -6.2638 H       
  61 H61            0.9484    -1.8555    -4.0193 H       
  62 H62           -3.3563     3.3138     0.3910 H       
  63 H63           -4.7423     5.4052    -0.7882 H       
  64 H64           -6.6837     6.7677    -0.1384 H       
  65 H65           -4.5295     8.2397     3.2477 H       
  66 H66           -2.5866     6.8721     2.6133 H       
  67 H67           -6.4693     8.4921     3.9841 H       
  68 H68           -5.8487     9.8415     3.0032 H       
  69 H69           -8.1727    10.5537     2.5127 H       
  70 H70           -8.7933     9.2042     3.4935 H       
  71 H71           -7.6312    10.1171     5.4847 H       
  72 H72           -7.0106    11.4665     4.5039 H       
  73 H73           -8.1718    12.9933     5.9575 H       
  74 H74          -10.3864    13.7830     5.2150 H       
  75 H75          -11.1735    12.4521     6.0989 H       
  76 H76           -9.4876    14.6846     7.3248 H       
  77 H77          -11.2566    14.5127     7.4468 H       
  78 H78          -10.0790    13.6476     9.4805 H       
  79 H79          -10.9907    12.3715     8.6361 H       
  80 H80           -7.9973    12.9164     8.3799 H       
  81 H81           -8.7451    11.5496     9.2412 H       
  82 H82            1.4815     9.1999     1.9854 H       
  83 H83            0.1494    10.9133     0.8276 H       
  84 H84           -1.7607    10.2601    -0.5773 H       
  85 H85           -2.3442     7.8860    -0.8432 H       
@<TRIPOS>BOND
   1    1    2 1
   2    1    6 1
   3    1   16 am
   4    2    3 1
   5    2   47 1
   6    2   48 1
   7    3    4 1
   8    3   49 1
   9    3   50 1
  10    4    5 1
  11    4    7 1
  12    4   10 1
  13    5    6 1
  14    5   51 1
  15    5   52 1
  16    6   53 1
  17    6   54 1
  18    7    8 2
  19    7    9 am
  20    9   55 1
  21    9   56 1
  22   10   11 ar
  23   10   15 ar
  24   11   12 ar
  25   11   57 1
  26   12   13 ar
  27   12   58 1
  28   13   14 ar
  29   13   59 1
  30   14   15 ar
  31   14   60 1
  32   15   61 1
  33   16   17 2
  34   16   18 1
  35   18   19 2
  36   18   22 1
  37   19   20 1
  38   19   62 1
  39   20   21 2
  40   20   23 1
  41   21   22 1
  42   21   40 1
  43   23   24 ar
  44   23   28 ar
  45   24   25 ar
  46   24   63 1
  47   25   26 ar
  48   25   64 1
  49   26   27 ar
  50   26   29 1
  51   27   28 ar
  52   27   65 1
  53   28   66 1
  54   29   30 1
  55   30   31 1
  56   30   67 1
  57   30   68 1
  58   31   32 1
  59   31   69 1
  60   31   70 1
  61   32   33 1
  62   32   71 1
  63   32   72 1
  64   33   34 1
  65   34   35 1
  66   34   39 1
  67   34   73 1
  68   35   36 1
  69   35   74 1
  70   35   75 1
  71   36   37 1
  72   36   76 1
  73   36   77 1
  74   37   38 1
  75   37   78 1
  76   37   79 1
  77   38   39 1
  78   38   80 1
  79   38   81 1
  80   40   41 ar
  81   40   45 ar
  82   41   42 ar
  83   41   46 1
  84   42   43 ar
  85   42   82 1
  86   43   44 ar
  87   43   83 1
  88   44   45 ar
  89   44   84 1
  90   45   85 1

#	End of record

