#	Name: ASD01028622
#	Creating user name:	WinNT
#	Creation time:	15. 06. 2019 18:57

#	Modifying user name:	WinNT
#	Modification time:	15. 06. 2019 18:57

#	Program:	/corina/corina34_cracker 3.40 0067  02.08.2006

@<TRIPOS>MOLECULE
ASD01028622
  44   48    0    0    0
SMALL
NO_CHARGES


@<TRIPOS>ATOM
   1 C1            -0.0164     1.3589     0.0095 C.2     
   2 N2             0.0021    -0.0041     0.0020 N.pl3   
   3 C3             1.1492     2.0644     0.0022 C.2     
   4 C4             2.3911     1.3836    -0.0134 C.2     
   5 C5             2.4121     0.0246    -0.0209 C.2     
   6 C6             1.1931    -0.6868    -0.0131 C.2     
   7 N7             0.8956    -1.9761    -0.0176 N.2     
   8 N8            -0.3827    -2.1220    -0.0063 N.2     
   9 C9            -0.9723    -0.9543     0.0062 C.2     
  10 C10           -3.7523    -0.5213    -2.0860 C.ar    
  11 C11           -3.0826    -1.3168    -1.2068 C.ar    
  12 C12           -2.9661    -2.6872    -1.4284 C.ar    
  13 C13           -3.5172    -3.2703    -2.5279 C.ar    
  14 C14           -4.2168    -2.4826    -3.4583 C.ar    
  15 C15           -4.3343    -1.0888    -3.2306 C.ar    
  16 N16           -4.7691    -3.0274    -4.5471 N.ar    
  17 C17           -5.4228    -2.2972    -5.4176 C.ar    
  18 C18           -5.5751    -0.9219    -5.2539 C.ar    
  19 C19           -5.0352    -0.3014    -4.1636 C.ar    
  20 C20            1.1175     3.5436     0.0100 C.2     
  21 C21           -2.4587    -0.7065     0.0218 C.3     
  22 F22            3.5888    -0.6390    -0.0353 F       
  23 C23           -3.0686    -1.3421     1.2728 C.3     
  24 C24            1.5684     4.3920     0.9963 C.2     
  25 C25            1.4021     5.7260     0.7150 C.2     
  26 N26            0.8537     6.0569    -0.4163 N.2     
  27 S27            0.4976     4.6233    -1.2516 S.3     
  28 C28            1.8446     6.7817     1.6952 C.3     
  29 H29           -0.9608     1.8828     0.0168 H       
  30 H30            3.3161     1.9411    -0.0196 H       
  31 H31           -3.8394     0.5392    -1.9014 H       
  32 H32           -2.4296    -3.2968    -0.7164 H       
  33 H33           -3.4171    -4.3341    -2.6850 H       
  34 H34           -5.8545    -2.7743    -6.2850 H       
  35 H35           -6.1189    -0.3470    -5.9889 H       
  36 H36           -5.1434     0.7637    -4.0210 H       
  37 H37           -2.6481     0.3669     0.0305 H       
  38 H38           -4.1437    -1.1629     1.2840 H       
  39 H39           -2.8793    -2.4155     1.2641 H       
  40 H40           -2.6174    -0.9007     2.1614 H       
  41 H41            2.0149     4.0383     1.9139 H       
  42 H42            2.8785     7.0585     1.4890 H       
  43 H43            1.2066     7.6599     1.5960 H       
  44 H44            1.7687     6.3902     2.7097 H       
@<TRIPOS>BOND
   1    1    2 1
   2    1    3 2
   3    1   29 1
   4    2    6 1
   5    2    9 1
   6    3    4 1
   7    3   20 1
   8    4    5 2
   9    4   30 1
  10    5    6 1
  11    5   22 1
  12    6    7 2
  13    7    8 1
  14    8    9 2
  15    9   21 1
  16   10   11 ar
  17   10   15 ar
  18   10   31 1
  19   11   12 ar
  20   11   21 1
  21   12   13 ar
  22   12   32 1
  23   13   14 ar
  24   13   33 1
  25   14   15 ar
  26   14   16 ar
  27   15   19 ar
  28   16   17 ar
  29   17   18 ar
  30   17   34 1
  31   18   19 ar
  32   18   35 1
  33   19   36 1
  34   20   24 2
  35   20   27 1
  36   21   23 1
  37   21   37 1
  38   23   38 1
  39   23   39 1
  40   23   40 1
  41   24   25 1
  42   24   41 1
  43   25   26 2
  44   25   28 1
  45   26   27 1
  46   28   42 1
  47   28   43 1
  48   28   44 1

#	End of record

