#	Name: ASD04590273
#	Creating user name:	WinNT
#	Creation time:	15. 06. 2019 20:50

#	Modifying user name:	WinNT
#	Modification time:	15. 06. 2019 20:50

#	Program:	/corina/corina34_cracker 3.40 0067  02.08.2006

@<TRIPOS>MOLECULE
ASD04590273
  40   43    0    0    0
SMALL
NO_CHARGES


@<TRIPOS>ATOM
   1 C1            -0.0167     1.3832     0.0096 C.ar    
   2 C2             0.0021    -0.0041     0.0020 C.ar    
   3 C3             1.1969    -0.6870    -0.0126 C.ar    
   4 C4             2.4020     0.0223    -0.0204 C.ar    
   5 C5             2.3769     1.4283    -0.0131 C.ar    
   6 C6             1.1624     2.0986     0.0022 C.ar    
   7 N7             3.7040    -0.3552    -0.0345 N.2     
   8 C8             4.4709     0.7083    -0.0364 C.2     
   9 N9             3.6969     1.8375    -0.0234 N.pl3   
  10 C10            5.9482     0.6906    -0.0508 C.2     
  11 C11            6.7657    -0.4631    -0.0653 C.2     
  12 C12            8.0579    -0.0540    -0.0759 C.2     
  13 N13            8.0646     1.3050    -0.0686 N.pl3   
  14 N14            6.7361     1.7480    -0.0582 N.2     
  15 N15            6.3187    -1.7945    -0.0674 N.am    
  16 C16            7.2107    -2.8047    -0.0819 C.2     
  17 C17            6.7420    -4.2011    -0.0841 C.ar    
  18 O18            8.4029    -2.5633    -0.0932 O.2     
  19 C19            6.5110    -4.8633    -1.2965 C.ar    
  20 C20            6.0719    -6.1712    -1.2921 C.ar    
  21 C21            5.8589    -6.8314    -0.0883 C.ar    
  22 C22            6.0858    -6.1797     1.1176 C.ar    
  23 F23            6.7173    -4.2225    -2.4678 F       
  24 C24            6.5309    -4.8738     1.1261 C.ar    
  25 F25            6.7570    -4.2434     2.2994 F       
  26 O26            5.4269    -8.1180    -0.0903 O.3     
  27 C27            5.2280    -8.7375     1.1819 C.3     
  28 H28           -0.9614     1.9066     0.0170 H       
  29 H29           -0.9283    -0.5525     0.0080 H       
  30 H30            1.2037    -1.7669    -0.0178 H       
  31 H31            1.1403     3.1784     0.0075 H       
  32 H32            4.0156     2.7537    -0.0215 H       
  33 H33            8.9276    -0.6942    -0.0876 H       
  34 H34            8.8529     1.8702    -0.0729 H       
  35 H35            5.3681    -1.9869    -0.0584 H       
  36 H36            5.8931    -6.6828    -2.2263 H       
  37 H37            5.9181    -6.6980     2.0502 H       
  38 H38            6.1683    -8.7451     1.7333 H       
  39 H39            4.4809    -8.1787     1.7454 H       
  40 H40            4.8833    -9.7614     1.0375 H       
@<TRIPOS>BOND
   1    1    2 ar
   2    1    6 ar
   3    1   28 1
   4    2    3 ar
   5    2   29 1
   6    3    4 ar
   7    3   30 1
   8    4    5 ar
   9    4    7 1
  10    5    6 ar
  11    5    9 1
  12    6   31 1
  13    7    8 2
  14    8    9 1
  15    8   10 1
  16    9   32 1
  17   10   11 1
  18   10   14 2
  19   11   12 2
  20   11   15 1
  21   12   13 1
  22   12   33 1
  23   13   14 1
  24   13   34 1
  25   15   16 am
  26   15   35 1
  27   16   17 1
  28   16   18 2
  29   17   24 ar
  30   17   19 ar
  31   19   20 ar
  32   19   23 1
  33   20   21 ar
  34   20   36 1
  35   21   22 ar
  36   21   26 1
  37   22   24 ar
  38   22   37 1
  39   24   25 1
  40   26   27 1
  41   27   38 1
  42   27   39 1
  43   27   40 1

#	End of record

