#	Name: ASD01180184
#	Creating user name:	WinNT
#	Creation time:	15. 06. 2019 19:06

#	Modifying user name:	WinNT
#	Modification time:	15. 06. 2019 19:06

#	Program:	/corina/corina34_cracker 3.40 0067  02.08.2006

@<TRIPOS>MOLECULE
ASD01180184
  61   63    0    0    0
SMALL
NO_CHARGES


@<TRIPOS>ATOM
   1 C1             0.7900     1.4272     0.9422 C.ar    
   2 C2             0.6489     0.0623     0.7942 C.ar    
   3 C3             1.7755    -0.7356     0.6055 C.ar    
   4 C4             3.0392    -0.1500     0.5673 C.ar    
   5 C5             3.1687     1.2160     0.7164 C.ar    
   6 C6             2.0470     2.0033     0.9035 C.ar    
   7 C7             1.6300    -2.2038     0.4463 C.ar    
   8 C8             2.7566    -3.0017     0.2576 C.ar    
   9 C9             2.6155    -4.3667     0.1100 C.ar    
  10 C10            1.3586    -4.9428     0.1487 C.ar    
  11 C11            0.2368    -4.1555     0.3358 C.ar    
  12 C12            0.3668    -2.7902     0.4907 C.ar    
  13 C13            1.2108    -6.4337    -0.0140 C.3     
  14 C14            1.0314    -7.0814     1.3604 C.3     
  15 N15            0.0393    -6.7204    -0.8456 N.pl3   
  16 C16            0.1330    -6.6406    -2.2247 C.ar    
  17 N17           -0.9552    -6.8045    -2.9645 N.ar    
  18 C18           -0.9135    -6.7372    -4.2789 C.ar    
  19 C19            0.2914    -6.4889    -4.9379 C.ar    
  20 C20            1.4590    -6.3114    -4.1796 C.ar    
  21 C21            1.3690    -6.3835    -2.8159 C.ar    
  22 C22            0.3373    -6.4146    -6.4108 C.2     
  23 N23           -0.7897    -6.5870    -7.1296 N.am    
  24 O24            1.3917    -6.1979    -6.9760 O.2     
  25 C25           -0.7442    -6.5132    -8.5920 C.3     
  26 C26           -2.1470    -6.7425    -9.1582 C.3     
  27 C27           -2.1001    -6.6666   -10.6625 C.2     
  28 O28           -3.2225    -6.8383   -11.3784 O.3     
  29 O29           -1.0523    -6.4512   -11.2242 O.2     
  30 C30            0.9936    -8.6031     1.2061 C.3     
  31 C31            2.3533    -9.0993     0.7101 C.3     
  32 C32            0.6787    -9.2453     2.5586 C.3     
  33 H33           -0.0829     2.0471     1.0840 H       
  34 H34           -0.3329    -0.3866     0.8250 H       
  35 H35            3.9158    -0.7638     0.4217 H       
  36 H36            4.1478     1.6710     0.6870 H       
  37 H37            2.1529     3.0718     1.0198 H       
  38 H38            3.7384    -2.5528     0.2265 H       
  39 H39            3.4881    -4.9861    -0.0363 H       
  40 H40           -0.7422    -4.6105     0.3652 H       
  41 H41           -0.5097    -2.1763     0.6366 H       
  42 H42            2.1033    -6.8372    -0.4922 H       
  43 H43            1.8647    -6.8022     2.0052 H       
  44 H44            0.0972    -6.7380     1.8048 H       
  45 H45           -0.8021    -6.9660    -0.4301 H       
  46 H46           -1.8187    -6.8755    -4.8515 H       
  47 H47            2.4061    -6.1179    -4.6611 H       
  48 H48            2.2489    -6.2514    -2.2038 H       
  49 H49           -1.6309    -6.7599    -6.6787 H       
  50 H50           -0.3864    -5.5293    -8.8952 H       
  51 H51           -0.0687    -7.2789    -8.9736 H       
  52 H52           -2.5048    -7.7264    -8.8550 H       
  53 H53           -2.8224    -5.9768    -8.7766 H       
  54 H54           -3.1427    -6.7807   -12.3404 H       
  55 H55            0.2224    -8.8763     0.4858 H       
  56 H56            2.3062   -10.1742     0.5355 H       
  57 H57            2.6085    -8.5910    -0.2197 H       
  58 H58            3.1139    -8.8863     1.4613 H       
  59 H59           -0.2899    -8.8918     2.9119 H       
  60 H60            0.6518   -10.3294     2.4486 H       
  61 H61            1.4499    -8.9722     3.2788 H       
@<TRIPOS>BOND
   1    1    2 ar
   2    1    6 ar
   3    1   33 1
   4    2    3 ar
   5    2   34 1
   6    3    4 ar
   7    3    7 1
   8    4    5 ar
   9    4   35 1
  10    5    6 ar
  11    5   36 1
  12    6   37 1
  13    7    8 ar
  14    7   12 ar
  15    8    9 ar
  16    8   38 1
  17    9   10 ar
  18    9   39 1
  19   10   11 ar
  20   10   13 1
  21   11   12 ar
  22   11   40 1
  23   12   41 1
  24   13   14 1
  25   13   15 1
  26   13   42 1
  27   14   30 1
  28   14   43 1
  29   14   44 1
  30   15   16 1
  31   15   45 1
  32   16   17 ar
  33   16   21 ar
  34   17   18 ar
  35   18   19 ar
  36   18   46 1
  37   19   20 ar
  38   19   22 1
  39   20   21 ar
  40   20   47 1
  41   21   48 1
  42   22   23 am
  43   22   24 2
  44   23   25 1
  45   23   49 1
  46   25   26 1
  47   25   50 1
  48   25   51 1
  49   26   27 1
  50   26   52 1
  51   26   53 1
  52   27   28 1
  53   27   29 2
  54   28   54 1
  55   30   31 1
  56   30   32 1
  57   30   55 1
  58   31   56 1
  59   31   57 1
  60   31   58 1
  61   32   59 1
  62   32   60 1
  63   32   61 1

#	End of record

