#	Name: ASD01209261
#	Creating user name:	WinNT
#	Creation time:	15. 06. 2019 19:11

#	Modifying user name:	WinNT
#	Modification time:	15. 06. 2019 19:11

#	Program:	/corina/corina34_cracker 3.40 0067  02.08.2006

@<TRIPOS>MOLECULE
ASD01209261
  72   75    0    0    0
SMALL
NO_CHARGES


@<TRIPOS>ATOM
   1 C1            -0.0728     1.4434     0.0405 C.3     
   2 C2            -0.2332    -0.0551     0.0341 C.ar    
   3 C3            -0.8343    -0.6813    -1.0418 C.ar    
   4 C4            -0.9815    -2.0557    -1.0476 C.ar    
   5 C5            -0.5272    -2.8041     0.0222 C.ar    
   6 C6             0.0747    -2.1780     1.0976 C.ar    
   7 C7             0.2258    -0.8039     1.1015 C.ar    
   8 S8            -0.7159    -4.5559     0.0153 S.o2    
   9 O9            -0.7468    -4.9105     1.3910 O.2     
  10 O10           -1.8385    -4.7841    -0.8255 O.2     
  11 C11            0.8007    -5.1714    -0.7669 C.3     
  12 C12            0.8984    -6.6750    -1.0327 C.3     
  13 C13            0.6920    -5.7041    -2.1970 C.3     
  14 C14            1.3905     1.7915     0.1335 C.2     
  15 O15            2.2134     0.9150     0.2931 O.2     
  16 N16            1.7847     3.0769     0.0395 N.am    
  17 C17            3.1225     3.4085     0.2193 C.2     
  18 C18            5.6014     6.0785     0.2980 C.3     
  19 P19            5.6054     6.8248     1.9612 P.3     
  20 O20            6.2103     5.8784     2.9251 O.2     
  21 O21            6.4634     8.1869     1.9362 O.3     
  22 C22            6.7422     8.9528     3.1099 C.3     
  23 C23            7.5755    10.1793     2.7326 C.3     
  24 O24            4.0931     7.1512     2.4067 O.3     
  25 C25            3.7534     7.6468     3.7033 C.3     
  26 C26            2.2393     7.8475     3.7919 C.3     
  27 C27           -0.8142     2.0305     1.2431 C.3     
  28 C28           -2.3151     1.7753     1.0913 C.3     
  29 C29           -3.0447     2.2429     2.3544 C.3     
  30 C30           -4.5520     2.0565     2.1621 C.3     
  31 O31           -4.9775     2.7849     1.0086 O.3     
  32 C32           -4.3636     2.3591    -0.2096 C.3     
  33 C33           -2.8487     2.5577    -0.1126 C.3     
  34 N34            3.6055     4.6094     0.1504 N.2     
  35 C35            4.9036     4.7437     0.3481 C.2     
  36 C36            5.5481     3.6018     0.5959 C.2     
  37 S37            4.3693     2.2927     0.5709 S.3     
  38 H38           -0.4869     1.8570    -0.8790 H       
  39 H39           -1.1892    -0.0966    -1.8776 H       
  40 H40           -1.4517    -2.5449    -1.8879 H       
  41 H41            0.4293    -2.7626     1.9336 H       
  42 H42            0.6961    -0.3147     1.9418 H       
  43 H43            1.7168    -4.6483    -0.4926 H       
  44 H44            1.8788    -7.1409    -0.9337 H       
  45 H45            0.0513    -7.2943    -0.7376 H       
  46 H46           -0.2909    -5.6846    -2.6679 H       
  47 H47            1.5366    -5.5313    -2.8640 H       
  48 H48            1.1348     3.7706    -0.1537 H       
  49 H49            5.0768     6.7369    -0.3944 H       
  50 H50            6.6282     5.9392    -0.0403 H       
  51 H51            5.8055     9.2757     3.5641 H       
  52 H52            7.2981     8.3403     3.8198 H       
  53 H53            7.7882    10.7635     3.6279 H       
  54 H54            8.5123     9.8563     2.2784 H       
  55 H55            7.0196    10.7917     2.0226 H       
  56 H56            4.0699     6.9297     4.4607 H       
  57 H57            4.2566     8.5989     3.8716 H       
  58 H58            1.9228     8.5645     3.0345 H       
  59 H59            1.7361     6.8953     3.6236 H       
  60 H60            1.9801     8.2255     4.7809 H       
  61 H61           -0.4558     1.5573     2.1573 H       
  62 H62           -0.6315     3.1039     1.2939 H       
  63 H63           -2.4905     0.7099     0.9422 H       
  64 H64           -2.7106     1.6527     3.2076 H       
  65 H65           -2.8277     3.2963     2.5315 H       
  66 H66           -4.7729     0.9979     2.0253 H       
  67 H67           -5.0792     2.4273     3.0411 H       
  68 H68           -4.5820     1.3045    -0.3774 H       
  69 H69           -4.7550     2.9480    -1.0391 H       
  70 H70           -2.6277     3.6175     0.0148 H       
  71 H71           -2.3744     2.1927    -1.0235 H       
  72 H72            6.6067     3.4986     0.7834 H       
@<TRIPOS>BOND
   1    1    2 1
   2    1   14 1
   3    1   27 1
   4    1   38 1
   5    2    3 ar
   6    2    7 ar
   7    3    4 ar
   8    3   39 1
   9    4    5 ar
  10    4   40 1
  11    5    6 ar
  12    5    8 1
  13    6    7 ar
  14    6   41 1
  15    7   42 1
  16    8    9 2
  17    8   10 2
  18    8   11 1
  19   11   12 1
  20   11   13 1
  21   11   43 1
  22   12   13 1
  23   12   44 1
  24   12   45 1
  25   13   46 1
  26   13   47 1
  27   14   15 2
  28   14   16 am
  29   16   17 1
  30   16   48 1
  31   17   34 2
  32   17   37 1
  33   18   19 1
  34   18   35 1
  35   18   49 1
  36   18   50 1
  37   19   20 2
  38   19   21 1
  39   19   24 1
  40   21   22 1
  41   22   23 1
  42   22   51 1
  43   22   52 1
  44   23   53 1
  45   23   54 1
  46   23   55 1
  47   24   25 1
  48   25   26 1
  49   25   56 1
  50   25   57 1
  51   26   58 1
  52   26   59 1
  53   26   60 1
  54   27   28 1
  55   27   61 1
  56   27   62 1
  57   28   29 1
  58   28   33 1
  59   28   63 1
  60   29   30 1
  61   29   64 1
  62   29   65 1
  63   30   31 1
  64   30   66 1
  65   30   67 1
  66   31   32 1
  67   32   33 1
  68   32   68 1
  69   32   69 1
  70   33   70 1
  71   33   71 1
  72   34   35 1
  73   35   36 2
  74   36   37 1
  75   36   72 1

#	End of record

