#	Name: ASD00880001
#	Creating user name:	WinNT
#	Creation time:	15. 06. 2019 18:53

#	Modifying user name:	WinNT
#	Modification time:	15. 06. 2019 18:53

#	Program:	/corina/corina34_cracker 3.40 0067  02.08.2006

@<TRIPOS>MOLECULE
ASD00880001
  31   31    0    0    0
SMALL
NO_CHARGES


@<TRIPOS>ATOM
   1 C1             1.0640    -0.4407     0.7519 C.ar    
   2 C2             0.0033    -0.0063    -0.0217 C.ar    
   3 C3             0.1285     1.1337    -0.7943 C.ar    
   4 C4             1.3141     1.8420    -0.7957 C.ar    
   5 C5             2.3812     1.4084    -0.0199 C.ar    
   6 C6             2.2522     0.2633     0.7551 C.ar    
   7 N7             3.5840     2.1235    -0.0195 N.am    
   8 C8             3.5687     3.4678    -0.1139 C.2     
   9 C9             4.8553     4.2453    -0.0079 C.3     
  10 C10           -1.2915    -0.7773    -0.0233 C.3     
  11 F11           -2.1283    -0.2854     0.9843 F       
  12 F12           -1.9201    -0.6305    -1.2645 F       
  13 F13           -1.0282    -2.1315     0.2089 F       
  14 O14            2.5195     4.0520    -0.2841 O.2     
  15 C15            5.5025     3.9775     1.3524 C.3     
  16 C16            5.8090     3.8074    -1.1214 C.3     
  17 C17            4.5609     5.7402    -0.1473 C.3     
  18 Cl18           6.1002     6.6703    -0.0205 Cl      
  19 H19            0.9617    -1.3290     1.3576 H       
  20 H20           -0.7018     1.4704    -1.3974 H       
  21 H21            1.4115     2.7319    -1.3998 H       
  22 H22            3.0801    -0.0763     1.3598 H       
  23 H23            4.4287     1.6516     0.0487 H       
  24 H24            5.7122     2.9125     1.4516 H       
  25 H25            6.4331     4.5398     1.4290 H       
  26 H26            4.8231     4.2895     2.1456 H       
  27 H27            5.3479     3.9981    -2.0905 H       
  28 H28            6.7396     4.3697    -1.0448 H       
  29 H29            6.0187     2.7423    -1.0221 H       
  30 H30            4.0999     5.9309    -1.1164 H       
  31 H31            3.8815     6.0521     0.6460 H       
@<TRIPOS>BOND
   1    1    2 ar
   2    1    6 ar
   3    1   19 1
   4    2    3 ar
   5    2   10 1
   6    3    4 ar
   7    3   20 1
   8    4    5 ar
   9    4   21 1
  10    5    6 ar
  11    5    7 1
  12    6   22 1
  13    7    8 am
  14    7   23 1
  15    8    9 1
  16    8   14 2
  17    9   15 1
  18    9   16 1
  19    9   17 1
  20   10   11 1
  21   10   12 1
  22   10   13 1
  23   15   24 1
  24   15   25 1
  25   15   26 1
  26   16   27 1
  27   16   28 1
  28   16   29 1
  29   17   18 1
  30   17   30 1
  31   17   31 1

#	End of record

