#	Name: ASD01811569
#	Creating user name:	WinNT
#	Creation time:	15. 06. 2019 19:27

#	Modifying user name:	WinNT
#	Modification time:	15. 06. 2019 19:27

#	Program:	/corina/corina34_cracker 3.40 0067  02.08.2006

@<TRIPOS>MOLECULE
ASD01811569
  37   36    0    0    0
SMALL
NO_CHARGES


@<TRIPOS>ATOM
   1 Si1           -0.0200     1.6268     0.0110 Si      
   2 O2             0.0021    -0.0041     0.0020 O.3     
   3 C3             0.6734    -0.5824     1.1231 C.3     
   4 C4             0.6327    -2.1077     1.0107 C.3     
   5 C5             1.3406    -2.7177     2.1930 C.2     
   6 C6             0.7216    -3.5912     2.9479 C.2     
   7 Si7            1.5992    -4.3472     4.4134 Si      
   8 C8             3.3257    -3.6566     4.5275 C.3     
   9 C9             0.6643    -3.9429     5.9734 C.3     
  10 C10            1.6827    -6.1962     4.2011 C.3     
  11 C11            1.7277     2.2716    -0.0022 C.3     
  12 C12           -0.9211     2.2439    -1.4983 C.3     
  13 C13           -0.8920     2.2276     1.5438 C.3     
  14 H14            1.7103    -0.2468     1.1385 H       
  15 H15            0.1775    -0.2725     2.0430 H       
  16 H16           -0.4042    -2.4434     0.9953 H       
  17 H17            1.1285    -2.4176     0.0908 H       
  18 H18            2.3583    -2.4346     2.4179 H       
  19 H19           -0.2961    -3.8742     2.7230 H       
  20 H20            3.2768    -2.5748     4.6517 H       
  21 H21            3.8377    -4.0977     5.3826 H       
  22 H22            3.8726    -3.8931     3.6148 H       
  23 H23           -0.3458    -4.3469     5.9067 H       
  24 H24            1.1764    -4.3840     6.8285 H       
  25 H25            0.6154    -2.8611     6.0976 H       
  26 H26            2.2297    -6.4327     3.2885 H       
  27 H27            2.1948    -6.6373     5.0563 H       
  28 H28            0.6726    -6.6002     4.1344 H       
  29 H29            2.2379     1.9201    -0.8990 H       
  30 H30            1.7130     3.3615     0.0038 H       
  31 H31            2.2549     1.9105     0.8808 H       
  32 H32           -1.9437     1.8666    -1.4906 H       
  33 H33           -0.9359     3.3338    -1.4923 H       
  34 H34           -0.4109     1.8924    -2.3951 H       
  35 H35           -0.3649     1.8665     2.4268 H       
  36 H36           -0.9068     3.3175     1.5498 H       
  37 H37           -1.9146     1.8503     1.5515 H       
@<TRIPOS>BOND
   1    1    2 1
   2    1   11 1
   3    1   12 1
   4    1   13 1
   5    2    3 1
   6    3    4 1
   7    3   14 1
   8    3   15 1
   9    4    5 1
  10    4   16 1
  11    4   17 1
  12    5    6 2
  13    5   18 1
  14    6    7 1
  15    6   19 1
  16    7    8 1
  17    7    9 1
  18    7   10 1
  19    8   20 1
  20    8   21 1
  21    8   22 1
  22    9   23 1
  23    9   24 1
  24    9   25 1
  25   10   26 1
  26   10   27 1
  27   10   28 1
  28   11   29 1
  29   11   30 1
  30   11   31 1
  31   12   32 1
  32   12   33 1
  33   12   34 1
  34   13   35 1
  35   13   36 1
  36   13   37 1

#	End of record

