#	Name: ASD01180235
#	Creating user name:	WinNT
#	Creation time:	15. 06. 2019 19:07

#	Modifying user name:	WinNT
#	Modification time:	15. 06. 2019 19:07

#	Program:	/corina/corina34_cracker 3.40 0067  02.08.2006

@<TRIPOS>MOLECULE
ASD01180235
  52   54    0    0    0
SMALL
NO_CHARGES


@<TRIPOS>ATOM
   1 C1             0.6746     1.7664     0.0026 C.2     
   2 C2             0.5485     0.3006     0.0351 C.ar    
   3 C3             1.6909    -0.5150    -0.0320 C.ar    
   4 C4             1.5260    -1.8725     0.0014 C.ar    
   5 C5             0.2403    -2.4037     0.1001 C.ar    
   6 N6            -0.8221    -1.6119     0.1619 N.ar    
   7 C7            -0.7086    -0.3008     0.1388 C.ar    
   8 O8             1.7800     2.2835    -0.0833 O.co2   
   9 O9            -0.3264     2.4679     0.0565 O.co2   
  10 N10            0.0705    -3.7762     0.1336 N.pl3   
  11 C11            1.2224    -4.6616    -0.0545 C.3     
  12 C12            1.9110    -4.8955     1.2916 C.3     
  13 C13            3.1767    -5.7284     1.0790 C.3     
  14 C14            4.1875    -4.9209     0.2623 C.3     
  15 C15            0.7561    -5.9800    -0.6161 C.ar    
  16 C16            1.5020    -6.6155    -1.5924 C.ar    
  17 C17            1.0798    -7.8231    -2.1102 C.ar    
  18 C18           -0.1004    -8.4021    -1.6477 C.ar    
  19 C19           -0.8479    -7.7574    -0.6640 C.ar    
  20 C20           -0.4132    -6.5529    -0.1493 C.ar    
  21 C21           -0.5597    -9.6997    -2.2009 C.ar    
  22 C22           -1.7410   -10.2712    -1.7325 C.ar    
  23 C23           -2.1566   -11.4822    -2.2581 C.ar    
  24 C24           -1.3763   -12.0827    -3.2361 C.ar    
  25 C25           -0.2153   -11.4595    -3.6544 C.ar    
  26 N26            0.1549   -10.3038    -3.1412 N.ar    
  27 C27           -1.7903   -13.4017    -3.8361 C.3     
  28 F28           -2.5977   -13.1720    -4.9553 F       
  29 F29           -0.6513   -14.1167    -4.2215 F       
  30 F30           -2.5063   -14.1408    -2.8883 F       
  31 C31            3.7863    -6.0853     2.4362 C.3     
  32 H32            2.6764    -0.0800    -0.1085 H       
  33 H33            2.3837    -2.5269    -0.0487 H       
  34 H34           -1.5942     0.3149     0.1956 H       
  35 H35           -0.8113    -4.1523     0.2816 H       
  36 H36            1.9261    -4.2001    -0.7473 H       
  37 H37            2.1777    -3.9361     1.7349 H       
  38 H38            1.2333    -5.4282     1.9587 H       
  39 H39            2.9240    -6.6430     0.5425 H       
  40 H40            3.7453    -4.6479    -0.6958 H       
  41 H41            4.4569    -4.0170     0.8088 H       
  42 H42            5.0805    -5.5223     0.0922 H       
  43 H43            2.4164    -6.1657    -1.9503 H       
  44 H44            1.6628    -8.3183    -2.8727 H       
  45 H45           -1.7633    -8.2016    -0.3020 H       
  46 H46           -0.9892    -6.0546     0.6165 H       
  47 H47           -2.3239    -9.7764    -0.9698 H       
  48 H48           -3.0677   -11.9496    -1.9146 H       
  49 H49            0.3943   -11.9241    -4.4154 H       
  50 H50            3.0662    -6.6606     3.0180 H       
  51 H51            4.6880    -6.6787     2.2847 H       
  52 H52            4.0391    -5.1707     2.9727 H       
@<TRIPOS>BOND
   1    1    2 1
   2    1    8 ar
   3    1    9 ar
   4    2    3 ar
   5    2    7 ar
   6    3    4 ar
   7    3   32 1
   8    4    5 ar
   9    4   33 1
  10    5    6 ar
  11    5   10 1
  12    6    7 ar
  13    7   34 1
  14   10   11 1
  15   10   35 1
  16   11   12 1
  17   11   15 1
  18   11   36 1
  19   12   13 1
  20   12   37 1
  21   12   38 1
  22   13   14 1
  23   13   31 1
  24   13   39 1
  25   14   40 1
  26   14   41 1
  27   14   42 1
  28   15   16 ar
  29   15   20 ar
  30   16   17 ar
  31   16   43 1
  32   17   18 ar
  33   17   44 1
  34   18   19 ar
  35   18   21 1
  36   19   20 ar
  37   19   45 1
  38   20   46 1
  39   21   22 ar
  40   21   26 ar
  41   22   23 ar
  42   22   47 1
  43   23   24 ar
  44   23   48 1
  45   24   25 ar
  46   24   27 1
  47   25   26 ar
  48   25   49 1
  49   27   28 1
  50   27   29 1
  51   27   30 1
  52   31   50 1
  53   31   51 1
  54   31   52 1

#	End of record

