#	Name: ASD00070067
#	Creating user name:	WinNT
#	Creation time:	15. 06. 2019 18:30

#	Modifying user name:	WinNT
#	Modification time:	15. 06. 2019 18:30

#	Program:	/corina/corina34_cracker 3.40 0067  02.08.2006

@<TRIPOS>MOLECULE
ASD00070067
  69   73    0    0    0
SMALL
NO_CHARGES


@<TRIPOS>ATOM
   1 C1            -0.0167     1.3781     0.0096 C.ar    
   2 C2             0.0021    -0.0041     0.0020 C.ar    
   3 C3             1.2084    -0.6789    -0.0132 C.ar    
   4 C4             2.3960     0.0285    -0.0212 C.ar    
   5 C5             2.3773     1.4107    -0.0145 C.ar    
   6 C6             1.1709     2.0855     0.0021 C.ar    
   7 S7            -1.5544     2.2383     0.0216 S.o2    
   8 O8            -1.2971     3.5278    -0.5171 O.2     
   9 O9            -2.5173     1.3465    -0.5231 O.2     
  10 N10           -1.9747     2.4690     1.6067 N.am    
  11 C11           -1.1515     3.3237     2.4658 C.3     
  12 C12           -2.0500     4.0693     3.4546 C.3     
  13 C13           -1.1903     4.9619     4.3518 C.3     
  14 C14           -0.1904     4.0979     5.1229 C.3     
  15 C15            0.7081     3.3523     4.1341 C.3     
  16 C16           -0.1516     2.4597     3.2369 C.3     
  17 C17            0.6693     4.9905     6.0202 C.3     
  18 C18            1.5832     4.1176     6.8826 C.3     
  19 N19            2.4086     4.9746     7.7441 N.3     
  20 C20            3.1239     4.1777     8.7489 C.3     
  21 C21            3.8556     5.1112     9.7159 C.3     
  22 C22            4.8414     5.9807     8.9306 C.3     
  23 C23            4.0778     6.7638     7.8591 C.3     
  24 C24            3.3397     5.7823     6.9459 C.3     
  25 O25            8.8800     7.5851    10.8772 O.3     
  26 C26            9.2484     6.8549     9.6948 C.3     
  27 C27            7.9638     6.0556     9.3715 C.3     
  28 C28            6.8910     6.9150    10.0118 C.ar    
  29 C29            7.5342     7.7904    10.8778 C.ar    
  30 C30            5.5218     6.9437     9.8691 C.ar    
  31 C31            4.7707     7.8576    10.5875 C.ar    
  32 C32            5.4001     8.7390    11.4466 C.ar    
  33 C33            6.7717     8.7098    11.5934 C.ar    
  34 H34           -0.9258    -0.5567     0.0083 H       
  35 H35            1.2231    -1.7588    -0.0184 H       
  36 H36            3.3385    -0.4987    -0.0324 H       
  37 H37            3.3051     1.9634    -0.0205 H       
  38 H38            1.1563     3.1654     0.0077 H       
  39 H39           -2.7659     2.0382     1.9663 H       
  40 H40           -0.6113     4.0439     1.8513 H       
  41 H41           -2.7624     4.6848     2.9052 H       
  42 H42           -2.5902     3.3491     4.0690 H       
  43 H43           -0.6501     5.6821     3.7374 H       
  44 H44           -1.8304     5.4931     5.0562 H       
  45 H45           -0.7306     3.3777     5.7374 H       
  46 H46            1.2483     4.0725     3.5197 H       
  47 H47            1.4205     2.7368     4.6835 H       
  48 H48           -0.6918     1.7395     3.8514 H       
  49 H49            0.4885     1.9285     2.5325 H       
  50 H50            1.2763     5.6511     5.4010 H       
  51 H51            0.0237     5.5877     6.6641 H       
  52 H52            0.9762     3.4570     7.5017 H       
  53 H53            2.2287     3.5204     6.2386 H       
  54 H54            2.4109     3.5671     9.3030 H       
  55 H55            3.8467     3.5306     8.2519 H       
  56 H56            3.1320     5.7491    10.2234 H       
  57 H57            4.3991     4.5191    10.4522 H       
  58 H58            5.5883     5.3454     8.4546 H       
  59 H59            3.3577     7.4277     8.3374 H       
  60 H60            4.7800     7.3524     7.2687 H       
  61 H61            4.0615     5.1277     6.4573 H       
  62 H62            2.7834     6.3373     6.1904 H       
  63 H63            9.4940     7.5369     8.8807 H       
  64 H64           10.0806     6.1817     9.9004 H       
  65 H65            7.8121     5.9810     8.2947 H       
  66 H66            7.9950     5.0665     9.8285 H       
  67 H67            3.6966     7.8823    10.4770 H       
  68 H68            4.8151     9.4544    12.0055 H       
  69 H69            7.2555     9.4017    12.2669 H       
@<TRIPOS>BOND
   1    1    2 ar
   2    1    6 ar
   3    1    7 1
   4    2    3 ar
   5    2   34 1
   6    3    4 ar
   7    3   35 1
   8    4    5 ar
   9    4   36 1
  10    5    6 ar
  11    5   37 1
  12    6   38 1
  13    7    8 2
  14    7    9 2
  15    7   10 am
  16   10   11 1
  17   10   39 1
  18   11   12 1
  19   11   16 1
  20   11   40 1
  21   12   13 1
  22   12   41 1
  23   12   42 1
  24   13   14 1
  25   13   43 1
  26   13   44 1
  27   14   15 1
  28   14   17 1
  29   14   45 1
  30   15   16 1
  31   15   46 1
  32   15   47 1
  33   16   48 1
  34   16   49 1
  35   17   18 1
  36   17   50 1
  37   17   51 1
  38   18   19 1
  39   18   52 1
  40   18   53 1
  41   19   20 1
  42   19   24 1
  43   20   21 1
  44   20   54 1
  45   20   55 1
  46   21   22 1
  47   21   56 1
  48   21   57 1
  49   22   23 1
  50   22   30 1
  51   22   58 1
  52   23   24 1
  53   23   59 1
  54   23   60 1
  55   24   61 1
  56   24   62 1
  57   25   26 1
  58   25   29 1
  59   26   27 1
  60   26   63 1
  61   26   64 1
  62   27   28 1
  63   27   65 1
  64   27   66 1
  65   28   29 ar
  66   28   30 ar
  67   29   33 ar
  68   30   31 ar
  69   31   32 ar
  70   31   67 1
  71   32   33 ar
  72   32   68 1
  73   33   69 1

#	End of record

