#	Name: ASD05250053
#	Creating user name:	WinNT
#	Creation time:	15. 06. 2019 20:58

#	Modifying user name:	WinNT
#	Modification time:	15. 06. 2019 20:58

#	Program:	/corina/corina34_cracker 3.40 0067  02.08.2006

@<TRIPOS>MOLECULE
ASD05250053
  34   36    0    0    0
SMALL
NO_CHARGES


@<TRIPOS>ATOM
   1 C1            -0.0187     1.5258     0.0104 C.3     
   2 C2             0.0021    -0.0041     0.0020 C.3     
   3 O3             0.5662    -0.4660    -1.2270 O.3     
   4 C4            -1.4266    -0.5342     0.1385 C.3     
   5 O5            -1.9907    -0.0723     1.3675 O.3     
   6 C6            -1.4059    -2.0641     0.1301 C.3     
   7 C7            -2.8413    -2.5937     0.1410 C.3     
   8 C8             3.1863     1.1338    -2.8205 C.2     
   9 N9             2.2738     2.1543    -2.5555 N.3     
  10 C10            2.1967     2.2479    -1.1355 C.2     
  11 C11            3.3949     2.7309    -0.6980 C.2     
  12 C12            4.2135     2.9307    -1.9748 C.3     
  13 N13            4.3835     1.5355    -2.4920 N.2     
  14 N14            3.3492     2.8261     0.6526 N.pl3   
  15 C15            1.3951     2.0474    -0.0003 C.2     
  16 C16            2.1212     2.4074     1.0807 C.2     
  17 O17            5.3818     3.7488    -1.8869 O.3     
  18 N18            3.0895     3.3586    -2.8983 N.3     
  19 H19           -0.5459     1.8868    -0.8726 H       
  20 H20           -0.5289     1.8773     0.9072 H       
  21 H21            0.6044    -0.3639     0.8362 H       
  22 H22            0.0804    -0.1829    -2.0137 H       
  23 H23           -2.0289    -0.1745    -0.6956 H       
  24 H24           -1.5049    -0.3554     2.1543 H       
  25 H25           -0.8957    -2.4156    -0.7667 H       
  26 H26           -0.8787    -2.4252     1.0132 H       
  27 H27           -2.8265    -3.6836     0.1350 H       
  28 H28           -3.3514    -2.2421     1.0378 H       
  29 H29           -3.3684    -2.2326    -0.7421 H       
  30 H30            2.9408     0.1643    -3.2282 H       
  31 H31            4.0695     3.1394     1.2217 H       
  32 H32            1.7879     2.3707     2.1073 H       
  33 H33            5.8609     3.8413    -2.7218 H       
  34 H34            3.3844     3.3330    -3.8629 H       
@<TRIPOS>BOND
   1    1    2 1
   2    1   15 1
   3    1   19 1
   4    1   20 1
   5    2    3 1
   6    2    4 1
   7    2   21 1
   8    3   22 1
   9    4    5 1
  10    4    6 1
  11    4   23 1
  12    5   24 1
  13    6    7 1
  14    6   25 1
  15    6   26 1
  16    7   27 1
  17    7   28 1
  18    7   29 1
  19    8    9 1
  20    8   13 2
  21    8   30 1
  22    9   10 1
  23    9   18 1
  24   10   11 2
  25   10   15 1
  26   11   12 1
  27   11   14 1
  28   12   13 1
  29   12   17 1
  30   12   18 1
  31   14   16 1
  32   14   31 1
  33   15   16 2
  34   16   32 1
  35   17   33 1
  36   18   34 1

#	End of record

