#	Name: ASD03430283
#	Creating user name:	WinNT
#	Creation time:	15. 06. 2019 20:40

#	Modifying user name:	WinNT
#	Modification time:	15. 06. 2019 20:40

#	Program:	/corina/corina34_cracker 3.40 0067  02.08.2006

@<TRIPOS>MOLECULE
ASD03430283
  56   61    0    0    0
SMALL
NO_CHARGES


@<TRIPOS>ATOM
   1 C1             0.0670     1.4383    -0.6569 C.ar    
   2 C2             0.1162     0.0784    -0.8982 C.ar    
   3 C3             1.2928    -0.6163    -0.7157 C.ar    
   4 C4             2.4415     0.0370    -0.2764 C.ar    
   5 C5             2.3887     1.4069    -0.0395 C.ar    
   6 C6             1.2077     2.1032    -0.2292 C.ar    
   7 O7             3.4806    -0.8331    -0.1340 O.3     
   8 C8             1.6698    -2.0602    -0.9120 C.3     
   9 C9             3.2043    -2.0305    -0.8858 C.3     
  10 C10            0.3438    -3.9038    -0.5078 C.ar    
  11 C11            1.1087    -2.9488     0.1579 C.ar    
  12 C12            1.1449    -2.6141    -2.2055 C.2     
  13 N13            0.3854    -3.6808    -1.8861 N.am    
  14 O14            1.3616    -2.1854    -3.3192 O.2     
  15 C15            1.2158    -2.9699     1.5302 C.ar    
  16 C16            0.5611    -3.9452     2.2618 C.ar    
  17 C17           -0.2007    -4.8981     1.6114 C.ar    
  18 C18           -0.3113    -4.8813     0.2363 C.ar    
  19 C19           -0.3146    -4.5102    -2.8701 C.3     
  20 C20           -1.7159    -3.9445    -3.1094 C.3     
  21 C21           -2.4610    -4.8104    -4.1437 C.3     
  22 C22           -3.7278    -5.2905    -3.3944 C.3     
  23 C23           -3.8477    -4.2451    -2.2564 C.3     
  24 O24           -2.4752    -3.9875    -1.8897 O.3     
  25 O25            1.1649     3.4414     0.0038 O.3     
  26 C26           -0.1110     4.0770    -0.0972 C.3     
  27 C27           -0.4114     4.4682    -1.5594 C.3     
  28 C28           -0.1022     5.4444     0.6356 C.3     
  29 C29           -1.2118     6.2136    -0.1238 C.3     
  30 N30           -1.0709     5.7867    -1.5322 N.3     
  31 H31           -0.8543     1.9822    -0.8049 H       
  32 H32           -0.7701    -0.4418    -1.2305 H       
  33 H33            3.2731     1.9292     0.2943 H       
  34 H34            3.6072    -1.9550    -1.8957 H       
  35 H35            3.5997    -2.9083    -0.3747 H       
  36 H36            1.8117    -2.2248     2.0363 H       
  37 H37            0.6454    -3.9621     3.3384 H       
  38 H38           -0.7114    -5.6594     2.1824 H       
  39 H39           -0.9081    -5.6291    -0.2647 H       
  40 H40            0.2422    -4.5101    -3.8072 H       
  41 H41           -0.3939    -5.5305    -2.4947 H       
  42 H42           -1.6446    -2.9177    -3.4682 H       
  43 H43           -2.7354    -4.2140    -5.0138 H       
  44 H44           -1.8482    -5.6614    -4.4411 H       
  45 H45           -4.6009    -5.2579    -4.0461 H       
  46 H46           -3.5838    -6.2920    -2.9890 H       
  47 H47           -4.3251    -3.3351    -2.6199 H       
  48 H48           -4.3995    -4.6584    -1.4121 H       
  49 H49           -0.8946     3.4303     0.2975 H       
  50 H50            0.5182     4.5301    -2.1252 H       
  51 H51           -1.0749     3.7310    -2.0117 H       
  52 H52           -0.3600     5.3251     1.6879 H       
  53 H53            0.8622     5.9403     0.5253 H       
  54 H54           -2.1944     5.9387     0.2595 H       
  55 H55           -1.0564     7.2889    -0.0359 H       
  56 H56           -0.5463     6.4644    -2.0648 H       
@<TRIPOS>BOND
   1    1    2 ar
   2    1    6 ar
   3    1   31 1
   4    2    3 ar
   5    2   32 1
   6    3    4 ar
   7    3    8 1
   8    4    5 ar
   9    4    7 1
  10    5    6 ar
  11    5   33 1
  12    6   25 1
  13    7    9 1
  14    8    9 1
  15    8   11 1
  16    8   12 1
  17    9   34 1
  18    9   35 1
  19   10   11 ar
  20   10   13 1
  21   10   18 ar
  22   11   15 ar
  23   12   13 am
  24   12   14 2
  25   13   19 1
  26   15   16 ar
  27   15   36 1
  28   16   17 ar
  29   16   37 1
  30   17   18 ar
  31   17   38 1
  32   18   39 1
  33   19   20 1
  34   19   40 1
  35   19   41 1
  36   20   21 1
  37   20   24 1
  38   20   42 1
  39   21   22 1
  40   21   43 1
  41   21   44 1
  42   22   23 1
  43   22   45 1
  44   22   46 1
  45   23   24 1
  46   23   47 1
  47   23   48 1
  48   25   26 1
  49   26   27 1
  50   26   28 1
  51   26   49 1
  52   27   30 1
  53   27   50 1
  54   27   51 1
  55   28   29 1
  56   28   52 1
  57   28   53 1
  58   29   30 1
  59   29   54 1
  60   29   55 1
  61   30   56 1

#	End of record

