#	Name: ASD01001284
#	Creating user name:	WinNT
#	Creation time:	15. 06. 2019 18:55

#	Modifying user name:	WinNT
#	Modification time:	15. 06. 2019 18:55

#	Program:	/corina/corina34_cracker 3.40 0067  02.08.2006

@<TRIPOS>MOLECULE
ASD01001284
  24   26    0    0    0
SMALL
NO_CHARGES


@<TRIPOS>ATOM
   1 C1            -0.0158     1.3170     0.0093 C.ar    
   2 N2             0.0021    -0.0041     0.0020 N.ar    
   3 C3             1.1228    -0.6962    -0.0124 C.ar    
   4 C4             2.3525    -0.0489    -0.0206 C.ar    
   5 C5             2.3697     1.3569    -0.0132 C.ar    
   6 C6             1.1564     2.0433     0.0020 C.ar    
   7 N7             3.6592    -0.4981    -0.0355 N.pl3   
   8 C8             4.5345     0.5729    -0.0381 C.ar    
   9 C9             3.7845     1.7593    -0.0246 C.ar    
  10 C10            5.9245     0.6457    -0.0510 C.ar    
  11 C11            6.5515     1.8725    -0.0503 C.ar    
  12 C12            5.8093     3.0438    -0.0365 C.ar    
  13 C13            4.4326     2.9931    -0.0245 C.ar    
  14 C14            8.0568     1.9421    -0.0643 C.3     
  15 F15            8.5101     1.9707    -1.3876 F       
  16 F16            8.4763     3.1011     0.5974 F       
  17 F17            8.5816     0.8190     0.5842 F       
  18 H18           -0.9630     1.8359     0.0166 H       
  19 H19            1.0857    -1.7755    -0.0175 H       
  20 H20            1.1349     3.1231     0.0076 H       
  21 H21            3.9246    -1.4310    -0.0427 H       
  22 H22            6.5121    -0.2604    -0.0611 H       
  23 H23            6.3123     3.9995    -0.0358 H       
  24 H24            3.8572     3.9069    -0.0135 H       
@<TRIPOS>BOND
   1    1    2 ar
   2    1    6 ar
   3    1   18 1
   4    2    3 ar
   5    3    4 ar
   6    3   19 1
   7    4    5 ar
   8    4    7 1
   9    5    6 ar
  10    5    9 1
  11    6   20 1
  12    7    8 1
  13    7   21 1
  14    8    9 ar
  15    8   10 ar
  16    9   13 ar
  17   10   11 ar
  18   10   22 1
  19   11   12 ar
  20   11   14 1
  21   12   13 ar
  22   12   23 1
  23   13   24 1
  24   14   15 1
  25   14   16 1
  26   14   17 1

#	End of record

