#	Name: ASD01917135
#	Creating user name:	WinNT
#	Creation time:	15. 06. 2019 20:08

#	Modifying user name:	WinNT
#	Modification time:	15. 06. 2019 20:08

#	Program:	/corina/corina34_cracker 3.40 0067  02.08.2006

@<TRIPOS>MOLECULE
ASD01917135
  45   48    0    0    0
SMALL
NO_CHARGES


@<TRIPOS>ATOM
   1 C1            -0.0157     1.3036     0.0092 C.2     
   2 N2             0.0021    -0.0041     0.0020 N.2     
   3 C3            -1.2527    -0.4742     0.0115 C.2     
   4 N4            -2.0847     0.5437     0.0249 N.2     
   5 N5            -1.2993     1.7079     0.0295 N.pl3   
   6 C6            -1.6394    -1.9070     0.0070 C.ar    
   7 C7            -0.6581    -2.8960    -0.0076 C.ar    
   8 C8            -1.0233    -4.2270    -0.0117 C.ar    
   9 C9            -2.3607    -4.5798    -0.0014 C.ar    
  10 C10           -3.3390    -3.6021     0.0127 C.ar    
  11 C11           -2.9850    -2.2681     0.0232 C.ar    
  12 Br12           1.5015     2.4323     0.0008 Br      
  13 C13           -1.7824     3.0909     0.0437 C.3     
  14 C14           -1.9398     3.5534     1.4694 C.2     
  15 N15           -2.3754     4.8022     1.7285 N.am    
  16 C16           -2.5361     5.2737     3.1124 C.3     
  17 C17           -2.6967     5.7318     0.6349 C.3     
  18 C18           -1.9573     7.0507     0.8841 C.3     
  19 N19           -2.2784     7.5414     2.2310 N.3     
  20 C20           -1.8034     6.6115     3.2590 C.3     
  21 O21           -1.6747     2.8017     2.3835 O.2     
  22 C22           -1.7601     8.8086     2.4338 C.ar    
  23 N23           -1.9548     9.4081     3.5992 N.ar    
  24 C24           -1.4729    10.6190     3.8255 C.ar    
  25 C25           -0.7576    11.2597     2.8261 C.ar    
  26 C26           -0.5725    10.6039     1.6191 C.ar    
  27 N27           -1.0764     9.3912     1.4598 N.ar    
  28 H28            0.3865    -2.6216    -0.0161 H       
  29 H29           -0.2635    -4.9944    -0.0234 H       
  30 H30           -2.6421    -5.6225    -0.0047 H       
  31 H31           -4.3818    -3.8831     0.0200 H       
  32 H32           -3.7497    -1.5055     0.0342 H       
  33 H33           -1.0650     3.7317    -0.4689 H       
  34 H34           -2.7453     3.1447    -0.4641 H       
  35 H35           -3.5950     5.4101     3.3321 H       
  36 H36           -2.1077     4.5443     3.7998 H       
  37 H37           -2.3743     5.3051    -0.3149 H       
  38 H38           -3.7712     5.9130     0.6123 H       
  39 H39           -0.8828     6.8862     0.8035 H       
  40 H40           -2.2693     7.7879     0.1444 H       
  41 H41           -2.0063     7.0263     4.2464 H       
  42 H42           -0.7307     6.4573     3.1424 H       
  43 H43           -1.6353    11.1028     4.7774 H       
  44 H44           -0.3534    12.2487     2.9842 H       
  45 H45           -0.0202    11.0755     0.8198 H       
@<TRIPOS>BOND
   1    1    2 2
   2    1   12 1
   3    1    5 1
   4    2    3 1
   5    3    4 2
   6    3    6 1
   7    4    5 1
   8    5   13 1
   9    6    7 ar
  10    6   11 ar
  11    7    8 ar
  12    7   28 1
  13    8    9 ar
  14    8   29 1
  15    9   10 ar
  16    9   30 1
  17   10   11 ar
  18   10   31 1
  19   11   32 1
  20   13   14 1
  21   13   33 1
  22   13   34 1
  23   14   15 am
  24   14   21 2
  25   15   16 1
  26   15   17 1
  27   16   20 1
  28   16   35 1
  29   16   36 1
  30   17   18 1
  31   17   37 1
  32   17   38 1
  33   18   19 1
  34   18   39 1
  35   18   40 1
  36   19   20 1
  37   19   22 1
  38   20   41 1
  39   20   42 1
  40   22   23 ar
  41   22   27 ar
  42   23   24 ar
  43   24   25 ar
  44   24   43 1
  45   25   26 ar
  46   25   44 1
  47   26   27 ar
  48   26   45 1

#	End of record

