#	Name: ASD03331555
#	Creating user name:	WinNT
#	Creation time:	15. 06. 2019 20:39

#	Modifying user name:	WinNT
#	Modification time:	15. 06. 2019 20:39

#	Program:	/corina/corina34_cracker 3.40 0067  02.08.2006

@<TRIPOS>MOLECULE
ASD03331555
  56   58    0    0    0
SMALL
NO_CHARGES


@<TRIPOS>ATOM
   1 C1            -0.0113     0.4976    -0.3669 C.ar    
   2 C2            -0.0096    -0.6135    -1.2137 C.ar    
   3 C3             1.1645     1.3933    -0.3147 C.2     
   4 N4             1.1285     2.7566    -0.3604 N.pl3   
   5 C5             2.4167     3.1964    -0.3118 C.2     
   6 C6             3.2135     2.0994    -0.2085 C.2     
   7 N7             2.4151     1.0091    -0.2110 N.2     
   8 C8            -0.0626     3.6070    -0.4258 C.3     
   9 C9             0.2968     4.9311    -1.1045 C.3     
  10 O10            0.7716     5.8633    -0.1314 O.3     
  11 C11            1.9513     5.4599     0.5584 C.3     
  12 C12            2.8380     4.6403    -0.3849 C.3     
  13 C13            4.6835     2.0998    -0.1059 C.2     
  14 O14            5.2931     3.1522    -0.1091 O.2     
  15 N15            5.3525     0.9338    -0.0085 N.am    
  16 C16            6.8139     0.9342     0.0935 C.3     
  17 C17            7.3532    -0.3782    -0.4143 C.2     
  18 N18            8.5903    -0.4380    -0.9458 N.am    
  19 O19            6.6740    -1.3806    -0.3447 O.2     
  20 C20            7.2231     1.1222     1.5557 C.3     
  21 C21            6.5580     0.0443     2.4140 C.3     
  22 C22            9.0725    -1.6871    -1.5404 C.3     
  23 C23           -1.1118    -1.4469    -1.2578 C.ar    
  24 C24           -2.2141    -1.1824    -0.4665 C.ar    
  25 C25           -2.2220    -0.0817     0.3757 C.ar    
  26 C26           -1.1291     0.7618     0.4251 C.ar    
  27 F27            1.0666    -0.8728    -1.9882 F       
  28 F28           -3.3033     0.1702     1.1455 F       
  29 C29            8.7437     1.0058     1.6788 C.3     
  30 C30            6.7768     2.5044     2.0365 C.3     
  31 H31           -0.8387     3.1022    -1.0012 H       
  32 H32           -0.4260     3.8022     0.5831 H       
  33 H33            1.0739     4.7573    -1.8487 H       
  34 H34           -0.5875     5.3384    -1.5947 H       
  35 H35            2.4960     6.3425     0.8938 H       
  36 H36            1.6782     4.8517     1.4206 H       
  37 H37            3.8802     4.7329    -0.0795 H       
  38 H38            2.7202     5.0042    -1.4056 H       
  39 H39            4.8663     0.0945    -0.0059 H       
  40 H40            7.2197     1.7497    -0.5051 H       
  41 H41            9.1614     0.3460    -0.9347 H       
  42 H42            6.8759    -0.9404     2.0715 H       
  43 H43            6.8495     0.1782     3.4558 H       
  44 H44            5.4747     0.1272     2.3263 H       
  45 H45           10.0860    -1.5437    -1.9151 H       
  46 H46            9.0722    -2.4729    -0.7850 H       
  47 H47            8.4181    -1.9741    -2.3635 H       
  48 H48           -1.1118    -2.3062    -1.9120 H       
  49 H49           -3.0729    -1.8361    -0.5051 H       
  50 H50           -1.1365     1.6192     1.0818 H       
  51 H51            9.2165     1.8076     1.1117 H       
  52 H52            9.0304     1.0845     2.7275 H       
  53 H53            9.0674     0.0424     1.2849 H       
  54 H54            5.6935     2.5873     1.9488 H       
  55 H55            7.0683     2.6383     3.0782 H       
  56 H56            7.2506     3.2723     1.4250 H       
@<TRIPOS>BOND
   1    1    2 ar
   2    1    3 1
   3    1   26 ar
   4    2   23 ar
   5    2   27 1
   6    3    4 1
   7    3    7 2
   8    4    5 1
   9    4    8 1
  10    5    6 2
  11    5   12 1
  12    6    7 1
  13    6   13 1
  14    8    9 1
  15    8   31 1
  16    8   32 1
  17    9   10 1
  18    9   33 1
  19    9   34 1
  20   10   11 1
  21   11   12 1
  22   11   35 1
  23   11   36 1
  24   12   37 1
  25   12   38 1
  26   13   14 2
  27   13   15 am
  28   15   16 1
  29   15   39 1
  30   16   20 1
  31   16   17 1
  32   16   40 1
  33   17   18 am
  34   17   19 2
  35   18   22 1
  36   18   41 1
  37   20   21 1
  38   20   29 1
  39   20   30 1
  40   21   42 1
  41   21   43 1
  42   21   44 1
  43   22   45 1
  44   22   46 1
  45   22   47 1
  46   23   24 ar
  47   23   48 1
  48   24   25 ar
  49   24   49 1
  50   25   26 ar
  51   25   28 1
  52   26   50 1
  53   29   51 1
  54   29   52 1
  55   29   53 1
  56   30   54 1
  57   30   55 1
  58   30   56 1

#	End of record

