#	Name: ASD07931032
#	Creating user name:	WinNT
#	Creation time:	15. 06. 2019 21:13

#	Modifying user name:	WinNT
#	Modification time:	15. 06. 2019 21:13

#	Program:	/corina/corina34_cracker 3.40 0067  02.08.2006

@<TRIPOS>MOLECULE
ASD07931032
  40   42    0    0    0
SMALL
NO_CHARGES


@<TRIPOS>ATOM
   1 N1            -0.0200     1.3275     0.0086 N.pl3   
   2 C2            -0.0096    -0.0115    -0.0127 C.2     
   3 C3             1.1641    -0.7376    -0.0292 C.2     
   4 C4             2.4468    -0.0157    -0.0235 C.2     
   5 C5             2.3902     1.4578    -0.0002 C.ar    
   6 C6             3.5554     2.2247     0.0072 C.ar    
   7 C7             3.4656     3.5987     0.0295 C.ar    
   8 C8             2.2241     4.2189     0.0445 C.ar    
   9 C9             1.0654     3.4743     0.0374 C.ar    
  10 C10            1.1322     2.0833     0.0155 C.ar    
  11 C11            1.1336    -2.2069    -0.0515 C.2     
  12 O12            0.0685    -2.7928    -0.0556 O.2     
  13 O13            2.2868    -2.9049    -0.0674 O.3     
  14 O14            3.5103    -0.6103    -0.0370 O.2     
  15 C15           -1.3118     2.0184     0.0191 C.3     
  16 C16           -1.7050     2.3700    -1.3925 C.ar    
  17 C17           -2.1620     1.3835    -2.2503 C.ar    
  18 C18           -2.5232     1.7077    -3.5466 C.ar    
  19 C19           -2.4274     3.0161    -3.9837 C.ar    
  20 C20           -1.9705     4.0000    -3.1262 C.ar    
  21 C21           -1.6149     3.6778    -1.8296 C.ar    
  22 I22           -2.9740     3.5077    -5.9455 I       
  23 F23           -2.2547     0.1054    -1.8223 F       
  24 C24            2.1807    -4.3528    -0.0890 C.3     
  25 C25            3.5821    -4.9667    -0.1048 C.3     
  26 H26           -0.9510    -0.5408    -0.0169 H       
  27 H27            4.5223     1.7437    -0.0041 H       
  28 H28            4.3652     4.1963     0.0356 H       
  29 H29            2.1660     5.2972     0.0622 H       
  30 H30            0.1053     3.9689     0.0489 H       
  31 H31           -2.0689     1.3668     0.4555 H       
  32 H32           -1.2316     2.9298     0.6116 H       
  33 H33           -2.8794     0.9390    -4.2165 H       
  34 H34           -1.8952     5.0216    -3.4684 H       
  35 H35           -1.2627     4.4478    -1.1593 H       
  36 H36            1.6458    -4.6912     0.7983 H       
  37 H37            1.6377    -4.6640    -0.9814 H       
  38 H38            4.1170    -4.6282    -0.9921 H       
  39 H39            4.1251    -4.6554     0.7876 H       
  40 H40            3.5025    -6.0536    -0.1210 H       
@<TRIPOS>BOND
   1    1    2 1
   2    1   10 1
   3    1   15 1
   4    2    3 2
   5    2   26 1
   6    3    4 1
   7    3   11 1
   8    4    5 1
   9    4   14 2
  10    5    6 ar
  11    5   10 ar
  12    6    7 ar
  13    6   27 1
  14    7    8 ar
  15    7   28 1
  16    8    9 ar
  17    8   29 1
  18    9   10 ar
  19    9   30 1
  20   11   12 2
  21   11   13 1
  22   13   24 1
  23   15   16 1
  24   15   31 1
  25   15   32 1
  26   16   17 ar
  27   16   21 ar
  28   17   18 ar
  29   17   23 1
  30   18   19 ar
  31   18   33 1
  32   19   20 ar
  33   19   22 1
  34   20   21 ar
  35   20   34 1
  36   21   35 1
  37   24   25 1
  38   24   36 1
  39   24   37 1
  40   25   38 1
  41   25   39 1
  42   25   40 1

#	End of record

