#	Name: ASD05790062
#	Creating user name:	WinNT
#	Creation time:	15. 06. 2019 21:03

#	Modifying user name:	WinNT
#	Modification time:	15. 06. 2019 21:03

#	Program:	/corina/corina34_cracker 3.40 0067  02.08.2006

@<TRIPOS>MOLECULE
ASD05790062
  82   87    0    0    0
SMALL
NO_CHARGES


@<TRIPOS>ATOM
   1 C1             2.8477     1.1935    -1.1318 C.3     
   2 C2             3.1692    -0.2681    -1.3531 C.2     
   3 C3             3.8681    -0.6605    -2.6331 C.3     
   4 C4             5.1212     0.2094    -2.7967 C.3     
   5 C5             4.7164     1.6922    -2.7197 C.3     
   6 C6             4.1263     2.0079    -1.3498 C.3     
   7 C7             5.7480    -0.0932    -4.1609 C.3     
   8 C8             4.7655     0.2511    -5.2949 C.3     
   9 C9             4.4359     1.7254    -5.1771 C.3     
  10 C10            3.7139     1.9454    -3.8220 C.3     
  11 C11            3.3923     2.2641    -6.1639 C.3     
  12 C12            2.8305     3.5010    -5.4665 C.2     
  13 C13            3.1747     3.3623    -3.9773 C.3     
  14 C14            4.0774     2.6417    -7.4641 C.3     
  15 C15            3.1555     3.1753    -8.5053 C.3     
  16 C16            2.7727     4.6275    -8.3577 C.3     
  17 C17            1.6831     4.8237    -7.3183 C.3     
  18 C18            2.1518     4.4549    -5.9572 C.2     
  19 C19            2.2648     5.1648    -9.7235 C.3     
  20 C20            3.2445     6.3009   -10.0434 C.3     
  21 C21            4.4913     5.8331    -9.2417 C.3     
  22 O22            3.9380     5.4123    -8.0020 O.3     
  23 N23            3.6598     6.3908   -11.4391 N.3     
  24 C24            4.6634     7.4611   -11.5785 C.3     
  25 C25            5.8890     7.2231   -10.7012 C.3     
  26 C26            5.4791     6.9800    -9.2369 C.3     
  27 C27            5.9490     2.5674    -2.9552 C.3     
  28 C28            1.7178     5.4490    -4.9110 C.3     
  29 C29            6.8026     8.4484   -10.7708 C.3     
  30 C30            2.3369     4.0732   -10.7932 C.3     
  31 C31            2.5071     6.6325   -12.3169 C.3     
  32 O32            2.8751    -1.0992    -0.5279 O.2     
  33 C33            3.0007     6.9876   -13.7209 C.3     
  34 N34            1.8479     7.2293   -14.5987 N.3     
  35 H35            2.0838     1.5128    -1.8407 H       
  36 H36            2.4883     1.3401    -0.1132 H       
  37 H37            4.1559    -1.7107    -2.5854 H       
  38 H38            3.1992    -0.5005    -3.4787 H       
  39 H39            5.8308    -0.0179    -2.0012 H       
  40 H40            3.8925     3.0710    -1.2927 H       
  41 H41            4.8520     1.7563    -0.5764 H       
  42 H42            6.6554     0.4991    -4.2791 H       
  43 H43            6.0011    -1.1521    -4.2135 H       
  44 H44            5.2296     0.0513    -6.2607 H       
  45 H45            3.8565    -0.3412    -5.1901 H       
  46 H46            5.3488     2.3195    -5.2196 H       
  47 H47            2.8826     1.2463    -3.7308 H       
  48 H48            2.6059     1.5278    -6.3301 H       
  49 H49            2.2804     3.4953    -3.3685 H       
  50 H50            3.9363     4.0896    -3.6958 H       
  51 H51            4.8340     3.3968    -7.2508 H       
  52 H52            4.5765     1.7583    -7.8625 H       
  53 H53            3.6278     3.0443    -9.4789 H       
  54 H54            2.2432     2.5790    -8.4913 H       
  55 H55            1.3763     5.8697    -7.3177 H       
  56 H56            0.8261     4.2031    -7.5799 H       
  57 H57            1.2475     5.5454    -9.6325 H       
  58 H58            2.8717     7.2562    -9.6738 H       
  59 H59            4.9472     4.9804    -9.7447 H       
  60 H60            4.9797     7.5155   -12.6202 H       
  61 H61            4.2080     8.4112   -11.2991 H       
  62 H62            6.4304     6.3523   -11.0709 H       
  63 H63            5.0090     7.8746    -8.8285 H       
  64 H64            6.3547     6.7147    -8.6443 H       
  65 H65            6.4426     2.2594    -3.8769 H       
  66 H66            5.6435     3.6105    -3.0377 H       
  67 H67            6.6390     2.4559    -2.1188 H       
  68 H68            1.1405     6.2442    -5.3827 H       
  69 H69            1.1019     4.9462    -4.1653 H       
  70 H70            2.5971     5.8756    -4.4283 H       
  71 H71            6.2622     9.3253   -10.4143 H       
  72 H72            7.6801     8.2833   -10.1455 H       
  73 H73            7.1165     8.6095   -11.8021 H       
  74 H74            1.9156     3.1488   -10.3979 H       
  75 H75            1.7693     4.3854   -11.6698 H       
  76 H76            3.3770     3.9075   -11.0738 H       
  77 H77            1.8919     5.7340   -12.3645 H       
  78 H78            1.9151     7.4575   -11.9205 H       
  79 H79            3.6159     7.8861   -13.6733 H       
  80 H80            3.5926     6.1626   -14.1173 H       
  81 H81            2.1479     7.4658   -15.5326 H       
  82 H82            1.2280     6.4333   -14.6088 H       
@<TRIPOS>BOND
   1    1    2 1
   2    1    6 1
   3    1   35 1
   4    1   36 1
   5    2    3 1
   6    2   32 2
   7    3    4 1
   8    3   37 1
   9    3   38 1
  10    4    5 1
  11    4    7 1
  12    4   39 1
  13    5    6 1
  14    5   27 1
  15    5   10 1
  16    6   40 1
  17    6   41 1
  18    7    8 1
  19    7   42 1
  20    7   43 1
  21    8    9 1
  22    8   44 1
  23    8   45 1
  24    9   10 1
  25    9   11 1
  26    9   46 1
  27   10   13 1
  28   10   47 1
  29   11   12 1
  30   11   14 1
  31   11   48 1
  32   12   13 1
  33   12   18 2
  34   13   49 1
  35   13   50 1
  36   14   15 1
  37   14   51 1
  38   14   52 1
  39   15   16 1
  40   15   53 1
  41   15   54 1
  42   16   17 1
  43   16   22 1
  44   16   19 1
  45   17   18 1
  46   17   55 1
  47   17   56 1
  48   18   28 1
  49   19   30 1
  50   19   20 1
  51   19   57 1
  52   20   21 1
  53   20   23 1
  54   20   58 1
  55   21   22 1
  56   21   26 1
  57   21   59 1
  58   23   24 1
  59   23   31 1
  60   24   25 1
  61   24   60 1
  62   24   61 1
  63   25   26 1
  64   25   29 1
  65   25   62 1
  66   26   63 1
  67   26   64 1
  68   27   65 1
  69   27   66 1
  70   27   67 1
  71   28   68 1
  72   28   69 1
  73   28   70 1
  74   29   71 1
  75   29   72 1
  76   29   73 1
  77   30   74 1
  78   30   75 1
  79   30   76 1
  80   31   33 1
  81   31   77 1
  82   31   78 1
  83   33   34 1
  84   33   79 1
  85   33   80 1
  86   34   81 1
  87   34   82 1

#	End of record

