#	Name: ASD01140312
#	Creating user name:	WinNT
#	Creation time:	15. 06. 2019 19:00

#	Modifying user name:	WinNT
#	Modification time:	15. 06. 2019 19:00

#	Program:	/corina/corina34_cracker 3.40 0067  02.08.2006

@<TRIPOS>MOLECULE
ASD01140312
  67   71    0    0    0
SMALL
NO_CHARGES


@<TRIPOS>ATOM
   1 C1             0.9965     1.1030     1.9823 C.ar    
   2 C2             1.0922    -0.2875     1.8777 C.ar    
   3 C3             2.1912    -0.8568     1.2497 C.ar    
   4 C4             3.2095    -0.0509     0.7177 C.ar    
   5 C5             3.0725     1.3363     0.7760 C.ar    
   6 C6             1.9762     1.8972     1.4366 C.ar    
   7 C7             4.4009    -0.7324     0.2150 C.2     
   8 N8             5.3845    -0.3375    -0.4231 N.2     
   9 C9             5.9781     0.9274    -0.7424 C.3     
  10 C10            5.2782     2.1161    -0.1469 C.2     
  11 N11            3.9295     2.2410     0.1373 N.am    
  12 C12            3.5882     3.5514     0.0515 C.2     
  13 C13            5.8884     3.2667     0.1793 C.2     
  14 C14            4.8259     4.2628     0.4077 C.2     
  15 C15            4.4380    -2.1791     0.5320 C.ar    
  16 C16            4.7263    -3.1078    -0.4678 C.ar    
  17 C17            4.1904    -2.6174     1.8327 C.ar    
  18 C18            4.2268    -3.9661     2.1219 C.ar    
  19 C19            4.5087    -4.8828     1.1248 C.ar    
  20 C20            4.7599    -4.4538    -0.1662 C.ar    
  21 C21            0.0606    -1.1216     2.4169 C.1     
  22 C22           -0.7852    -1.8053     2.8589 C.1     
  23 O23            2.5075     4.0283    -0.2502 O.2     
  24 C24            4.9607     5.5608     0.8527 C.2     
  25 N25            6.1034     5.9499     1.4763 N.pl3   
  26 C26            6.3408     7.3640     1.8037 C.3     
  27 C27            7.1330     4.9673     1.8474 C.3     
  28 C28            7.4848     5.1656     3.3256 C.3     
  29 N29            7.8544     6.5689     3.5537 N.3     
  30 C30            6.7254     7.4631     3.2837 C.3     
  31 C31            8.3632     6.7642     4.9179 C.3     
  32 Si32          -2.1540    -2.9120     3.5743 Si      
  33 C33           -1.7280    -4.7003     3.2724 C.3     
  34 C34           -2.3026    -2.6098     5.4066 C.3     
  35 C35           -3.7735    -2.5109     2.7454 C.3     
  36 H36            0.1534     1.5518     2.4864 H       
  37 H37            2.2636    -1.9314     1.1698 H       
  38 H38            1.8976     2.9712     1.5193 H       
  39 H39            7.0098     0.9228    -0.3909 H       
  40 H40            5.9876     1.0401    -1.8265 H       
  41 H41            6.9528     3.4310     0.2590 H       
  42 H42            4.9225    -2.7741    -1.4760 H       
  43 H43            3.9709    -1.9026     2.6121 H       
  44 H44            4.0353    -4.3067     3.1287 H       
  45 H45            4.5368    -5.9374     1.3562 H       
  46 H46            4.9793    -5.1742    -0.9404 H       
  47 H47            4.1581     6.2682     0.7057 H       
  48 H48            7.1525     7.7511     1.1877 H       
  49 H49            5.4330     7.9393     1.6219 H       
  50 H50            6.7488     3.9588     1.6945 H       
  51 H51            8.0222     5.1200     1.2357 H       
  52 H52            6.6224     4.9118     3.9419 H       
  53 H53            8.3233     4.5211     3.5896 H       
  54 H54            7.0115     8.4896     3.5130 H       
  55 H55            5.8766     7.1745     3.9037 H       
  56 H56            9.2448     6.1415     5.0695 H       
  57 H57            8.6294     7.8117     5.0599 H       
  58 H58            7.5928     6.4845     5.6365 H       
  59 H59           -0.7804    -4.9350     3.7573 H       
  60 H60           -2.5132    -5.3352     3.6828 H       
  61 H61           -1.6410    -4.8771     2.2003 H       
  62 H62           -2.5518    -1.5635     5.5833 H       
  63 H63           -3.0878    -3.2447     5.8171 H       
  64 H64           -1.3551    -2.8445     5.8916 H       
  65 H65           -3.6865    -2.6876     1.6734 H       
  66 H66           -4.5587    -3.1457     3.1558 H       
  67 H67           -4.0227    -1.4646     2.9221 H       
@<TRIPOS>BOND
   1    1    2 ar
   2    1    6 ar
   3    1   36 1
   4    2    3 ar
   5    2   21 1
   6    3    4 ar
   7    3   37 1
   8    4    5 ar
   9    4    7 1
  10    5    6 ar
  11    5   11 1
  12    6   38 1
  13    7    8 2
  14    7   15 1
  15    8    9 1
  16    9   10 1
  17    9   39 1
  18    9   40 1
  19   10   11 1
  20   10   13 2
  21   11   12 am
  22   12   23 2
  23   12   14 1
  24   13   14 1
  25   13   41 1
  26   14   24 2
  27   15   16 ar
  28   15   17 ar
  29   16   20 ar
  30   16   42 1
  31   17   18 ar
  32   17   43 1
  33   18   19 ar
  34   18   44 1
  35   19   20 ar
  36   19   45 1
  37   20   46 1
  38   21   22 3
  39   22   32 1
  40   24   25 1
  41   24   47 1
  42   25   26 1
  43   25   27 1
  44   26   30 1
  45   26   48 1
  46   26   49 1
  47   27   28 1
  48   27   50 1
  49   27   51 1
  50   28   29 1
  51   28   52 1
  52   28   53 1
  53   29   30 1
  54   29   31 1
  55   30   54 1
  56   30   55 1
  57   31   56 1
  58   31   57 1
  59   31   58 1
  60   32   33 1
  61   32   34 1
  62   32   35 1
  63   33   59 1
  64   33   60 1
  65   33   61 1
  66   34   62 1
  67   34   63 1
  68   34   64 1
  69   35   65 1
  70   35   66 1
  71   35   67 1

#	End of record

