#	Name: ASD00170789
#	Creating user name:	WinNT
#	Creation time:	15. 06. 2019 18:32

#	Modifying user name:	WinNT
#	Modification time:	15. 06. 2019 18:32

#	Program:	/corina/corina34_cracker 3.40 0067  02.08.2006

@<TRIPOS>MOLECULE
ASD00170789
  63   67    0    0    0
SMALL
NO_CHARGES


@<TRIPOS>ATOM
   1 C1            -0.0960     1.2118     0.3903 C.2     
   2 C2             0.1581    -0.0977     0.5060 C.2     
   3 S3            -1.3296    -1.0264     0.4582 S.3     
   4 C4            -2.2883     0.3713     0.2812 C.2     
   5 C5            -1.5040     1.5041     0.2650 C.2     
   6 N6            -3.6624     0.3693     0.1739 N.pl3   
   7 C7            -2.0406     2.8587     0.1262 C.2     
   8 C8            -2.2943     3.6802     1.3291 C.ar    
   9 O9            -2.2781     3.3091    -0.9799 O.2     
  10 C10           -2.9034     4.9307     1.2081 C.ar    
  11 C11           -3.1374     5.6924     2.3335 C.ar    
  12 C12           -2.7690     5.2193     3.5822 C.ar    
  13 C13           -2.1644     3.9795     3.7086 C.ar    
  14 C14           -1.9309     3.2061     2.5910 C.ar    
  15 Cl15          -3.0658     6.1844     4.9944 Cl      
  16 C16            1.5077    -0.6812     0.6534 C.ar    
  17 C17            0.9761     2.2708     0.3967 C.3     
  18 N18            1.5334     2.4117    -0.9552 N.3     
  19 C19            2.4079     3.5893    -1.0443 C.3     
  20 C20            3.0293     3.6554    -2.4414 C.3     
  21 N21            1.9602     3.7196    -3.4477 N.3     
  22 C22            1.0857     2.5419    -3.3586 C.3     
  23 C23            0.4643     2.4758    -1.9614 C.3     
  24 C24            2.4900     3.8535    -4.7331 C.ar    
  25 C25            1.7687    -1.5947     1.6763 C.ar    
  26 C26            3.0307    -2.1360     1.8079 C.ar    
  27 C27            4.0368    -1.7751     0.9293 C.ar    
  28 C28            3.7850    -0.8699    -0.0865 C.ar    
  29 C29            2.5259    -0.3258    -0.2332 C.ar    
  30 C30            3.2610     2.8346    -5.2777 C.ar    
  31 C31            3.7830     2.9701    -6.5494 C.ar    
  32 C32            3.5393     4.1185    -7.2797 C.ar    
  33 C33            2.7720     5.1351    -6.7403 C.ar    
  34 C34            2.2423     5.0037    -5.4719 C.ar    
  35 C35            1.4060     6.1116    -4.8852 C.3     
  36 F36            1.2169     7.1115    -5.8452 F       
  37 F37            0.1641     5.6008    -4.4930 F       
  38 F38            2.0608     6.6510    -3.7727 F       
  39 H39           -4.1437    -0.4714     0.1238 H       
  40 H40           -4.1481     1.2086     0.1485 H       
  41 H41           -3.1903     5.3009     0.2349 H       
  42 H42           -3.6084     6.6598     2.2412 H       
  43 H43           -1.8791     3.6160     4.6847 H       
  44 H44           -1.4598     2.2394     2.6908 H       
  45 H45            0.5462     3.2211     0.7133 H       
  46 H46            1.7680     1.9821     1.0878 H       
  47 H47            1.8230     4.4911    -0.8634 H       
  48 H48            3.1985     3.5125    -0.2979 H       
  49 H49            3.6557     4.5441    -2.5191 H       
  50 H50            3.6363     2.7663    -2.6119 H       
  51 H51            0.2950     2.6188    -4.1049 H       
  52 H52            1.6706     1.6401    -3.5395 H       
  53 H53           -0.1621     1.5872    -1.8837 H       
  54 H54           -0.1427     3.3650    -1.7910 H       
  55 H55            0.9845    -1.8767     2.3632 H       
  56 H56            3.2340    -2.8428     2.5988 H       
  57 H57            5.0232    -2.2016     1.0370 H       
  58 H58            4.5749    -0.5920    -0.7685 H       
  59 H59            2.3306     0.3804    -1.0267 H       
  60 H60            3.4523     1.9376    -4.7075 H       
  61 H61            4.3825     2.1782    -6.9735 H       
  62 H62            3.9492     4.2222    -8.2734 H       
  63 H63            2.5838     6.0310    -7.3133 H       
@<TRIPOS>BOND
   1    1    2 2
   2    1   17 1
   3    1    5 1
   4    2    3 1
   5    2   16 1
   6    3    4 1
   7    4    5 2
   8    4    6 1
   9    5    7 1
  10    6   39 1
  11    6   40 1
  12    7    8 1
  13    7    9 2
  14    8   10 ar
  15    8   14 ar
  16   10   11 ar
  17   10   41 1
  18   11   12 ar
  19   11   42 1
  20   12   13 ar
  21   12   15 1
  22   13   14 ar
  23   13   43 1
  24   14   44 1
  25   16   25 ar
  26   16   29 ar
  27   17   18 1
  28   17   45 1
  29   17   46 1
  30   18   19 1
  31   18   23 1
  32   19   20 1
  33   19   47 1
  34   19   48 1
  35   20   21 1
  36   20   49 1
  37   20   50 1
  38   21   22 1
  39   21   24 1
  40   22   23 1
  41   22   51 1
  42   22   52 1
  43   23   53 1
  44   23   54 1
  45   24   30 ar
  46   24   34 ar
  47   25   26 ar
  48   25   55 1
  49   26   27 ar
  50   26   56 1
  51   27   28 ar
  52   27   57 1
  53   28   29 ar
  54   28   58 1
  55   29   59 1
  56   30   31 ar
  57   30   60 1
  58   31   32 ar
  59   31   61 1
  60   32   33 ar
  61   32   62 1
  62   33   34 ar
  63   33   63 1
  64   34   35 1
  65   35   36 1
  66   35   37 1
  67   35   38 1

#	End of record

