#	Name: ASD07130008
#	Creating user name:	WinNT
#	Creation time:	15. 06. 2019 21:09

#	Modifying user name:	WinNT
#	Modification time:	15. 06. 2019 21:09

#	Program:	/corina/corina34_cracker 3.40 0067  02.08.2006

@<TRIPOS>MOLECULE
ASD07130008
  36   36    0    0    0
SMALL
NO_CHARGES


@<TRIPOS>ATOM
   1 C1            -0.0167     1.3781     0.0096 C.ar    
   2 C2             0.0021    -0.0041     0.0020 C.ar    
   3 C3             1.2084    -0.6789    -0.0132 C.ar    
   4 C4             2.3961     0.0285    -0.0212 C.ar    
   5 C5             2.3773     1.4107    -0.0145 C.ar    
   6 C6             1.1709     2.0855     0.0021 C.ar    
   7 C7             3.7112    -0.7071    -0.0368 C.3     
   8 C8             4.1427    -0.9498    -1.4845 C.3     
   9 S9             5.7223    -1.8333    -1.5031 S.3     
  10 C10            5.9730    -1.9751    -3.2414 C.2     
  11 N11            7.0968    -2.6041    -3.7253 N.pl3   
  12 N12            5.0933    -1.4837    -4.0694 N.2     
  13 C13           -1.2926    -0.7753     0.0108 C.3     
  14 C14           -1.7452    -1.0285    -1.4286 C.3     
  15 S15           -3.3002    -1.9547    -1.4181 S.3     
  16 C16           -3.5803    -2.1020    -3.1515 C.2     
  17 N17           -4.6956    -2.7610    -3.6144 N.pl3   
  18 N18           -2.7303    -1.5862    -3.9956 N.2     
  19 H19           -0.9592     1.9054     0.0170 H       
  20 H20            1.2231    -1.7588    -0.0184 H       
  21 H21            3.3052     1.9634    -0.0205 H       
  22 H22            1.1563     3.1654     0.0069 H       
  23 H23            4.4676    -0.1100     0.4726 H       
  24 H24            3.5986    -1.6635     0.4740 H       
  25 H25            3.3864    -1.5469    -1.9938 H       
  26 H26            4.2553     0.0066    -1.9952 H       
  27 H27            7.7511    -2.9696    -3.1095 H       
  28 H28            7.2348    -2.6822    -4.6822 H       
  29 H29            5.2313    -1.5618    -5.0264 H       
  30 H30           -1.1443    -1.7285     0.5181 H       
  31 H31           -2.0550    -0.1993     0.5353 H       
  32 H32           -1.8935    -0.0752    -1.9359 H       
  33 H33           -0.9828    -1.6044    -1.9532 H       
  34 H34           -5.3278    -3.1446    -2.9866 H       
  35 H35           -4.8499    -2.8421    -4.5686 H       
  36 H36           -2.8846    -1.6673    -4.9498 H       
@<TRIPOS>BOND
   1    1    2 ar
   2    1    6 ar
   3    1   19 1
   4    2    3 ar
   5    2   13 1
   6    3    4 ar
   7    3   20 1
   8    4    5 ar
   9    4    7 1
  10    5    6 ar
  11    5   21 1
  12    6   22 1
  13    7    8 1
  14    7   23 1
  15    7   24 1
  16    8    9 1
  17    8   25 1
  18    8   26 1
  19    9   10 1
  20   10   11 1
  21   10   12 2
  22   11   27 1
  23   11   28 1
  24   12   29 1
  25   13   14 1
  26   13   30 1
  27   13   31 1
  28   14   15 1
  29   14   32 1
  30   14   33 1
  31   15   16 1
  32   16   17 1
  33   16   18 2
  34   17   34 1
  35   17   35 1
  36   18   36 1

#	End of record

