#	Name: ASD04590352
#	Creating user name:	WinNT
#	Creation time:	15. 06. 2019 20:50

#	Modifying user name:	WinNT
#	Modification time:	15. 06. 2019 20:50

#	Program:	/corina/corina34_cracker 3.40 0067  02.08.2006

@<TRIPOS>MOLECULE
ASD04590352
  57   62    0    0    0
SMALL
NO_CHARGES


@<TRIPOS>ATOM
   1 C1            -0.0293     1.4009    -0.1009 C.ar    
   2 C2            -0.0025     0.0033    -0.0101 C.ar    
   3 C3             1.2133    -0.6702     0.0614 C.ar    
   4 C4             2.4037     0.0566     0.0416 C.ar    
   5 C5             2.3574     1.4610    -0.0505 C.ar    
   6 C6             1.1335     2.1158    -0.1205 C.ar    
   7 N7             3.7118    -0.2986     0.0942 N.2     
   8 C8             4.4605     0.7759     0.0414 C.2     
   9 N9             3.6682     1.8895    -0.0487 N.pl3   
  10 C10            5.9375     0.7847     0.0750 C.2     
  11 C11            6.7737    -0.3520     0.1679 C.2     
  12 C12            8.0587     0.0793     0.1697 C.2     
  13 N13            8.0431     1.4354     0.0815 N.pl3   
  14 N14            6.7079     1.8533     0.0178 N.2     
  15 N15            6.3488    -1.6881     0.2453 N.am    
  16 C16            7.2571    -2.6802     0.3304 C.2     
  17 C17            6.8108    -4.0840     0.4117 C.ar    
  18 O18            8.4446    -2.4182     0.3402 O.2     
  19 C19            7.7523    -5.1176     0.5003 C.ar    
  20 C20            7.3211    -6.4364     0.5798 C.ar    
  21 C21            5.9650    -6.7221     0.5669 C.ar    
  22 C22            5.0342    -5.7006     0.4774 C.ar    
  23 C23            5.4465    -4.3881     0.4065 C.ar    
  24 C24           -1.2679    -0.7576     0.0101 C.2     
  25 N25           -2.3288    -0.2828     0.6924 N.am    
  26 C26           -3.6350    -0.9574     0.6270 C.3     
  27 C27           -2.2137     0.9219     1.5295 C.3     
  28 C28           -2.7874     0.6045     2.9151 C.3     
  29 O29           -4.0998     0.0573     2.7671 O.3     
  30 C30           -4.1366    -1.1795     2.0585 C.3     
  31 O31           -1.3527    -1.8123    -0.5886 O.2     
  32 O32            9.0766    -4.8161     0.5027 O.3     
  33 C33            9.9684    -5.8352     0.9675 C.3     
  34 C34            9.5692    -7.1614     0.3063 C.3     
  35 O35            8.2175    -7.4567     0.6745 O.3     
  36 H36           -0.9766     1.9163    -0.1602 H       
  37 H37            1.2349    -1.7477     0.1321 H       
  38 H38            1.1023     3.1931    -0.1910 H       
  39 H39            3.9726     2.8090    -0.1014 H       
  40 H40            8.9386    -0.5439     0.2304 H       
  41 H41            8.8219     2.0134     0.0621 H       
  42 H42            5.4016    -1.8971     0.2375 H       
  43 H43            5.6320    -7.7478     0.6267 H       
  44 H44            3.9797    -5.9338     0.4673 H       
  45 H45            4.7164    -3.5953     0.3380 H       
  46 H46           -4.3436    -0.3334     0.0824 H       
  47 H47           -3.5275    -1.9176     0.1226 H       
  48 H48           -1.1654     1.2056     1.6223 H       
  49 H49           -2.7767     1.7384     1.0772 H       
  50 H50           -2.1458    -0.1192     3.4178 H       
  51 H51           -2.8387     1.5189     3.5061 H       
  52 H52           -5.1609    -1.5508     2.0272 H       
  53 H53           -3.5001    -1.9068     2.5623 H       
  54 H54           10.9921    -5.5811     0.6927 H       
  55 H55            9.8898    -5.9263     2.0508 H       
  56 H56            9.6431    -7.0688    -0.7772 H       
  57 H57           10.2272    -7.9580     0.6535 H       
@<TRIPOS>BOND
   1    1    2 ar
   2    1    6 ar
   3    1   36 1
   4    2    3 ar
   5    2   24 1
   6    3    4 ar
   7    3   37 1
   8    4    5 ar
   9    4    7 1
  10    5    6 ar
  11    5    9 1
  12    6   38 1
  13    7    8 2
  14    8    9 1
  15    8   10 1
  16    9   39 1
  17   10   11 1
  18   10   14 2
  19   11   12 2
  20   11   15 1
  21   12   13 1
  22   12   40 1
  23   13   14 1
  24   13   41 1
  25   15   16 am
  26   15   42 1
  27   16   17 1
  28   16   18 2
  29   17   19 ar
  30   17   23 ar
  31   19   20 ar
  32   19   32 1
  33   20   21 ar
  34   20   35 1
  35   21   22 ar
  36   21   43 1
  37   22   23 ar
  38   22   44 1
  39   23   45 1
  40   24   25 am
  41   24   31 2
  42   25   26 1
  43   25   27 1
  44   26   30 1
  45   26   46 1
  46   26   47 1
  47   27   28 1
  48   27   48 1
  49   27   49 1
  50   28   29 1
  51   28   50 1
  52   28   51 1
  53   29   30 1
  54   30   52 1
  55   30   53 1
  56   32   33 1
  57   33   34 1
  58   33   54 1
  59   33   55 1
  60   34   35 1
  61   34   56 1
  62   34   57 1

#	End of record

