#	Name: ASD08170096
#	Creating user name:	WinNT
#	Creation time:	15. 06. 2019 21:17

#	Modifying user name:	WinNT
#	Modification time:	15. 06. 2019 21:17

#	Program:	/corina/corina34_cracker 3.40 0067  02.08.2006

@<TRIPOS>MOLECULE
ASD08170096
  77   80    0    0    0
SMALL
NO_CHARGES


@<TRIPOS>ATOM
   1 N1            -0.0150     1.2583     0.0090 N.2     
   2 N2             0.0021    -0.0041     0.0020 N.2     
   3 C3             1.1271     1.8769     0.0014 C.2     
   4 S4             2.3826     0.7116    -0.0169 S.3     
   5 C5             1.1681    -0.5677    -0.0121 C.2     
   6 C6             1.4387    -2.0502    -0.0227 C.3     
   7 C7             1.5165    -2.5442    -1.4687 C.3     
   8 S8             1.8422    -4.3286    -1.4814 S.3     
   9 C9             1.8986    -4.7206    -3.2516 C.3     
  10 C10            2.1699    -6.2152    -3.4347 C.3     
  11 C11            2.2167    -6.5408    -4.9053 C.2     
  12 N12            3.2694    -6.5184    -5.6596 N.2     
  13 S13            0.8491    -7.0282    -5.9071 S.3     
  14 C14            1.9000    -7.1354    -7.2557 C.2     
  15 N15            3.1017    -6.8250    -6.8728 N.2     
  16 N16            1.5289    -7.4992    -8.5457 N.am    
  17 C17            2.4537    -7.5464    -9.5250 C.2     
  18 O18            3.6096    -7.2716    -9.2812 O.2     
  19 C19            2.0516    -7.9407   -10.9228 C.3     
  20 N20            1.3017     3.2566     0.0067 N.am    
  21 C21            0.2284     4.0717     0.0214 C.2     
  22 O22           -0.8897     3.6019     0.0299 O.2     
  23 C23            0.4176     5.5667     0.0272 C.3     
  24 C24            3.2807    -7.9145   -11.8336 C.3     
  25 C25            1.4691    -9.3304   -10.9048 C.ar    
  26 C26            0.1703    -9.5410   -11.3286 C.ar    
  27 C27            2.2355   -10.3955   -10.4699 C.ar    
  28 C28            1.7013   -11.6703   -10.4535 C.ar    
  29 C29            0.4004   -11.8800   -10.8715 C.ar    
  30 C30           -0.3640   -10.8158   -11.3121 C.ar    
  31 C31           -0.9494     6.2538     0.0441 C.3     
  32 C32            1.1975     5.9696     1.2521 C.ar    
  33 C33            2.4110     6.6177     1.1167 C.ar    
  34 C34            3.1264     6.9872     2.2403 C.ar    
  35 C35            2.6281     6.7091     3.4994 C.ar    
  36 C36            1.4141     6.0619     3.6348 C.ar    
  37 C37            0.6967     5.6963     2.5112 C.ar    
  38 O38            2.8745    -8.1785   -13.2024 O.3     
  39 C39            3.8414    -8.1908   -14.1334 C.2     
  40 O40            4.9891    -7.9876   -13.8151 O.2     
  41 C41            3.4953    -8.4578   -15.5756 C.3     
  42 O42           -0.7706     7.6902    -0.0697 O.3     
  43 C43           -1.8810     8.4444    -0.0703 C.2     
  44 O44           -2.9664     7.9215     0.0212 O.2     
  45 C45           -1.7738     9.9432    -0.1851 C.3     
  46 H46            2.3843    -2.2506     0.4811 H       
  47 H47            0.6334    -2.5702     0.4961 H       
  48 H48            0.5709    -2.3438    -1.9724 H       
  49 H49            2.3218    -2.0242    -1.9874 H       
  50 H50            0.9434    -4.4658    -3.7108 H       
  51 H51            2.6943    -4.1461    -3.7258 H       
  52 H52            3.1250    -6.4700    -2.9755 H       
  53 H53            1.3741    -6.7896    -2.9605 H       
  54 H54            0.6045    -7.7190    -8.7407 H       
  55 H55            1.3064    -7.2392   -11.2980 H       
  56 H56            2.1959     3.6323    -0.0001 H       
  57 H57            0.9643     5.8672    -0.8667 H       
  58 H58            3.7536    -6.9341   -11.7776 H       
  59 H59            3.9883    -8.6782   -11.5109 H       
  60 H60           -0.4271    -8.7095   -11.6722 H       
  61 H61            3.2519   -10.2317   -10.1434 H       
  62 H62            2.3003   -12.5025   -10.1143 H       
  63 H63           -0.0169   -12.8760   -10.8589 H       
  64 H64           -1.3803   -10.9796   -11.6386 H       
  65 H65           -1.5469     5.8945    -0.7938 H       
  66 H66           -1.4599     6.0241     0.9793 H       
  67 H67            2.8004     6.8349     0.1330 H       
  68 H68            4.0748     7.4928     2.1345 H       
  69 H69            3.1873     6.9972     4.3772 H       
  70 H70            1.0249     5.8444     4.6185 H       
  71 H71           -0.2518     5.1906     2.6170 H       
  72 H72            2.4209    -8.6166   -15.6681 H       
  73 H73            3.7901    -7.6030   -16.1843 H       
  74 H74            4.0248    -9.3472   -15.9176 H       
  75 H75           -0.7241    10.2279    -0.2574 H       
  76 H76           -2.3034    10.2780    -1.0770 H       
  77 H77           -2.2164    10.4076     0.6961 H       
@<TRIPOS>BOND
   1    1    2 1
   2    1    3 2
   3    2    5 2
   4    3    4 1
   5    3   20 1
   6    4    5 1
   7    5    6 1
   8    6    7 1
   9    6   46 1
  10    6   47 1
  11    7    8 1
  12    7   48 1
  13    7   49 1
  14    8    9 1
  15    9   10 1
  16    9   50 1
  17    9   51 1
  18   10   11 1
  19   10   52 1
  20   10   53 1
  21   11   12 2
  22   11   13 1
  23   12   15 1
  24   13   14 1
  25   14   15 2
  26   14   16 1
  27   16   17 am
  28   16   54 1
  29   17   18 2
  30   17   19 1
  31   19   24 1
  32   19   25 1
  33   19   55 1
  34   20   21 am
  35   20   56 1
  36   21   22 2
  37   21   23 1
  38   23   31 1
  39   23   32 1
  40   23   57 1
  41   24   38 1
  42   24   58 1
  43   24   59 1
  44   25   26 ar
  45   25   27 ar
  46   26   30 ar
  47   26   60 1
  48   27   28 ar
  49   27   61 1
  50   28   29 ar
  51   28   62 1
  52   29   30 ar
  53   29   63 1
  54   30   64 1
  55   31   42 1
  56   31   65 1
  57   31   66 1
  58   32   33 ar
  59   32   37 ar
  60   33   34 ar
  61   33   67 1
  62   34   35 ar
  63   34   68 1
  64   35   36 ar
  65   35   69 1
  66   36   37 ar
  67   36   70 1
  68   37   71 1
  69   38   39 1
  70   39   40 2
  71   39   41 1
  72   41   72 1
  73   41   73 1
  74   41   74 1
  75   42   43 1
  76   43   44 2
  77   43   45 1
  78   45   75 1
  79   45   76 1
  80   45   77 1

#	End of record

