#	Name: ASD09810012
#	Creating user name:	WinNT
#	Creation time:	15. 06. 2019 21:24

#	Modifying user name:	WinNT
#	Modification time:	15. 06. 2019 21:24

#	Program:	/corina/corina34_cracker 3.40 0067  02.08.2006

@<TRIPOS>MOLECULE
ASD09810012
  36   38    0    0    0
SMALL
NO_CHARGES


@<TRIPOS>ATOM
   1 C1            -0.0166     1.3756     0.0096 C.ar    
   2 C2             0.0021    -0.0041     0.0020 C.ar    
   3 C3             1.2063    -0.6870    -0.0127 C.ar    
   4 C4             2.3986     0.0202    -0.0204 C.ar    
   5 C5             1.1777     2.0918     0.0020 C.ar    
   6 N6             1.4175     3.4702     0.0068 N.am    
   7 C7             2.3799     1.3965    -0.0133 C.ar    
   8 C8             3.4745     2.4386    -0.0188 C.3     
   9 C9             2.7302     3.7567    -0.0046 C.2     
  10 C10            0.4444     4.4027     0.0206 C.2     
  11 N11            0.7654     5.7117     0.0242 N.am    
  12 O12           -0.7225     4.0632     0.0298 O.2     
  13 O13            3.2256     4.8632    -0.0041 O.2     
  14 C14            4.3353     2.3062     1.2110 C.2     
  15 O15            3.8844     1.8042     2.2125 O.2     
  16 C16            5.7589     2.8003     1.1911 C.3     
  17 C17            6.3957     2.5519     2.5341 C.ar    
  18 C18            6.3147     3.5117     3.5256 C.ar    
  19 C19            7.0560     1.3618     2.7765 C.ar    
  20 C20            7.6402     1.1340     4.0085 C.ar    
  21 C21            7.5645     2.0964     4.9979 C.ar    
  22 C22            6.8988     3.2838     4.7576 C.ar    
  23 F23            1.2195    -2.0380    -0.0192 F       
  24 H24           -0.9599     1.9015     0.0169 H       
  25 H25           -0.9274    -0.5540     0.0080 H       
  26 H26            3.3406    -0.5079    -0.0315 H       
  27 H27            4.0800     2.3513    -0.9209 H       
  28 H28            1.6968     5.9827     0.0168 H       
  29 H29            0.0651     6.3828     0.0341 H       
  30 H30            6.3172     2.2688     0.4204 H       
  31 H31            5.7697     3.8688     0.9759 H       
  32 H32            5.7953     4.4398     3.3376 H       
  33 H33            7.1152     0.6100     2.0035 H       
  34 H34            8.1555     0.2040     4.1980 H       
  35 H35            8.0206     1.9182     5.9605 H       
  36 H36            6.8358     4.0339     5.5321 H       
@<TRIPOS>BOND
   1    1    2 ar
   2    1    5 ar
   3    1   24 1
   4    2    3 ar
   5    2   25 1
   6    3    4 ar
   7    3   23 1
   8    4    7 ar
   9    4   26 1
  10    5    7 ar
  11    5    6 1
  12    6    9 am
  13    6   10 am
  14    7    8 1
  15    8    9 1
  16    8   14 1
  17    8   27 1
  18    9   13 2
  19   10   11 am
  20   10   12 2
  21   11   28 1
  22   11   29 1
  23   14   15 2
  24   14   16 1
  25   16   17 1
  26   16   30 1
  27   16   31 1
  28   17   19 ar
  29   17   18 ar
  30   18   22 ar
  31   18   32 1
  32   19   20 ar
  33   19   33 1
  34   20   21 ar
  35   20   34 1
  36   21   22 ar
  37   21   35 1
  38   22   36 1

#	End of record

