#	Name: ASD02198546
#	Creating user name:	WinNT
#	Creation time:	15. 06. 2019 20:19

#	Modifying user name:	WinNT
#	Modification time:	15. 06. 2019 20:19

#	Program:	/corina/corina34_cracker 3.40 0067  02.08.2006

@<TRIPOS>MOLECULE
ASD02198546
  42   45    0    0    0
SMALL
NO_CHARGES


@<TRIPOS>ATOM
   1 C1             0.1545     0.8343    -2.5515 C.2     
   2 C2             0.3027    -0.4742    -2.2236 C.2     
   3 N3             1.3234    -0.8805    -1.4356 N.pl3   
   4 N4             2.2020    -0.0814    -0.9532 N.2     
   5 C5             2.1760     1.2132    -1.1927 C.2     
   6 C6             1.1014     1.7547    -2.0422 C.2     
   7 C7             1.4256    -2.2417    -1.1310 C.ar    
   8 C8             0.4150    -4.2853    -0.3869 C.ar    
   9 C9             1.6279    -4.9348    -0.5285 C.ar    
  10 C10            2.7410    -4.2401    -0.9649 C.ar    
  11 C11            2.6436    -2.8958    -1.2665 C.ar    
  12 C12            3.2022     2.1034    -0.6213 C.2     
  13 C13            4.2211     1.7317     0.2419 C.2     
  14 C14            4.9611     2.9024     0.5294 C.2     
  15 C15            4.3924     3.9220    -0.1436 C.2     
  16 N16            3.3269     3.4495    -0.8510 N.pl3   
  17 C17            4.4840     0.3701     0.7636 C.ar    
  18 C18            3.4982    -0.3073     1.4807 C.ar    
  19 O19            1.0305     2.9476    -2.2965 O.2     
  20 C20            5.7163    -0.2415     0.5346 C.ar    
  21 C21            5.9551    -1.5098     1.0227 C.ar    
  22 C22            4.9751    -2.1747     1.7379 C.ar    
  23 C23            3.7489    -1.5753     1.9637 C.ar    
  24 C24            0.3105    -2.9415    -0.6867 C.ar    
  25 F25           -0.6090    -6.4129    -0.1452 F       
  26 F26           -0.9734    -4.8287     1.4599 F       
  27 C27           -0.7953    -5.0464     0.0895 C.3     
  28 F28           -1.9270    -4.6042    -0.6039 F       
  29 H29           -0.6570     1.1621    -3.1842 H       
  30 H30           -0.4042    -1.2004    -2.5967 H       
  31 H31            1.7059    -5.9869    -0.2972 H       
  32 H32            3.6867    -4.7501    -1.0736 H       
  33 H33            3.5132    -2.3539    -1.6077 H       
  34 H34            5.8260     2.9675     1.1728 H       
  35 H35            4.7294     4.9480    -0.1288 H       
  36 H36            2.7474     3.9805    -1.4195 H       
  37 H37            2.5407     0.1598     1.6580 H       
  38 H38            6.4820     0.2765    -0.0239 H       
  39 H39            6.9088    -1.9846     0.8457 H       
  40 H40            5.1665    -3.1675     2.1176 H       
  41 H41            2.9878    -2.0991     2.5231 H       
  42 H42           -0.6368    -2.4349    -0.5757 H       
@<TRIPOS>BOND
   1    1    2 2
   2    1    6 1
   3    1   29 1
   4    2    3 1
   5    2   30 1
   6    3    4 1
   7    3    7 1
   8    4    5 2
   9    5    6 1
  10    5   12 1
  11    6   19 2
  12    7   24 ar
  13    7   11 ar
  14    8    9 ar
  15    8   27 1
  16    8   24 ar
  17    9   10 ar
  18    9   31 1
  19   10   11 ar
  20   10   32 1
  21   11   33 1
  22   12   13 2
  23   12   16 1
  24   13   14 1
  25   13   17 1
  26   14   15 2
  27   14   34 1
  28   15   16 1
  29   15   35 1
  30   16   36 1
  31   17   20 ar
  32   17   18 ar
  33   18   23 ar
  34   18   37 1
  35   20   21 ar
  36   20   38 1
  37   21   22 ar
  38   21   39 1
  39   22   23 ar
  40   22   40 1
  41   23   41 1
  42   24   42 1
  43   25   27 1
  44   26   27 1
  45   27   28 1

#	End of record

