#	Name: ASD02508368
#	Creating user name:	WinNT
#	Creation time:	15. 06. 2019 20:24

#	Modifying user name:	WinNT
#	Modification time:	15. 06. 2019 20:24

#	Program:	/corina/corina34_cracker 3.40 0067  02.08.2006

@<TRIPOS>MOLECULE
ASD02508368
  37   40    0    0    0
SMALL
NO_CHARGES


@<TRIPOS>ATOM
   1 C1            -0.0180     1.3964    -0.1077 C.2     
   2 C2             0.0030     0.0053     0.1195 C.2     
   3 C3             1.2947    -0.3770     0.1726 C.2     
   4 N4             2.0750     0.7291    -0.0138 N.pl3   
   5 C5             1.2616     1.8136    -0.1852 C.2     
   6 C6             3.4729     0.7481    -0.0267 C.ar    
   7 C7             4.1564     1.6788     0.7484 C.ar    
   8 N8             4.1333    -0.1229    -0.7717 N.ar    
   9 C9             5.4518    -0.1398    -0.8126 C.ar    
  10 C10            6.1952     0.7586    -0.0728 C.ar    
  11 C11            5.5412     1.6860     0.7264 C.ar    
  12 S12            1.8763    -2.0191     0.4373 S.o2    
  13 O13            1.8547    -2.6616    -0.8299 O.2     
  14 O14            3.0492    -1.9062     1.2316 O.2     
  15 N15            0.7504    -2.7929     1.3733 N.am    
  16 C16           -0.5349    -3.0263     0.8720 C.ar    
  17 C17           -0.6993    -3.5139    -0.4173 C.ar    
  18 C18           -2.9177    -3.0072     1.1696 C.ar    
  19 C19           -1.6461    -2.7756     1.6661 C.ar    
  20 C20           -1.9686    -3.7453    -0.9136 C.ar    
  21 C21           -3.0796    -3.4915    -0.1266 C.ar    
  22 Cl22           3.2859     2.8161     1.7294 Cl      
  23 O23           -4.4155    -3.6328    -0.3754 O.3     
  24 C24           -5.0789    -2.8414     0.6280 C.3     
  25 O25           -4.1513    -2.8374     1.7291 O.3     
  26 H26           -0.8983     2.0143    -0.2064 H       
  27 H27           -0.8582    -0.6369     0.2307 H       
  28 H28            1.5875     2.8293    -0.3539 H       
  29 H29            5.9565    -0.8661    -1.4324 H       
  30 H30            7.2743     0.7372    -0.1125 H       
  31 H31            6.0992     2.3994     1.3146 H       
  32 H32            0.9820    -3.0844     2.2690 H       
  33 H33            0.1652    -3.7123    -1.0334 H       
  34 H34           -1.5184    -2.4005     2.6708 H       
  35 H35           -2.0942    -4.1243    -1.9171 H       
  36 H36           -5.2481    -1.8273     0.2659 H       
  37 H37           -6.0201    -3.3062     0.9218 H       
@<TRIPOS>BOND
   1    1    2 1
   2    1    5 2
   3    1   26 1
   4    2    3 2
   5    2   27 1
   6    3    4 1
   7    3   12 1
   8    4    5 1
   9    4    6 1
  10    5   28 1
  11    6    7 ar
  12    6    8 ar
  13    7   22 1
  14    7   11 ar
  15    8    9 ar
  16    9   10 ar
  17    9   29 1
  18   10   11 ar
  19   10   30 1
  20   11   31 1
  21   12   13 2
  22   12   14 2
  23   12   15 am
  24   15   16 1
  25   15   32 1
  26   16   17 ar
  27   16   19 ar
  28   17   20 ar
  29   17   33 1
  30   18   19 ar
  31   18   21 ar
  32   18   25 1
  33   19   34 1
  34   20   21 ar
  35   20   35 1
  36   21   23 1
  37   23   24 1
  38   24   25 1
  39   24   36 1
  40   24   37 1

#	End of record

