#	Name: ASD01901152
#	Creating user name:	WinNT
#	Creation time:	15. 06. 2019 19:53

#	Modifying user name:	WinNT
#	Modification time:	15. 06. 2019 19:53

#	Program:	/corina/corina34_cracker 3.40 0067  02.08.2006

@<TRIPOS>MOLECULE
ASD01901152
  48   50    0    0    0
SMALL
NO_CHARGES


@<TRIPOS>ATOM
   1 C1            -0.0166     1.3750     0.0096 C.ar    
   2 C2             0.0021    -0.0041     0.0020 C.ar    
   3 C3             1.2078    -0.6830    -0.0131 C.ar    
   4 C4             2.4027     0.0149    -0.0208 C.ar    
   5 C5             2.3997     1.3941    -0.0129 C.ar    
   6 C6             1.1860     2.0866     0.0019 C.ar    
   7 C7             1.1748     3.5185     0.0093 C.1     
   8 C8             1.1655     4.6925     0.0153 C.1     
   9 C9             1.1543     6.1244     0.0226 C.ar    
  10 C10            2.3583     6.8345     0.0149 C.ar    
  11 C11            2.3436     8.2144     0.0215 C.ar    
  12 C12            1.1325     8.8988     0.0358 C.ar    
  13 C13           -0.0678     8.1953     0.0435 C.ar    
  14 C14           -0.0608     6.8154     0.0316 C.ar    
  15 N15            1.1215    10.3012     0.0430 N.am    
  16 C16            1.1058    10.9687    -1.1228 C.2     
  17 N17            1.3326    12.2911    -1.1791 N.am    
  18 C18            1.7285    13.0383     0.0161 C.3     
  19 C19            1.0131    12.4617     1.2399 C.3     
  20 C20            1.1212    10.9580     1.2174 C.2     
  21 O21            0.8813    10.3611    -2.1511 O.2     
  22 F22            3.5068     8.9015     0.0146 F       
  23 O23            1.2115    10.3412     2.2573 O.2     
  24 F24           -1.2416     8.8640     0.0574 F       
  25 C25            1.1824    12.9959    -2.4546 C.3     
  26 C26            3.2419    12.9252     0.2101 C.3     
  27 C27            1.3449    14.5098    -0.1523 C.3     
  28 C28            3.9574    13.5027    -1.0128 C.3     
  29 H29           -0.9584     1.9035     0.0169 H       
  30 H30           -0.9266    -0.5554     0.0083 H       
  31 H31            1.2163    -1.7630    -0.0187 H       
  32 H32            3.3399    -0.5217    -0.0326 H       
  33 H33            3.3330     1.9375    -0.0182 H       
  34 H34            3.2989     6.3039     0.0042 H       
  35 H35           -0.9929     6.2700     0.0331 H       
  36 H36            1.4758    12.8481     2.1480 H       
  37 H37           -0.0384    12.7481     1.2157 H       
  38 H38            0.8858    12.2878    -3.2283 H       
  39 H39            0.4184    13.7671    -2.3558 H       
  40 H40            2.1311    13.4574    -2.7287 H       
  41 H41            3.5368    13.4814     1.0999 H       
  42 H42            3.5156    11.8769     0.3296 H       
  43 H43            0.2668    14.5907    -0.2909 H       
  44 H44            1.6396    15.0662     0.7375 H       
  45 H45            1.8551    14.9209    -1.0234 H       
  46 H46            5.0356    13.4221    -0.8746 H       
  47 H47            3.6625    12.9465    -1.9026 H       
  48 H48            3.6838    14.5510    -1.1324 H       
@<TRIPOS>BOND
   1    1    2 ar
   2    1    6 ar
   3    1   29 1
   4    2    3 ar
   5    2   30 1
   6    3    4 ar
   7    3   31 1
   8    4    5 ar
   9    4   32 1
  10    5    6 ar
  11    5   33 1
  12    6    7 1
  13    7    8 3
  14    8    9 1
  15    9   10 ar
  16    9   14 ar
  17   10   11 ar
  18   10   34 1
  19   11   12 ar
  20   11   22 1
  21   12   13 ar
  22   12   15 1
  23   13   14 ar
  24   13   24 1
  25   14   35 1
  26   15   16 am
  27   15   20 am
  28   16   17 am
  29   16   21 2
  30   17   18 1
  31   17   25 1
  32   18   19 1
  33   18   27 1
  34   18   26 1
  35   19   20 1
  36   19   36 1
  37   19   37 1
  38   20   23 2
  39   25   38 1
  40   25   39 1
  41   25   40 1
  42   26   28 1
  43   26   41 1
  44   26   42 1
  45   27   43 1
  46   27   44 1
  47   27   45 1
  48   28   46 1
  49   28   47 1
  50   28   48 1

#	End of record

