#	Name: ASD01913422
#	Creating user name:	WinNT
#	Creation time:	15. 06. 2019 20:01

#	Modifying user name:	WinNT
#	Modification time:	15. 06. 2019 20:01

#	Program:	/corina/corina34_cracker 3.40 0067  02.08.2006

@<TRIPOS>MOLECULE
ASD01913422
  31   33    0    0    0
SMALL
NO_CHARGES


@<TRIPOS>ATOM
   1 C1            -0.3597    -0.7339    -2.2463 C.ar    
   2 C2            -0.6984    -0.0501    -1.0830 C.ar    
   3 C3            -0.5581     1.3339    -1.0673 C.ar    
   4 N4            -0.1108     1.9461    -2.1512 N.ar    
   5 C5             0.1997     1.2628    -3.2345 C.ar    
   6 N6             0.0805    -0.0486    -3.2886 N.ar    
   7 C7            -1.1682    -2.0752    -0.0312 C.ar    
   8 C8            -0.0506    -2.7925     0.3738 C.ar    
   9 C9            -0.0604    -4.1749     0.3397 C.ar    
  10 C10           -1.1809    -4.8507    -0.0975 C.ar    
  11 C11           -2.3097    -4.1381    -0.5069 C.ar    
  12 C12           -2.2987    -2.7435    -0.4717 C.ar    
  13 C13           -3.5118    -4.8587    -0.9764 C.2     
  14 N14           -3.5196    -6.2060    -1.0100 N.am    
  15 C15           -4.6492    -6.8831    -1.4512 C.2     
  16 O16           -4.4933    -4.2361    -1.3323 O.2     
  17 O17           -1.1550    -0.7170     0.0097 O.3     
  18 S18           -4.7970    -8.5838    -1.5456 S.3     
  19 C19           -6.4394    -8.4175    -2.1609 C.2     
  20 C20           -6.7225    -7.1157    -2.2381 C.2     
  21 N21           -5.7470    -6.3177    -1.8462 N.2     
  22 H22           -0.4507    -1.8089    -2.2961 H       
  23 H23           -0.8109     1.9002    -0.1831 H       
  24 H24            0.5618     1.7928    -4.1031 H       
  25 H25            0.8297    -2.2690     0.7164 H       
  26 H26            0.8121    -4.7273     0.6561 H       
  27 H27           -1.1848    -5.9304    -0.1235 H       
  28 H28           -3.1689    -2.1868    -0.7867 H       
  29 H29           -2.7364    -6.7028    -0.7260 H       
  30 H30           -7.1013    -9.2276    -2.4292 H       
  31 H31           -7.6743    -6.7452    -2.5892 H       
@<TRIPOS>BOND
   1    1    2 ar
   2    1    6 ar
   3    1   22 1
   4    2    3 ar
   5    2   17 1
   6    3    4 ar
   7    3   23 1
   8    4    5 ar
   9    5    6 ar
  10    5   24 1
  11    7    8 ar
  12    7   12 ar
  13    7   17 1
  14    8    9 ar
  15    8   25 1
  16    9   10 ar
  17    9   26 1
  18   10   11 ar
  19   10   27 1
  20   11   12 ar
  21   11   13 1
  22   12   28 1
  23   13   14 am
  24   13   16 2
  25   14   15 1
  26   14   29 1
  27   15   18 1
  28   15   21 2
  29   18   19 1
  30   19   20 2
  31   19   30 1
  32   20   21 1
  33   20   31 1

#	End of record

