#	Name: ASD08390030
#	Creating user name:	WinNT
#	Creation time:	15. 06. 2019 21:19

#	Modifying user name:	WinNT
#	Modification time:	15. 06. 2019 21:19

#	Program:	/corina/corina34_cracker 3.40 0067  02.08.2006

@<TRIPOS>MOLECULE
ASD08390030
  36   37    0    0    0
SMALL
NO_CHARGES


@<TRIPOS>ATOM
   1 N1            -0.0179     1.4651     0.0101 N.2     
   2 C2             0.0021    -0.0041     0.0020 C.3     
   3 C3             1.5024    -0.3580    -0.0142 C.3     
   4 N4             2.1606     0.9592    -0.0134 N.pl3   
   5 C5             1.1890     1.9264     0.0011 C.2     
   6 C6             1.4963     3.3750     0.0059 C.ar    
   7 C7             0.4618     4.3101     0.0208 C.ar    
   8 C8             0.7545     5.6586     0.0252 C.ar    
   9 C9             2.0709     6.0835     0.0144 C.ar    
  10 C10            3.1014     5.1607    -0.0009 C.ar    
  11 C11            2.8215     3.8095     0.0013 C.ar    
  12 C12           -0.6654    -0.5563     1.2631 C.3     
  13 C13            1.8775    -1.1405     1.2179 C.2     
  14 O14            2.4125    -0.5839     2.1474 O.2     
  15 O15            1.6171    -2.4557     1.2828 O.3     
  16 C16            2.0059    -3.1453     2.5000 C.3     
  17 C17            1.6316    -4.6247     2.3897 C.3     
  18 C18           -0.6791    -0.5347    -1.2331 C.2     
  19 O19           -0.2549    -1.5260    -1.7783 O.2     
  20 O20           -1.7570     0.0941    -1.7276 O.3     
  21 H21            1.7566    -0.9143    -0.9164 H       
  22 H22            3.1178     1.1158    -0.0217 H       
  23 H23           -0.5664     3.9795     0.0285 H       
  24 H24           -0.0458     6.3837     0.0367 H       
  25 H25            2.2950     7.1400     0.0175 H       
  26 H26            4.1272     5.4985    -0.0096 H       
  27 H27            3.6268     3.0900    -0.0053 H       
  28 H28           -1.7075    -0.2379     1.2918 H       
  29 H29           -0.6184    -1.6452     1.2520 H       
  30 H30           -0.1460    -0.1791     2.1440 H       
  31 H31            3.0826    -3.0525     2.6421 H       
  32 H32            1.4877    -2.7019     3.3502 H       
  33 H33            1.9235    -5.1425     3.3034 H       
  34 H34            0.5549    -4.7175     2.2476 H       
  35 H35            2.1499    -5.0682     1.5394 H       
  36 H36           -2.1597    -0.2836    -2.5215 H       
@<TRIPOS>BOND
   1    1    2 1
   2    1    5 2
   3    2    3 1
   4    2   12 1
   5    2   18 1
   6    3    4 1
   7    3   13 1
   8    3   21 1
   9    4    5 1
  10    4   22 1
  11    5    6 1
  12    6    7 ar
  13    6   11 ar
  14    7    8 ar
  15    7   23 1
  16    8    9 ar
  17    8   24 1
  18    9   10 ar
  19    9   25 1
  20   10   11 ar
  21   10   26 1
  22   11   27 1
  23   12   28 1
  24   12   29 1
  25   12   30 1
  26   13   14 2
  27   13   15 1
  28   15   16 1
  29   16   17 1
  30   16   31 1
  31   16   32 1
  32   17   33 1
  33   17   34 1
  34   17   35 1
  35   18   19 2
  36   18   20 1
  37   20   36 1

#	End of record

