#	Name: ASD05310005
#	Creating user name:	WinNT
#	Creation time:	15. 06. 2019 20:58

#	Modifying user name:	WinNT
#	Modification time:	15. 06. 2019 20:58

#	Program:	/corina/corina34_cracker 3.40 0067  02.08.2006

@<TRIPOS>MOLECULE
ASD05310005
  67   71    0    0    0
SMALL
NO_CHARGES


@<TRIPOS>ATOM
   1 C1             2.2788     7.4026     3.4577 C.ar    
   2 C2             2.9920     7.8896     4.5388 C.ar    
   3 C3             4.3294     7.5625     4.6766 C.ar    
   4 N4             4.9393     6.7940     3.7959 N.ar    
   5 C5             4.3049     6.3008     2.7428 C.ar    
   6 C6             2.9444     6.5886     2.5342 C.ar    
   7 C7             2.2324     6.0427     1.3647 C.2     
   8 O8             2.8217     5.3365     0.5692 O.2     
   9 S9             5.1704     5.2793     1.5972 S.3     
  10 C10            6.8009     5.3954     2.2549 C.ar    
  11 C11            7.2033     4.5405     3.2736 C.ar    
  12 C12            8.4821     4.6339     3.7864 C.ar    
  13 C13            9.3618     5.5771     3.2872 C.ar    
  14 C14            8.9644     6.4300     2.2736 C.ar    
  15 C15            7.6890     6.3383     1.7522 C.ar    
  16 N16            0.9282     6.3261     1.1771 N.am    
  17 C17            0.2205     5.7835     0.0148 C.3     
  18 C18           -1.2605     6.1581     0.0989 C.3     
  19 N19           -1.8089     5.7084     1.3853 N.3     
  20 C20           -1.4123     7.6777    -0.0198 C.3     
  21 C21           -0.9086     8.1273    -1.3938 C.3     
  22 O22           -1.6394     7.4444    -2.4144 O.3     
  23 C23           -1.4970     6.0229    -2.3822 C.3     
  24 C24           -2.0246     5.4869    -1.0466 C.3     
  25 C25           -3.7332     5.6721     2.8983 C.3     
  26 C26           -3.2227     6.0870     1.5164 C.3     
  27 C27           -1.6372     4.2586     1.5531 C.3     
  28 C28           -2.1476     3.8436     2.9350 C.3     
  29 N29           -3.5615     4.2223     3.0661 N.3     
  30 C30           -4.0829     3.7947     4.2893 C.ar    
  31 C31           -5.1855     4.2835     6.3620 C.ar    
  32 C32           -4.6706     4.7097     5.1535 C.ar    
  33 C33           -4.0201     2.4525     4.6418 C.ar    
  34 C34           -4.5370     2.0331     5.8518 C.ar    
  35 C35           -5.1170     2.9474     6.7119 C.ar    
  36 H36            1.2330     7.6411     3.3320 H       
  37 H37            2.5084     8.5208     5.2697 H       
  38 H38            4.8841     7.9441     5.5211 H       
  39 H39            6.5167     3.8040     3.6641 H       
  40 H40            8.7954     3.9700     4.5784 H       
  41 H41           10.3613     5.6480     3.6900 H       
  42 H42            9.6538     7.1656     1.8863 H       
  43 H43            7.3809     7.0014     0.9574 H       
  44 H44            0.4581     6.8894     1.8117 H       
  45 H45            0.6490     6.1983    -0.8976 H       
  46 H46            0.3207     4.6982     0.0025 H       
  47 H47           -2.4624     7.9485     0.0898 H       
  48 H48           -0.8264     8.1643     0.7601 H       
  49 H49           -1.0538     9.2024    -1.5002 H       
  50 H50            0.1517     7.8925    -1.4869 H       
  51 H51           -2.0659     5.5819    -3.2006 H       
  52 H52           -0.4443     5.7605    -2.4883 H       
  53 H53           -1.8763     4.4080    -1.0004 H       
  54 H54           -3.0871     5.7135    -0.9577 H       
  55 H55           -3.1669     6.1968     3.6678 H       
  56 H56           -4.7896     5.9259     2.9871 H       
  57 H57           -3.3224     7.1663     1.4009 H       
  58 H58           -3.8070     5.5831     0.7465 H       
  59 H59           -2.2035     3.7339     0.7836 H       
  60 H60           -0.5808     4.0048     1.4644 H       
  61 H61           -2.0480     2.7643     3.0505 H       
  62 H62           -1.5633     4.3475     3.7049 H       
  63 H63           -5.6422     4.9945     7.0346 H       
  64 H64           -4.7244     5.7534     4.8809 H       
  65 H65           -3.5678     1.7378     3.9702 H       
  66 H66           -4.4884     0.9897     6.1265 H       
  67 H67           -5.5205     2.6168     7.6576 H       
@<TRIPOS>BOND
   1    1    2 ar
   2    1    6 ar
   3    1   36 1
   4    2    3 ar
   5    2   37 1
   6    3    4 ar
   7    3   38 1
   8    4    5 ar
   9    5    6 ar
  10    5    9 1
  11    6    7 1
  12    7    8 2
  13    7   16 am
  14    9   10 1
  15   10   11 ar
  16   10   15 ar
  17   11   12 ar
  18   11   39 1
  19   12   13 ar
  20   12   40 1
  21   13   14 ar
  22   13   41 1
  23   14   15 ar
  24   14   42 1
  25   15   43 1
  26   16   17 1
  27   16   44 1
  28   17   18 1
  29   17   45 1
  30   17   46 1
  31   18   19 1
  32   18   20 1
  33   18   24 1
  34   19   27 1
  35   19   26 1
  36   20   21 1
  37   20   47 1
  38   20   48 1
  39   21   22 1
  40   21   49 1
  41   21   50 1
  42   22   23 1
  43   23   24 1
  44   23   51 1
  45   23   52 1
  46   24   53 1
  47   24   54 1
  48   25   26 1
  49   25   29 1
  50   25   55 1
  51   25   56 1
  52   26   57 1
  53   26   58 1
  54   27   28 1
  55   27   59 1
  56   27   60 1
  57   28   29 1
  58   28   61 1
  59   28   62 1
  60   29   30 1
  61   30   33 ar
  62   30   32 ar
  63   31   32 ar
  64   31   35 ar
  65   31   63 1
  66   32   64 1
  67   33   34 ar
  68   33   65 1
  69   34   35 ar
  70   34   66 1
  71   35   67 1

#	End of record

