#	Name: ASD06142002
#	Creating user name:	WinNT
#	Creation time:	15. 06. 2019 21:05

#	Modifying user name:	WinNT
#	Modification time:	15. 06. 2019 21:05

#	Program:	/corina/corina34_cracker 3.40 0067  02.08.2006

@<TRIPOS>MOLECULE
ASD06142002
  40   42    0    0    0
SMALL
NO_CHARGES


@<TRIPOS>ATOM
   1 C1            -0.0169     1.3928     0.0097 C.ar    
   2 C2             0.0021    -0.0041     0.0020 C.ar    
   3 C3            -1.1843    -0.7070     0.0100 C.ar    
   4 C4            -2.3935    -0.0317     0.0257 C.ar    
   5 C5            -2.4207     1.3530     0.0334 C.ar    
   6 C6            -1.2410     2.0691     0.0309 C.ar    
   7 Cl7           -1.2763     3.8047     0.0405 Cl      
   8 C8             1.2486     2.1511     0.0017 C.2     
   9 C9             1.5605     3.1851    -0.8520 C.2     
  10 C10            2.8469     3.6162    -0.5186 C.2     
  11 C11            3.2742     2.8244     0.5324 C.2     
  12 O12            2.2889     1.9519     0.8313 O.3     
  13 C13            4.5227     2.9170     1.1835 C.2     
  14 C14            4.8204     2.0705     2.2123 C.2     
  15 S15            3.8021     0.7871     2.8948 S.3     
  16 C16            5.0011     0.2949     4.1051 C.2     
  17 N17            6.0586     1.0998     3.9271 N.am    
  18 C18            6.0157     2.0138     2.9731 C.2     
  19 C19            7.2468     0.9641     4.7734 C.3     
  20 C20            8.2059    -0.0107     4.1402 C.2     
  21 O21            7.9257    -0.5379     3.0897 O.2     
  22 C22           10.2459    -1.2410     4.0759 C.3     
  23 O23            9.3714    -0.2932     4.7431 O.3     
  24 O24            4.8872    -0.5925     4.9294 O.2     
  25 Cl25          -3.8820    -0.9251     0.0351 Cl      
  26 O26            6.9463     2.7717     2.7661 O.2     
  27 C27           11.5161    -1.4348     4.9065 C.3     
  28 H28            0.9439    -0.5324    -0.0105 H       
  29 H29           -1.1706    -1.7869     0.0038 H       
  30 H30           -3.3670     1.8734     0.0456 H       
  31 H31            0.9303     3.5868    -1.6317 H       
  32 H32            3.4012     4.4138    -0.9906 H       
  33 H33            5.2426     3.6577     0.8680 H       
  34 H34            7.7314     1.9349     4.8777 H       
  35 H35            6.9524     0.5974     5.7568 H       
  36 H36            9.7323    -2.1964     3.9692 H       
  37 H37           10.5112    -0.8590     3.0902 H       
  38 H38           12.0298    -0.4794     5.0133 H       
  39 H39           11.2509    -1.8169     5.8923 H       
  40 H40           12.1727    -2.1464     4.4057 H       
@<TRIPOS>BOND
   1    1    2 ar
   2    1    8 1
   3    1    6 ar
   4    2    3 ar
   5    2   28 1
   6    3    4 ar
   7    3   29 1
   8    4    5 ar
   9    4   25 1
  10    5    6 ar
  11    5   30 1
  12    6    7 1
  13    8    9 2
  14    8   12 1
  15    9   10 1
  16    9   31 1
  17   10   11 2
  18   10   32 1
  19   11   12 1
  20   11   13 1
  21   13   14 2
  22   13   33 1
  23   14   15 1
  24   14   18 1
  25   15   16 1
  26   16   17 am
  27   16   24 2
  28   17   18 am
  29   17   19 1
  30   18   26 2
  31   19   20 1
  32   19   34 1
  33   19   35 1
  34   20   21 2
  35   20   23 1
  36   22   23 1
  37   22   27 1
  38   22   36 1
  39   22   37 1
  40   27   38 1
  41   27   39 1
  42   27   40 1

#	End of record

