#	Name: ASD01913769
#	Creating user name:	WinNT
#	Creation time:	15. 06. 2019 20:02

#	Modifying user name:	WinNT
#	Modification time:	15. 06. 2019 20:02

#	Program:	/corina/corina34_cracker 3.40 0067  02.08.2006

@<TRIPOS>MOLECULE
ASD01913769
  44   46    0    0    0
SMALL
NO_CHARGES


@<TRIPOS>ATOM
   1 O1            -0.0163     1.3508     0.0095 O.3     
   2 C2             0.0021    -0.0041     0.0020 C.ar    
   3 N3             1.1629    -0.6408    -0.0125 N.ar    
   4 C4             1.2330    -1.9556    -0.0202 C.ar    
   5 C5             0.0719    -2.7293    -0.0137 C.ar    
   6 C6            -1.1744    -2.0856     0.0016 C.ar    
   7 C7            -1.1994    -0.7064     0.0154 C.ar    
   8 C8             0.1538    -4.2032    -0.0234 C.2     
   9 N9             1.3565    -4.8112    -0.0386 N.am    
  10 O10           -0.8637    -4.8686    -0.0177 O.2     
  11 C11            1.2480     2.0168     0.0010 C.3     
  12 C12            1.0303     3.5079     0.0111 C.ar    
  13 C13            0.9419     4.1851     1.2128 C.ar    
  14 C14            0.7418     5.5532     1.2236 C.ar    
  15 C15            0.6298     6.2450     0.0328 C.ar    
  16 C16            0.7186     5.5677    -1.1718 C.ar    
  17 C17            0.9247     4.1988    -1.1815 C.ar    
  18 C18            1.4378    -6.2739    -0.0482 C.3     
  19 C19            2.7456    -6.7003    -0.6638 C.ar    
  20 F20            0.6093     6.2431    -2.3368 F       
  21 N21            3.7773    -5.8798    -0.6357 N.ar    
  22 C22            4.9407    -6.2102    -1.1617 C.ar    
  23 C23            5.1194    -7.4397    -1.7664 C.ar    
  24 C24            4.0569    -8.3296    -1.8152 C.ar    
  25 C25            2.8512    -7.9494    -1.2464 C.ar    
  26 F26            0.1403    -6.4029     1.9580 F       
  27 F27            1.4319    -8.1956     1.3774 F       
  28 C28            1.3543    -6.7988     1.3865 C.3     
  29 F29            2.4145    -6.2777     2.1361 F       
  30 H30            2.1983    -2.4397    -0.0320 H       
  31 H31           -2.0916    -2.6557     0.0069 H       
  32 H32           -2.1409    -0.1774     0.0278 H       
  33 H33            2.1684    -4.2803    -0.0432 H       
  34 H34            1.8174     1.7267     0.8840 H       
  35 H35            1.8004     1.7363    -0.8958 H       
  36 H36            1.0289     3.6451     2.1441 H       
  37 H37            0.6725     6.0812     2.1632 H       
  38 H38            0.4728     7.3135     0.0415 H       
  39 H39            0.9941     3.6695    -2.1203 H       
  40 H40            0.6118    -6.6799    -0.6322 H       
  41 H41            5.7632    -5.5116    -1.1195 H       
  42 H42            6.0744    -7.7042    -2.1959 H       
  43 H43            4.1673    -9.2973    -2.2818 H       
  44 H44            2.0027    -8.6173    -1.2658 H       
@<TRIPOS>BOND
   1    1    2 1
   2    1   11 1
   3    2    3 ar
   4    2    7 ar
   5    3    4 ar
   6    4    5 ar
   7    4   30 1
   8    5    6 ar
   9    5    8 1
  10    6    7 ar
  11    6   31 1
  12    7   32 1
  13    8    9 am
  14    8   10 2
  15    9   18 1
  16    9   33 1
  17   11   12 1
  18   11   34 1
  19   11   35 1
  20   12   13 ar
  21   12   17 ar
  22   13   14 ar
  23   13   36 1
  24   14   15 ar
  25   14   37 1
  26   15   16 ar
  27   15   38 1
  28   16   17 ar
  29   16   20 1
  30   17   39 1
  31   18   19 1
  32   18   28 1
  33   18   40 1
  34   19   21 ar
  35   19   25 ar
  36   21   22 ar
  37   22   23 ar
  38   22   41 1
  39   23   24 ar
  40   23   42 1
  41   24   25 ar
  42   24   43 1
  43   25   44 1
  44   26   28 1
  45   27   28 1
  46   28   29 1

#	End of record

