#	Name: ASD03180080
#	Creating user name:	WinNT
#	Creation time:	15. 06. 2019 20:33

#	Modifying user name:	WinNT
#	Modification time:	15. 06. 2019 20:33

#	Program:	/corina/corina34_cracker 3.40 0067  02.08.2006

@<TRIPOS>MOLECULE
ASD03180080
  40   42    0    0    0
SMALL
NO_CHARGES


@<TRIPOS>ATOM
   1 C1            -0.0159     1.3201     0.0093 C.ar    
   2 C2            -1.1117    -0.7110     0.0084 C.ar    
   3 C3            -2.3448    -0.0897     0.0230 C.ar    
   4 C4            -2.4074     1.2972     0.0205 C.ar    
   5 C5            -1.2226     2.0116     0.0187 C.ar    
   6 N6             0.0021    -0.0041     0.0020 N.ar    
   7 C7            -1.2393     3.5185     0.0275 C.3     
   8 N8             1.1833     2.0260     0.0016 N.pl3   
   9 C9             2.3901     1.3427    -0.0136 C.2     
  10 N10            3.5634     1.8954    -0.0166 N.2     
  11 S11            2.5662    -0.4092    -0.0240 S.3     
  12 C12            4.3195    -0.2364    -0.0391 C.2     
  13 C13            4.6147     1.0767    -0.0312 C.2     
  14 C14            6.0072     1.5755    -0.0362 C.2     
  15 S15            7.4647     0.5855    -0.0563 S.3     
  16 C16            8.4335     1.9939    -0.0492 C.2     
  17 N17            7.6917     3.0498    -0.0335 N.2     
  18 C18            6.3883     2.8709    -0.0319 C.2     
  19 C19            5.4054     4.0132    -0.0220 C.3     
  20 C20            9.9405     2.0014    -0.0599 C.3     
  21 C21           -1.1263     4.0381    -1.4071 C.3     
  22 C22           -1.0372    -2.2162     0.0116 C.3     
  23 H23           -3.2514    -0.6767     0.0282 H       
  24 H24           -3.3595     1.8070     0.0313 H       
  25 H25           -2.1725     3.8689     0.4684 H       
  26 H26           -0.3986     3.8877     0.6149 H       
  27 H27            1.1751     2.9960     0.0069 H       
  28 H28            5.0348    -1.0455    -0.0498 H       
  29 H29            5.1732     4.2838     1.0080 H       
  30 H30            5.8406     4.8715    -0.5338 H       
  31 H31            4.4914     3.7105    -0.5330 H       
  32 H32           10.2965     2.0134    -1.0900 H       
  33 H33           10.3031     2.8880     0.4602 H       
  34 H34           10.3118     1.1082     0.4425 H       
  35 H35           -1.1383     5.1280    -1.4008 H       
  36 H36           -0.1931     3.6876    -1.8481 H       
  37 H37           -1.9669     3.6688    -1.9946 H       
  38 H38           -1.0329    -2.5820    -1.0151 H       
  39 H39           -0.1236    -2.5337     0.5143 H       
  40 H40           -1.9012    -2.6216     0.5381 H       
@<TRIPOS>BOND
   1    1    6 ar
   2    1    8 1
   3    1    5 ar
   4    2    3 ar
   5    2    6 ar
   6    2   22 1
   7    3    4 ar
   8    3   23 1
   9    4    5 ar
  10    4   24 1
  11    5    7 1
  12    7   21 1
  13    7   25 1
  14    7   26 1
  15    8    9 1
  16    8   27 1
  17    9   11 1
  18    9   10 2
  19   10   13 1
  20   11   12 1
  21   12   13 2
  22   12   28 1
  23   13   14 1
  24   14   15 1
  25   14   18 2
  26   15   16 1
  27   16   17 2
  28   16   20 1
  29   17   18 1
  30   18   19 1
  31   19   29 1
  32   19   30 1
  33   19   31 1
  34   20   32 1
  35   20   33 1
  36   20   34 1
  37   21   35 1
  38   21   36 1
  39   21   37 1
  40   22   38 1
  41   22   39 1
  42   22   40 1

#	End of record

