#	Name: ASD01240012
#	Creating user name:	WinNT
#	Creation time:	15. 06. 2019 19:15

#	Modifying user name:	WinNT
#	Modification time:	15. 06. 2019 19:15

#	Program:	/corina/corina34_cracker 3.40 0067  02.08.2006

@<TRIPOS>MOLECULE
ASD01240012
 131  133    0    0    0
SMALL
NO_CHARGES


@<TRIPOS>ATOM
   1 C1            -0.0453     1.5318     0.5662 C.2     
   2 C2            -0.0282     0.0250     0.5877 C.3     
   3 C3             1.4123    -0.4664     0.7439 C.3     
   4 C4             1.4297    -1.9962     0.7657 C.3     
   5 C5             2.8702    -2.4876     0.9220 C.3     
   6 C6             2.8876    -4.0174     0.9438 C.3     
   7 C7             4.3281    -4.5089     1.1000 C.3     
   8 C8             4.3455    -6.0386     1.1218 C.3     
   9 C9             5.7859    -6.5301     1.2781 C.3     
  10 C10            5.8033    -8.0598     1.2999 C.3     
  11 C11            7.2438    -8.5513     1.4561 C.3     
  12 C12            7.2612   -10.0810     1.4779 C.3     
  13 C13            8.7017   -10.5725     1.6342 C.3     
  14 C14            8.7191   -12.1022     1.6560 C.3     
  15 C15           10.1595   -12.5937     1.8122 C.3     
  16 C16           10.1769   -14.1235     1.8340 C.3     
  17 O17            0.9928     2.1518     0.6661 O.2     
  18 S18           -1.5289     2.3686     0.3938 S.3     
  19 C19           -0.9328     4.0771     0.4365 C.3     
  20 C20           -2.1180     5.0344     0.2950 C.3     
  21 N21           -1.6356     6.4172     0.3295 N.am    
  22 C22           -2.5085     7.4384     0.2212 C.2     
  23 C23           -2.0122     8.8609     0.2567 C.3     
  24 C24           -3.1974     9.8181     0.1153 C.3     
  25 O25           -3.6934     7.2125     0.0952 O.2     
  26 N26           -2.7150    11.2010     0.1498 N.am    
  27 C27           -3.5879    12.2221     0.0415 C.2     
  28 C28           -3.1078    13.6429     0.1902 C.3     
  29 C29           -3.7014    14.2512     1.4624 C.3     
  30 C30           -3.1085    15.6437     1.6865 C.3     
  31 O31           -4.7598    11.9977    -0.1757 O.2     
  32 C32           -5.2202    14.3614     1.3144 C.3     
  33 C33           -3.3691    13.3569     2.6585 C.3     
  34 O34           -1.6814    13.6571     0.2761 O.3     
  35 O35           -3.6629    16.2119     2.8747 O.3     
  36 P36           -3.2629    17.6743     3.4166 P.3     
  37 O37           -1.7941    17.7554     3.5791 O.2     
  38 O38           -3.7486    18.7891     2.3614 O.3     
  39 O39           -3.9751    17.9335     4.8371 O.3     
  40 P40           -3.7625    19.0106     6.0147 P.3     
  41 O41           -2.3147    19.2432     6.2151 O.2     
  42 O42           -4.4777    20.3954     5.6110 O.3     
  43 O43           -4.4097    18.4498     7.3781 O.3     
  44 C44           -4.2947    19.1280     8.6307 C.3     
  45 O45           -4.3492    17.0682     9.9421 O.3     
  46 C46           -5.0204    18.3264     9.7131 C.3     
  47 C47           -4.9483    19.0645    11.0682 C.3     
  48 C48           -4.7847    17.9308    12.1051 C.3     
  49 C49           -4.7774    16.6417    11.2538 C.3     
  50 O50           -6.1551    19.7915    11.3073 O.3     
  51 P51           -6.1914    21.3882    11.5106 P.3     
  52 O52           -5.2697    21.7672    12.6047 O.2     
  53 O53           -5.7337    22.1132    10.1479 O.3     
  54 O54           -7.6880    21.8475    11.8863 O.3     
  55 O55           -5.8856    17.9228    13.0162 O.3     
  56 N56           -1.9769    14.5713    12.1503 N.2     
  57 C57           -2.5208    15.5314    11.4605 C.2     
  58 N58           -3.8316    15.6699    11.8081 N.pl3   
  59 C59           -4.1026    14.7325    12.7726 C.ar    
  60 N60           -5.1780    14.3932    13.4756 N.ar    
  61 C61           -5.1229    13.4170    14.3571 C.ar    
  62 N62           -4.0175    12.7329    14.5888 N.ar    
  63 C63           -2.8923    13.0005    13.9339 C.ar    
  64 C64           -2.9013    14.0340    12.9821 C.ar    
  65 N65           -1.7386    12.2782    14.1840 N.pl3   
  66 H66           -0.6271    -0.3332     1.4249 H       
  67 H67           -0.4430    -0.3564    -0.3453 H       
  68 H68            2.0113    -0.1081    -0.0933 H       
  69 H69            1.8272    -0.0850     1.6770 H       
  70 H70            0.8307    -2.3545     1.6030 H       
  71 H71            1.0149    -2.3776    -0.1673 H       
  72 H72            3.4692    -2.1294     0.0847 H       
  73 H73            3.2850    -2.1062     1.8550 H       
  74 H74            2.2886    -4.3757     1.7810 H       
  75 H75            2.4727    -4.3988     0.0108 H       
  76 H76            4.9270    -4.1506     0.2628 H       
  77 H77            4.7429    -4.1274     2.0331 H       
  78 H78            3.7465    -6.3969     1.9591 H       
  79 H79            3.9306    -6.4200     0.1888 H       
  80 H80            6.3849    -6.1718     0.4408 H       
  81 H81            6.2008    -6.1487     2.2111 H       
  82 H82            5.2044    -8.4181     2.1371 H       
  83 H83            5.3885    -8.4412     0.3668 H       
  84 H84            7.8428    -8.1930     0.6189 H       
  85 H85            7.6586    -8.1699     2.3891 H       
  86 H86            6.6622   -10.4393     2.3151 H       
  87 H87            6.8464   -10.4624     0.5449 H       
  88 H88            9.3006   -10.2142     0.7969 H       
  89 H89            9.1165   -10.1911     2.5672 H       
  90 H90            8.1201   -12.4605     2.4932 H       
  91 H91            8.3042   -12.4837     0.7229 H       
  92 H92           10.7585   -12.2354     0.9750 H       
  93 H93           10.5744   -12.2123     2.7452 H       
  94 H94           11.2032   -14.4736     1.9453 H       
  95 H95            9.5780   -14.4817     2.6712 H       
  96 H96            9.7621   -14.5049     0.9010 H       
  97 H97           -0.4275     4.2621     1.3844 H       
  98 H98           -0.2349     4.2391    -0.3850 H       
  99 H99           -2.6233     4.8494    -0.6529 H       
 100 H100          -2.8159     4.8724     1.1164 H       
 101 H101          -0.6879     6.5979     0.4304 H       
 102 H102          -1.5069     9.0458     1.2047 H       
 103 H103          -1.3143     9.0228    -0.5647 H       
 104 H104          -3.7027     9.6332    -0.8327 H       
 105 H105          -3.8953     9.6562     0.9367 H       
 106 H106          -1.7673    11.3817     0.2506 H       
 107 H107          -3.4256    14.2261    -0.6740 H       
 108 H108          -2.0264    15.5653     1.7920 H       
 109 H109          -3.3452    16.2809     0.8344 H       
 110 H110          -5.6543    13.3626     1.2690 H       
 111 H111          -5.6308    14.8974     2.1701 H       
 112 H112          -5.4577    14.9027     0.3986 H       
 113 H113          -2.2871    13.2784     2.7640 H       
 114 H114          -3.7920    13.7903     3.5648 H       
 115 H115          -3.7915    12.3648     2.4988 H       
 116 H116          -1.3274    13.1565     1.0238 H       
 117 H117          -4.7029    18.7937     2.2055 H       
 118 H118          -5.4303    20.3177     5.4639 H       
 119 H119          -3.2419    19.2259     8.8955 H       
 120 H120          -4.7427    20.1184     8.5502 H       
 121 H121          -6.0587    18.1562     9.4285 H       
 122 H122          -4.0874    19.7326    11.0939 H       
 123 H123          -3.8430    18.0384    12.6434 H       
 124 H124          -5.7785    16.2132    11.2055 H       
 125 H125          -6.2942    21.9096     9.3866 H       
 126 H126          -7.7844    22.7998    12.0235 H       
 127 H127          -5.8341    17.2304    13.6892 H       
 128 H128          -2.0090    16.1304    10.7218 H       
 129 H129          -6.0151    13.1665    14.9118 H       
 130 H130          -1.7450    11.5672    14.8438 H       
 131 H131          -0.9236    12.4830    13.6995 H       
@<TRIPOS>BOND
   1    1    2 1
   2    1   17 2
   3    1   18 1
   4    2    3 1
   5    2   66 1
   6    2   67 1
   7    3    4 1
   8    3   68 1
   9    3   69 1
  10    4    5 1
  11    4   70 1
  12    4   71 1
  13    5    6 1
  14    5   72 1
  15    5   73 1
  16    6    7 1
  17    6   74 1
  18    6   75 1
  19    7    8 1
  20    7   76 1
  21    7   77 1
  22    8    9 1
  23    8   78 1
  24    8   79 1
  25    9   10 1
  26    9   80 1
  27    9   81 1
  28   10   11 1
  29   10   82 1
  30   10   83 1
  31   11   12 1
  32   11   84 1
  33   11   85 1
  34   12   13 1
  35   12   86 1
  36   12   87 1
  37   13   14 1
  38   13   88 1
  39   13   89 1
  40   14   15 1
  41   14   90 1
  42   14   91 1
  43   15   16 1
  44   15   92 1
  45   15   93 1
  46   16   94 1
  47   16   95 1
  48   16   96 1
  49   18   19 1
  50   19   20 1
  51   19   97 1
  52   19   98 1
  53   20   21 1
  54   20   99 1
  55   20  100 1
  56   21   22 am
  57   21  101 1
  58   22   23 1
  59   22   25 2
  60   23   24 1
  61   23  102 1
  62   23  103 1
  63   24   26 1
  64   24  104 1
  65   24  105 1
  66   26   27 am
  67   26  106 1
  68   27   28 1
  69   27   31 2
  70   28   29 1
  71   28   34 1
  72   28  107 1
  73   29   30 1
  74   29   32 1
  75   29   33 1
  76   30   35 1
  77   30  108 1
  78   30  109 1
  79   32  110 1
  80   32  111 1
  81   32  112 1
  82   33  113 1
  83   33  114 1
  84   33  115 1
  85   34  116 1
  86   35   36 1
  87   36   37 2
  88   36   38 1
  89   36   39 1
  90   38  117 1
  91   39   40 1
  92   40   41 2
  93   40   42 1
  94   40   43 1
  95   42  118 1
  96   43   44 1
  97   44   46 1
  98   44  119 1
  99   44  120 1
 100   45   46 1
 101   45   49 1
 102   46   47 1
 103   46  121 1
 104   47   48 1
 105   47   50 1
 106   47  122 1
 107   48   49 1
 108   48   55 1
 109   48  123 1
 110   49   58 1
 111   49  124 1
 112   50   51 1
 113   51   52 2
 114   51   53 1
 115   51   54 1
 116   53  125 1
 117   54  126 1
 118   55  127 1
 119   56   57 2
 120   56   64 1
 121   57   58 1
 122   57  128 1
 123   58   59 1
 124   59   60 ar
 125   59   64 ar
 126   60   61 ar
 127   61   62 ar
 128   61  129 1
 129   62   63 ar
 130   63   64 ar
 131   63   65 1
 132   65  130 1
 133   65  131 1

#	End of record

