#	Name: ASD01884355
#	Creating user name:	WinNT
#	Creation time:	15. 06. 2019 19:48

#	Modifying user name:	WinNT
#	Modification time:	15. 06. 2019 19:48

#	Program:	/corina/corina34_cracker 3.40 0067  02.08.2006

@<TRIPOS>MOLECULE
ASD01884355
  50   52    0    0    0
SMALL
NO_CHARGES


@<TRIPOS>ATOM
   1 C1            -0.1549     1.5892    -0.7019 C.ar    
   2 C2            -0.3285     0.2269    -0.8095 C.ar    
   3 C3             0.6425    -0.6412    -0.3075 C.ar    
   4 C4             1.7884    -0.1239     0.3032 C.ar    
   5 C5             1.9547     1.2432     0.4071 C.ar    
   6 C6             0.9855     2.1015    -0.0942 C.ar    
   7 C7             0.4589    -2.1052    -0.4210 C.2     
   8 C8             1.1807    -2.8369    -1.3540 C.2     
   9 C9            -0.4505    -2.7836     0.4229 C.2     
  10 C10           -0.6054    -4.1189     0.3056 C.2     
  11 N11            0.1015    -4.8272    -0.6148 N.am    
  12 C12            0.9814    -4.2223    -1.4340 C.2     
  13 O13            1.6040    -4.8811    -2.2523 O.2     
  14 O14            1.1522     3.4451     0.0091 O.3     
  15 C15            0.6446     4.0686     1.1047 C.ar    
  16 C16            0.0723     3.3297     2.1353 C.ar    
  17 C17           -0.4314     4.0101     3.2323 C.ar    
  18 C18           -0.3496     5.3894     3.2668 C.ar    
  19 N19            0.1989     6.0603     2.2726 N.ar    
  20 C20            0.6948     5.4511     1.2142 C.ar    
  21 Cl21           2.3133    -2.0479    -2.4069 Cl      
  22 C22           -0.0936    -6.2759    -0.7126 C.3     
  23 C23           -1.2125    -6.5734    -1.7128 C.3     
  24 F24            2.7311    -0.9595     0.7913 F       
  25 C25            1.3108     6.2650     0.1056 C.3     
  26 C26           -0.8951     6.1369     4.4562 C.3     
  27 C27           -1.4163    -8.0864    -1.8148 C.3     
  28 C28           -2.5352    -8.3839    -2.8151 C.3     
  29 H29           -0.9042     2.2606    -1.0944 H       
  30 H30           -1.2154    -0.1692    -1.2817 H       
  31 H31            2.8393     1.6448     0.8789 H       
  32 H32           -1.0190    -2.2348     1.1592 H       
  33 H33           -1.3009    -4.6327     0.9527 H       
  34 H34            0.0216     2.2522     2.0815 H       
  35 H35           -0.8829     3.4690     4.0507 H       
  36 H36            0.8303    -6.7450    -1.0507 H       
  37 H37           -0.3657    -6.6726     0.2655 H       
  38 H38           -2.1364    -6.1043    -1.3746 H       
  39 H39           -0.9404    -6.1767    -2.6909 H       
  40 H40            2.3744     6.4004     0.3021 H       
  41 H41            1.1799     5.7446    -0.8432 H       
  42 H42            0.8237     7.2389     0.0560 H       
  43 H43           -0.1107     6.2513     5.2044 H       
  44 H44           -1.2414     7.1207     4.1395 H       
  45 H45           -1.7277     5.5793     4.8851 H       
  46 H46           -0.4924    -8.5555    -2.1530 H       
  47 H47           -1.6884    -8.4831    -0.8368 H       
  48 H48           -3.4591    -7.9148    -2.4769 H       
  49 H49           -2.2631    -7.9872    -3.7932 H       
  50 H50           -2.6804    -9.4617    -2.8878 H       
@<TRIPOS>BOND
   1    1    2 ar
   2    1    6 ar
   3    1   29 1
   4    2    3 ar
   5    2   30 1
   6    3    4 ar
   7    3    7 1
   8    4    5 ar
   9    4   24 1
  10    5    6 ar
  11    5   31 1
  12    6   14 1
  13    7    8 2
  14    7    9 1
  15    8   21 1
  16    8   12 1
  17    9   10 2
  18    9   32 1
  19   10   11 1
  20   10   33 1
  21   11   12 am
  22   11   22 1
  23   12   13 2
  24   14   15 1
  25   15   16 ar
  26   15   20 ar
  27   16   17 ar
  28   16   34 1
  29   17   18 ar
  30   17   35 1
  31   18   19 ar
  32   18   26 1
  33   19   20 ar
  34   20   25 1
  35   22   23 1
  36   22   36 1
  37   22   37 1
  38   23   27 1
  39   23   38 1
  40   23   39 1
  41   25   40 1
  42   25   41 1
  43   25   42 1
  44   26   43 1
  45   26   44 1
  46   26   45 1
  47   27   28 1
  48   27   46 1
  49   27   47 1
  50   28   48 1
  51   28   49 1
  52   28   50 1

#	End of record

