#	Name: ASD01915639
#	Creating user name:	WinNT
#	Creation time:	15. 06. 2019 20:05

#	Modifying user name:	WinNT
#	Modification time:	15. 06. 2019 20:05

#	Program:	/corina/corina34_cracker 3.40 0067  02.08.2006

@<TRIPOS>MOLECULE
ASD01915639
  46   49    0    0    0
SMALL
NO_CHARGES


@<TRIPOS>ATOM
   1 C1            -0.0043     1.4625     0.2162 C.2     
   2 N2             0.0611     0.1090    -0.0286 N.pl3   
   3 C3            -1.1518    -0.6752    -0.2905 C.3     
   4 C4            -2.3300    -0.0460     0.4511 C.3     
   5 N5            -2.4043     1.3988     0.2637 N.am    
   6 C6            -1.2915     2.1719     0.2662 C.2     
   7 C7             1.2786     1.8996     0.3910 C.2     
   8 C8             2.0744     0.7547     0.2504 C.2     
   9 N9             1.2808    -0.2627     0.0090 N.2     
  10 C10            3.5766     0.7010     0.3571 C.3     
  11 O11            4.0821     2.0100     0.6273 O.3     
  12 C12            5.4292     2.1373     0.7540 C.ar    
  13 O13           -1.3538     3.3859     0.3075 O.2     
  14 C14            5.9881     3.3796     1.0166 C.ar    
  15 C15            6.2473     1.0241     0.6266 C.ar    
  16 C16            7.6163     1.1561     0.7557 C.ar    
  17 C17            8.1714     2.3963     1.0117 C.ar    
  18 C18            7.3577     3.5063     1.1448 C.ar    
  19 C19           -3.6492     1.9981     0.0777 C.ar    
  20 N20           -3.7166     3.2587    -0.3190 N.ar    
  21 C21           -4.8076     1.2635     0.3054 C.ar    
  22 C22           -6.0370     1.8693     0.1169 C.ar    
  23 C23           -6.0657     3.1967    -0.2952 C.ar    
  24 C24           -4.8736     3.8644    -0.5077 C.ar    
  25 F25           -7.2452     3.8257    -0.4909 F       
  26 C26           -2.1897    -0.3441     1.9453 C.3     
  27 C27           -4.8961     5.3035    -0.9546 C.3     
  28 H28           -1.3571    -0.6813    -1.3610 H       
  29 H29           -1.0064    -1.6976     0.0584 H       
  30 H30           -3.2546    -0.4961     0.0896 H       
  31 H31            1.6077     2.9082     0.5931 H       
  32 H32            3.8596     0.0280     1.1666 H       
  33 H33            3.9947     0.3366    -0.5812 H       
  34 H34            5.3530     4.2469     1.1203 H       
  35 H35            5.8142     0.0551     0.4269 H       
  36 H36            8.2536     0.2898     0.6569 H       
  37 H37            9.2419     2.4974     1.1123 H       
  38 H38            7.7937     4.4740     1.3444 H       
  39 H39           -4.7484     0.2336     0.6249 H       
  40 H40           -6.9535     1.3234     0.2858 H       
  41 H41           -1.2544     0.0774     2.3136 H       
  42 H42           -3.0260     0.1006     2.4846 H       
  43 H43           -2.1888    -1.4228     2.1020 H       
  44 H44           -4.8974     5.9552    -0.0809 H       
  45 H45           -4.0137     5.5096    -1.5604 H       
  46 H46           -5.7935     5.4864    -1.5456 H       
@<TRIPOS>BOND
   1    1    2 1
   2    1    7 2
   3    1    6 1
   4    2    3 1
   5    2    9 1
   6    3    4 1
   7    3   28 1
   8    3   29 1
   9    4    5 1
  10    4   26 1
  11    4   30 1
  12    5    6 am
  13    5   19 1
  14    6   13 2
  15    7    8 1
  16    7   31 1
  17    8    9 2
  18    8   10 1
  19   10   11 1
  20   10   32 1
  21   10   33 1
  22   11   12 1
  23   12   14 ar
  24   12   15 ar
  25   14   18 ar
  26   14   34 1
  27   15   16 ar
  28   15   35 1
  29   16   17 ar
  30   16   36 1
  31   17   18 ar
  32   17   37 1
  33   18   38 1
  34   19   20 ar
  35   19   21 ar
  36   20   24 ar
  37   21   22 ar
  38   21   39 1
  39   22   23 ar
  40   22   40 1
  41   23   24 ar
  42   23   25 1
  43   24   27 1
  44   26   41 1
  45   26   42 1
  46   26   43 1
  47   27   44 1
  48   27   45 1
  49   27   46 1

#	End of record

