#	Name: ASD00844899
#	Creating user name:	WinNT
#	Creation time:	15. 06. 2019 18:51

#	Modifying user name:	WinNT
#	Modification time:	15. 06. 2019 18:51

#	Program:	/corina/corina34_cracker 3.40 0067  02.08.2006

@<TRIPOS>MOLECULE
ASD00844899
  93   98    0    0    0
SMALL
NO_CHARGES


@<TRIPOS>ATOM
   1 F1             5.6839    -1.9722    -2.1693 F       
   2 C2             0.6288     1.3405    -0.7069 C.ar    
   3 C3             0.9209    -0.0007    -0.9063 C.ar    
   4 C4             0.8377    -0.8916     0.1542 C.ar    
   5 C5             0.4642    -0.4411     1.4053 C.ar    
   6 C6             0.1730     0.8965     1.6014 C.ar    
   7 C7             0.2557     1.7862     0.5465 C.ar    
   8 C8             1.1539    -2.3495    -0.0590 C.3     
   9 C9             0.8687    -3.1432     1.1979 C.2     
  10 C10            0.3502    -2.9041    -1.2369 C.3     
  11 C11           -1.1161    -2.6357    -1.0153 C.2     
  12 N12           -2.0244    -3.0777    -1.9075 N.am    
  13 O13           -1.4787    -2.0220    -0.0341 O.2     
  14 C14           -3.4432    -2.7214    -1.7702 C.3     
  15 C15           -4.2776    -4.0061    -1.7829 C.3     
  16 C16           -3.9504    -4.8097    -3.0436 C.3     
  17 C17           -2.4695    -5.1957    -3.0346 C.3     
  18 C18           -1.6138    -3.9199    -3.0392 C.3     
  19 N19           -4.7731    -6.0263    -3.0757 N.3     
  20 C20           -4.5728    -6.7646    -4.3305 C.3     
  21 C21           -5.3839    -8.0619    -4.2911 C.3     
  22 N22           -6.8045    -7.7424    -4.0924 N.3     
  23 C23           -7.0049    -7.0041    -2.8377 C.3     
  24 C24           -6.1937    -5.7069    -2.8771 C.3     
  25 H25           -7.1725    -7.2270    -4.8779 H       
  26 O26           -0.2073    -3.2642     1.7443 O.2     
  27 N27            2.0305    -3.6888     1.5948 N.am    
  28 C28            2.6360    -2.5419    -0.2882 C.ar    
  29 C29            3.0883    -3.3562     0.7451 C.ar    
  30 C30            3.4974    -2.0798    -1.2587 C.ar    
  31 C31            4.8374    -2.4236    -1.2180 C.ar    
  32 C32            5.3101    -3.2414    -0.1865 C.ar    
  33 C33            4.4326    -3.7061     0.7926 C.ar    
  34 C34            1.9201    -6.3104     2.4251 C.ar    
  35 C35            0.6742    -6.6968     1.9521 C.ar    
  36 C36            2.9510    -7.2285     2.4899 C.ar    
  37 C37            2.7442    -8.5327     2.0838 C.ar    
  38 C38            1.4997    -8.9241     1.6099 C.ar    
  39 C39            0.4640    -8.0052     1.5443 C.ar    
  40 O40            1.2967   -10.2073     1.2110 O.3     
  41 O41           -0.3392    -5.7936     1.8889 O.3     
  42 C42            2.4085   -11.1000     1.3066 C.3     
  43 C43           -1.5947    -6.2611     1.3916 C.3     
  44 C44           -2.6044    -5.1115     1.3947 C.3     
  45 S45            2.1901    -4.6461     2.9366 S.o2    
  46 O46            3.5534    -4.5630     3.3289 O.2     
  47 O47            1.1114    -4.3113     3.7989 O.2     
  48 O48            1.2877    -0.4416    -2.1384 O.3     
  49 C49            1.2542     0.5096    -3.2043 C.3     
  50 C50            1.7707    -0.1441    -4.4876 C.3     
  51 F51            3.0525    -0.6586    -4.2657 F       
  52 F52            0.9100    -1.1817    -4.8614 F       
  53 C53            6.6950    -3.6022    -0.1364 C.1     
  54 N54            7.7936    -3.8885    -0.0966 N.1     
  55 H55            0.6972     2.0367    -1.5298 H       
  56 H56            0.3993    -1.1341     2.2311 H       
  57 H57           -0.1195     1.2466     2.5803 H       
  58 H58            0.0277     2.8303     0.7022 H       
  59 H59            0.6733    -2.4188    -2.1579 H       
  60 H60            0.5150    -3.9787    -1.3153 H       
  61 H61           -3.5982    -2.1943    -0.8288 H       
  62 H62           -3.7419    -2.0835    -2.6021 H       
  63 H63           -4.0424    -4.6015    -0.9007 H       
  64 H64           -5.3375    -3.7516    -1.7786 H       
  65 H65           -4.1626    -4.2047    -3.9251 H       
  66 H66           -2.2513    -5.7798    -2.1406 H       
  67 H67           -2.2425    -5.7878    -3.9211 H       
  68 H68           -1.7645    -3.3822    -3.9753 H       
  69 H69           -0.5619    -4.1851    -2.9330 H       
  70 H70           -4.9053    -6.1531    -5.1693 H       
  71 H71           -3.5152    -7.0005    -4.4487 H       
  72 H72           -5.2597    -8.5971    -5.2325 H       
  73 H73           -5.0330    -8.6854    -3.4688 H       
  74 H74           -8.0625    -6.7683    -2.7194 H       
  75 H75           -6.6723    -7.6156    -1.9989 H       
  76 H76           -6.3179    -5.1716    -1.9357 H       
  77 H77           -6.5447    -5.0834    -3.6993 H       
  78 H78            3.1266    -1.4486    -2.0527 H       
  79 H79            4.7979    -4.3377     1.5889 H       
  80 H80            3.9201    -6.9259     2.8584 H       
  81 H81            3.5516    -9.2482     2.1348 H       
  82 H82           -0.5051    -8.3080     1.1762 H       
  83 H83            3.2273   -10.7278     0.6908 H       
  84 H84            2.7347   -11.1641     2.3447 H       
  85 H85            2.1115   -12.0888     0.9573 H       
  86 H86           -1.4677    -6.6304     0.3740 H       
  87 H87           -1.9601    -7.0672     2.0278 H       
  88 H88           -2.2391    -4.3053     0.7586 H       
  89 H89           -3.5621    -5.4681     1.0154 H       
  90 H90           -2.7314    -4.7422     2.4123 H       
  91 H91            0.2297     0.8491    -3.3563 H       
  92 H92            1.8854     1.3615    -2.9511 H       
  93 H93            1.8104     0.5995    -5.2836 H       
@<TRIPOS>BOND
   1    1   31 1
   2    2    3 ar
   3    2    7 ar
   4    2   55 1
   5    3    4 ar
   6    3   48 1
   7    4    5 ar
   8    4    8 1
   9    5    6 ar
  10    5   56 1
  11    6    7 ar
  12    6   57 1
  13    7   58 1
  14    8    9 1
  15    8   10 1
  16    8   28 1
  17    9   26 2
  18    9   27 am
  19   10   11 1
  20   10   59 1
  21   10   60 1
  22   11   12 am
  23   11   13 2
  24   12   14 1
  25   12   18 1
  26   14   15 1
  27   14   61 1
  28   14   62 1
  29   15   16 1
  30   15   63 1
  31   15   64 1
  32   16   17 1
  33   16   19 1
  34   16   65 1
  35   17   18 1
  36   17   66 1
  37   17   67 1
  38   18   68 1
  39   18   69 1
  40   19   20 1
  41   19   24 1
  42   20   21 1
  43   20   70 1
  44   20   71 1
  45   21   22 1
  46   21   72 1
  47   21   73 1
  48   22   23 1
  49   22   25 1
  50   23   24 1
  51   23   74 1
  52   23   75 1
  53   24   76 1
  54   24   77 1
  55   27   45 am
  56   27   29 1
  57   28   29 ar
  58   28   30 ar
  59   29   33 ar
  60   30   31 ar
  61   30   78 1
  62   31   32 ar
  63   32   33 ar
  64   32   53 1
  65   33   79 1
  66   34   35 ar
  67   34   36 ar
  68   34   45 1
  69   35   41 1
  70   35   39 ar
  71   36   37 ar
  72   36   80 1
  73   37   38 ar
  74   37   81 1
  75   38   39 ar
  76   38   40 1
  77   39   82 1
  78   40   42 1
  79   41   43 1
  80   42   83 1
  81   42   84 1
  82   42   85 1
  83   43   44 1
  84   43   86 1
  85   43   87 1
  86   44   88 1
  87   44   89 1
  88   44   90 1
  89   45   46 2
  90   45   47 2
  91   48   49 1
  92   49   50 1
  93   49   91 1
  94   49   92 1
  95   50   51 1
  96   50   52 1
  97   50   93 1
  98   53   54 3

#	End of record

