#	Name: ASD01911520
#	Creating user name:	WinNT
#	Creation time:	15. 06. 2019 19:57

#	Modifying user name:	WinNT
#	Modification time:	15. 06. 2019 19:57

#	Program:	/corina/corina34_cracker 3.40 0067  02.08.2006

@<TRIPOS>MOLECULE
ASD01911520
  29   30    0    0    0
SMALL
NO_CHARGES


@<TRIPOS>ATOM
   1 C1            -0.0161     1.3353     0.0094 C.2     
   2 N2             0.0021    -0.0041     0.0020 N.am    
   3 C3             1.3973    -0.4682    -0.0138 C.3     
   4 C4             2.2200     0.8349    -0.0147 C.3     
   5 N5             1.2009     1.8949     0.0008 N.am    
   6 O6            -1.0441     1.9843     0.0179 O.2     
   7 C7             1.7024    -1.2951     1.2368 C.3     
   8 C8             1.6784    -1.2816    -1.2788 C.3     
   9 C9            -1.1803    -0.8691     0.0087 C.3     
  10 C10            1.4602     3.2651     0.0057 C.ar    
  11 C11            0.4114     4.1756     0.1261 C.ar    
  12 C12            0.7217     5.5263     0.1262 C.ar    
  13 C13            2.0566     5.8892     0.0064 C.ar    
  14 N14            2.9850     4.9592    -0.1030 N.ar    
  15 N15            2.7042     3.7068    -0.0986 N.ar    
  16 I16            2.5954     7.9137    -0.0013 I       
  17 H17            2.8458     0.8928     0.8759 H       
  18 H18            2.8287     0.9025    -0.9163 H       
  19 H19            1.0597    -2.1752     1.2563 H       
  20 H20            2.7464    -1.6080     1.2198 H       
  21 H21            1.5186    -0.6912     2.1254 H       
  22 H22            1.4777    -0.6682    -2.1572 H       
  23 H23            2.7225    -1.5945    -1.2851 H       
  24 H24            1.0353    -2.1615    -1.2954 H       
  25 H25           -2.0802    -0.2542     0.0201 H       
  26 H26           -1.1784    -1.4938    -0.8845 H       
  27 H27           -1.1619    -1.5028     0.8953 H       
  28 H28           -0.6108     3.8390     0.2163 H       
  29 H29           -0.0520     6.2745     0.2164 H       
@<TRIPOS>BOND
   1    1    2 am
   2    1    5 am
   3    1    6 2
   4    2    3 1
   5    2    9 1
   6    3    4 1
   7    3    7 1
   8    3    8 1
   9    4    5 1
  10    4   17 1
  11    4   18 1
  12    5   10 1
  13    7   19 1
  14    7   20 1
  15    7   21 1
  16    8   22 1
  17    8   23 1
  18    8   24 1
  19    9   25 1
  20    9   26 1
  21    9   27 1
  22   10   11 ar
  23   10   15 ar
  24   11   12 ar
  25   11   28 1
  26   12   13 ar
  27   12   29 1
  28   13   14 ar
  29   13   16 1
  30   14   15 ar

#	End of record

