#	Name: ASD00122053
#	Creating user name:	WinNT
#	Creation time:	15. 06. 2019 18:31

#	Modifying user name:	WinNT
#	Modification time:	15. 06. 2019 18:31

#	Program:	/corina/corina34_cracker 3.40 0067  02.08.2006

@<TRIPOS>MOLECULE
ASD00122053
  39   40    0    0    0
SMALL
NO_CHARGES


@<TRIPOS>ATOM
   1 C1             1.1364     1.5670     1.4611 C.ar    
   2 C2             1.0651     0.1940     1.5386 C.ar    
   3 C3             1.8000    -0.5932     0.6481 C.ar    
   4 C4             2.6046     0.0169    -0.3179 C.ar    
   5 C5             2.6704     1.3905    -0.3888 C.ar    
   6 C6             1.9379     2.1700     0.4988 C.ar    
   7 O7             2.0055     3.5235     0.4257 O.3     
   8 C8             1.2272     4.2637     1.3682 C.3     
   9 C9             1.4303     5.7618     1.1326 C.3     
  10 C10            1.7269    -2.0650     0.7279 C.2     
  11 O11            1.0266    -2.5942     1.5693 O.2     
  12 N12            2.4364    -2.8225    -0.1319 N.am    
  13 C13            2.4575    -4.2132     0.0147 C.ar    
  14 C14            3.6635    -4.8743     0.2087 C.ar    
  15 C15            3.6809    -6.2477     0.3531 C.ar    
  16 C16            2.4994    -6.9646     0.3042 C.ar    
  17 C17            1.2970    -6.3095     0.1107 C.ar    
  18 C18            1.2720    -4.9355    -0.0277 C.ar    
  19 C19           -0.0388    -4.2223    -0.2381 C.3     
  20 C20            4.9516    -4.0939     0.2611 C.3     
  21 H21            0.5653     2.1762     2.1461 H       
  22 H22            0.4424    -0.2737     2.2868 H       
  23 H23            3.1744    -0.5880    -1.0077 H       
  24 H24            3.2923     1.8629    -1.1348 H       
  25 H25            0.1731     4.0159     1.2433 H       
  26 H26            1.5429     4.0089     2.3799 H       
  27 H27            2.4844     6.0096     1.2576 H       
  28 H28            1.1146     6.0166     0.1210 H       
  29 H29            0.8366     6.3264     1.8516 H       
  30 H30            2.9324    -2.4032    -0.8524 H       
  31 H31            4.6183    -6.7624     0.5040 H       
  32 H32            2.5157    -8.0386     0.4170 H       
  33 H33            0.3761    -6.8723     0.0723 H       
  34 H34           -0.5254    -4.0651     0.7245 H       
  35 H35            0.1441    -3.2591    -0.7144 H       
  36 H36           -0.6830    -4.8269    -0.8765 H       
  37 H37            5.1567    -3.7999     1.2905 H       
  38 H38            5.7677    -4.7146    -0.1089 H       
  39 H39            4.8622    -3.2029    -0.3603 H       
@<TRIPOS>BOND
   1    1    2 ar
   2    1    6 ar
   3    1   21 1
   4    2    3 ar
   5    2   22 1
   6    3    4 ar
   7    3   10 1
   8    4    5 ar
   9    4   23 1
  10    5    6 ar
  11    5   24 1
  12    6    7 1
  13    7    8 1
  14    8    9 1
  15    8   25 1
  16    8   26 1
  17    9   27 1
  18    9   28 1
  19    9   29 1
  20   10   11 2
  21   10   12 am
  22   12   13 1
  23   12   30 1
  24   13   14 ar
  25   13   18 ar
  26   14   15 ar
  27   14   20 1
  28   15   16 ar
  29   15   31 1
  30   16   17 ar
  31   16   32 1
  32   17   18 ar
  33   17   33 1
  34   18   19 1
  35   19   34 1
  36   19   35 1
  37   19   36 1
  38   20   37 1
  39   20   38 1
  40   20   39 1

#	End of record

