#	Name: ASD01030039
#	Creating user name:	WinNT
#	Creation time:	15. 06. 2019 18:58

#	Modifying user name:	WinNT
#	Modification time:	15. 06. 2019 18:58

#	Program:	/corina/corina34_cracker 3.40 0067  02.08.2006

@<TRIPOS>MOLECULE
ASD01030039
  51   53    0    0    0
SMALL
NO_CHARGES


@<TRIPOS>ATOM
   1 C1            -0.0173     1.4248     0.0099 C.3     
   2 O2             0.0021    -0.0041     0.0020 O.3     
   3 C3             0.6283    -0.5728    -1.1498 C.3     
   4 C4             2.0910    -0.1245    -1.2072 C.3     
   5 C5             2.1472     1.4060    -1.2327 C.3     
   6 C6             1.4195     1.9533    -0.0010 C.3     
   7 O7             2.7844    -0.6087    -0.0554 O.3     
   8 O8             1.4026     3.3813    -0.0516 O.3     
   9 O9             3.5103     1.8347    -1.2123 O.3     
  10 C10            0.5653    -2.0990    -1.0634 C.3     
  11 O11           -0.7081     1.8984    -1.1480 O.3     
  12 C12           -2.0512     1.6957    -1.1910 C.ar    
  13 C13           -2.7811     2.1302    -2.2848 C.ar    
  14 C14           -4.1614     1.9213    -2.3278 C.ar    
  15 C15           -4.7988     1.2745    -1.2662 C.ar    
  16 C16           -4.0602     0.8439    -0.1772 C.ar    
  17 C17           -2.6880     1.0488    -0.1417 C.ar    
  18 O18           -4.6792     0.2146     0.8562 O.3     
  19 C19           -4.9431     2.3821    -3.4893 C.2     
  20 C20           -6.2699     2.1801    -3.5285 C.2     
  21 C21           -7.0513     2.6408    -4.6896 C.ar    
  22 C22           -6.4133     3.2882    -5.7513 C.ar    
  23 C23           -7.1465     3.7180    -6.8370 C.ar    
  24 C24           -8.5175     3.5095    -6.8790 C.ar    
  25 C25           -9.1604     2.8649    -5.8244 C.ar    
  26 C26           -8.4317     2.4263    -4.7348 C.ar    
  27 O27           -9.2355     3.9358    -7.9517 O.3     
  28 O28           -0.7976    -2.5239    -1.1258 O.3     
  29 O29          -10.5045     2.6625    -5.8694 O.3     
  30 H30           -0.5272     1.7765     0.9068 H       
  31 H31            0.1098    -0.2376    -2.0481 H       
  32 H32            2.5584    -0.5213    -2.1085 H       
  33 H33            1.6615     1.7737    -2.1366 H       
  34 H34            1.9348     1.6259     0.9019 H       
  35 H35            3.7188    -0.3615    -0.0260 H       
  36 H36            0.9522     3.7961     0.6968 H       
  37 H37            3.6207     2.7952    -1.2268 H       
  38 H38            1.1197    -2.5332    -1.8955 H       
  39 H39            1.0058    -2.4282    -0.1223 H       
  40 H40           -2.2839     2.6300    -3.1029 H       
  41 H41           -5.8660     1.1110    -1.2947 H       
  42 H42           -2.1147     0.7076     0.7075 H       
  43 H43           -4.7280    -0.7462     0.7590 H       
  44 H44           -4.4486     2.8822    -4.3090 H       
  45 H45           -6.7644     1.6800    -2.7089 H       
  46 H46           -5.3462     3.4521    -5.7211 H       
  47 H47           -6.6524     4.2185    -7.6566 H       
  48 H48           -8.9283     1.9225    -3.9188 H       
  49 H49           -9.3127     3.2806    -8.6588 H       
  50 H50           -0.9134    -3.4826    -1.0764 H       
  51 H51          -10.7627     1.8253    -6.2788 H       
@<TRIPOS>BOND
   1    1    2 1
   2    1    6 1
   3    1   11 1
   4    1   30 1
   5    2    3 1
   6    3    4 1
   7    3   10 1
   8    3   31 1
   9    4    5 1
  10    4    7 1
  11    4   32 1
  12    5    6 1
  13    5    9 1
  14    5   33 1
  15    6    8 1
  16    6   34 1
  17    7   35 1
  18    8   36 1
  19    9   37 1
  20   10   28 1
  21   10   38 1
  22   10   39 1
  23   11   12 1
  24   12   13 ar
  25   12   17 ar
  26   13   14 ar
  27   13   40 1
  28   14   15 ar
  29   14   19 1
  30   15   16 ar
  31   15   41 1
  32   16   17 ar
  33   16   18 1
  34   17   42 1
  35   18   43 1
  36   19   20 2
  37   19   44 1
  38   20   21 1
  39   20   45 1
  40   21   22 ar
  41   21   26 ar
  42   22   23 ar
  43   22   46 1
  44   23   24 ar
  45   23   47 1
  46   24   25 ar
  47   24   27 1
  48   25   26 ar
  49   25   29 1
  50   26   48 1
  51   27   49 1
  52   28   50 1
  53   29   51 1

#	End of record

