#	Name: ASD01916350
#	Creating user name:	WinNT
#	Creation time:	15. 06. 2019 20:07

#	Modifying user name:	WinNT
#	Modification time:	15. 06. 2019 20:07

#	Program:	/corina/corina34_cracker 3.40 0067  02.08.2006

@<TRIPOS>MOLECULE
ASD01916350
  31   33    0    0    0
SMALL
NO_CHARGES


@<TRIPOS>ATOM
   1 C1            -0.0308     1.5479    -0.0189 C.3     
   2 C2            -0.0181     0.0137    -0.0313 C.3     
   3 C3             0.6143    -0.4800    -1.3304 C.3     
   4 C4             1.9756     0.1223    -1.5340 C.ar    
   5 C5             2.3506     1.3162    -0.9076 C.ar    
   6 C6             1.4113     2.0142    -0.0187 C.2     
   7 N7             2.8505    -0.4784    -2.3220 N.ar    
   8 C8             4.0567     0.0386    -2.5174 C.ar    
   9 N9             4.4452     1.1697    -1.9416 N.ar    
  10 C10            3.6324     1.8325    -1.1393 C.ar    
  11 N11            4.9378    -0.6226    -3.3477 N.pl3   
  12 C12            6.1697    -0.0421    -3.6640 C.ar    
  13 O13            1.7765     2.9295     0.6885 O.2     
  14 C14            7.2920    -0.8416    -3.8353 C.ar    
  15 C15            8.5085    -0.2643    -4.1480 C.ar    
  16 C16            8.6079     1.1087    -4.2898 C.ar    
  17 C17            7.4914     1.9068    -4.1197 C.ar    
  18 C18            6.2722     1.3354    -3.8133 C.ar    
  19 Cl19           9.9127    -1.2623    -4.3624 Cl      
  20 H20           -0.5405     1.9212    -0.9071 H       
  21 H21           -0.5362     1.9068     0.8776 H       
  22 H22            0.5613    -0.3517     0.8166 H       
  23 H23           -1.0401    -0.3586     0.0397 H       
  24 H24            0.7057    -1.5656    -1.2934 H       
  25 H25           -0.0273    -0.2046    -2.1674 H       
  26 H26            3.9490     2.7530    -0.6714 H       
  27 H27            4.7027    -1.4903    -3.7120 H       
  28 H28            7.2147    -1.9131    -3.7240 H       
  29 H29            9.5594     1.5579    -4.5334 H       
  30 H30            7.5722     2.9780    -4.2310 H       
  31 H31            5.4008     1.9596    -3.6810 H       
@<TRIPOS>BOND
   1    1    2 1
   2    1    6 1
   3    1   20 1
   4    1   21 1
   5    2    3 1
   6    2   22 1
   7    2   23 1
   8    3    4 1
   9    3   24 1
  10    3   25 1
  11    4    5 ar
  12    4    7 ar
  13    5    6 1
  14    5   10 ar
  15    6   13 2
  16    7    8 ar
  17    8    9 ar
  18    8   11 1
  19    9   10 ar
  20   10   26 1
  21   11   12 1
  22   11   27 1
  23   12   14 ar
  24   12   18 ar
  25   14   15 ar
  26   14   28 1
  27   15   16 ar
  28   15   19 1
  29   16   17 ar
  30   16   29 1
  31   17   18 ar
  32   17   30 1
  33   18   31 1

#	End of record

