#	Name: ASD08150648
#	Creating user name:	WinNT
#	Creation time:	15. 06. 2019 21:16

#	Modifying user name:	WinNT
#	Modification time:	15. 06. 2019 21:16

#	Program:	/corina/corina34_cracker 3.40 0067  02.08.2006

@<TRIPOS>MOLECULE
ASD08150648
  79   86    0    0    0
SMALL
NO_CHARGES


@<TRIPOS>ATOM
   1 N1             0.1413     1.5918     0.0530 N.am    
   2 C2             0.6443     0.9264     1.1109 C.2     
   3 C3             1.9161     0.3216     1.0474 C.2     
   4 C4             2.6552     0.4027    -0.0882 C.2     
   5 C5             2.1292     1.1020    -1.2033 C.ar    
   6 C6             2.8541     1.2154    -2.4049 C.ar    
   7 N7             2.3662     1.8608    -3.4321 N.ar    
   8 C8             1.1598     2.4471    -3.4042 C.ar    
   9 C9             0.3607     2.3835    -2.2360 C.ar    
  10 C10            0.8598     1.6926    -1.1070 C.ar    
  11 C11           -0.8948     2.9987    -2.2168 C.ar    
  12 C12           -1.3448     3.6661    -3.3446 C.ar    
  13 C13           -0.5485     3.7243    -4.4970 C.ar    
  14 C14            0.6746     3.1308    -4.5310 C.ar    
  15 O15           -0.0090     0.8464     2.1372 O.2     
  16 C16           -2.6752     4.3213    -3.3327 C.ar    
  17 C17           -1.1256     2.1782     0.1392 C.ar    
  18 C18           -1.2438     3.5494     0.3349 C.ar    
  19 C19           -2.4913     4.1294     0.4201 C.ar    
  20 C20           -3.6351     3.3398     0.3098 C.ar    
  21 C21           -3.5142     1.9652     0.1136 C.ar    
  22 C22           -2.2643     1.3900     0.0233 C.ar    
  23 C23           -4.9787     3.9617     0.4016 C.ar    
  24 C24           -3.5414     4.1435    -2.2422 C.ar    
  25 N25           -4.7210     4.7094    -2.2048 N.ar    
  26 C26           -5.1600     5.4845    -3.2022 C.ar    
  27 C27           -4.3434     5.7127    -4.3385 C.ar    
  28 C28           -3.0707     5.1192    -4.3967 C.ar    
  29 C29           -5.2967     4.7835     1.4814 C.ar    
  30 C30           -6.4305     6.0834    -3.1442 C.ar    
  31 C31           -6.8559     6.8681    -4.1716 C.ar    
  32 C32           -6.0517     7.0911    -5.2876 C.ar    
  33 C33           -4.8157     6.5283    -5.3808 C.ar    
  34 C34           -6.5484     5.3594     1.5617 C.ar    
  35 C35           -7.4864     5.1223     0.5731 C.ar    
  36 C36           -7.1762     4.3075    -0.5008 C.ar    
  37 C37           -5.9258     3.7310    -0.5944 C.ar    
  38 C38           -8.8516     5.7537     0.6667 C.3     
  39 O39           -8.8344     7.0246     0.0136 O.3     
  40 C40          -10.0873     7.7111     0.0448 C.3     
  41 O41          -10.3598     8.1450     1.3789 O.3     
  42 C42          -10.0265     8.9270    -0.8833 C.3     
  43 C43          -11.3514     9.6911    -0.7984 C.3     
  44 C44          -11.6085    10.0849     0.6594 C.3     
  45 C45          -11.6082     8.8242     1.5280 C.3     
  46 C46           -4.7486     1.1091    -0.0060 C.3     
  47 F47           -4.3808    -0.2407    -0.0162 F       
  48 F48           -5.5932     1.3540     1.0821 F       
  49 F49           -5.4178     1.4191    -1.1948 F       
  50 H50            2.3039    -0.2076     1.9053 H       
  51 H51            3.6302    -0.0587    -0.1413 H       
  52 H52            3.8312     0.7614    -2.4794 H       
  53 H53           -1.5092     2.9538    -1.3297 H       
  54 H54           -0.9114     4.2474    -5.3694 H       
  55 H55            1.2749     3.1859    -5.4271 H       
  56 H56           -0.3575     4.1606     0.4206 H       
  57 H57           -2.5826     5.1947     0.5725 H       
  58 H58           -2.1701     0.3256    -0.1331 H       
  59 H59           -3.2271     3.5248    -1.4147 H       
  60 H60           -2.4237     5.2726    -5.2477 H       
  61 H61           -4.5652     4.9690     2.2539 H       
  62 H62           -7.0672     5.9211    -2.2871 H       
  63 H63           -7.8332     7.3251    -4.1214 H       
  64 H64           -6.4137     7.7181    -6.0889 H       
  65 H65           -4.2011     6.7086    -6.2504 H       
  66 H66           -6.7960     5.9962     2.3981 H       
  67 H67           -7.9125     4.1258    -1.2698 H       
  68 H68           -5.6847     3.0950    -1.4333 H       
  69 H69           -9.5847     5.1072     0.1844 H       
  70 H70           -9.1190     5.8874     1.7149 H       
  71 H71          -10.8785     7.0390    -0.2876 H       
  72 H72           -9.2094     9.5795    -0.5758 H       
  73 H73           -9.8627     8.5949    -1.9085 H       
  74 H74          -11.2947    10.5889    -1.4140 H       
  75 H75          -12.1625     9.0551    -1.1528 H       
  76 H76          -10.8233    10.7608     0.9980 H       
  77 H77          -12.5760    10.5808     0.7375 H       
  78 H78          -12.4194     8.1669     1.2149 H       
  79 H79          -11.7482     9.1025     2.5725 H       
@<TRIPOS>BOND
   1    1    2 am
   2    1   10 1
   3    1   17 1
   4    2    3 1
   5    2   15 2
   6    3    4 2
   7    3   50 1
   8    4    5 1
   9    4   51 1
  10    5    6 ar
  11    5   10 ar
  12    6    7 ar
  13    6   52 1
  14    7    8 ar
  15    8    9 ar
  16    8   14 ar
  17    9   10 ar
  18    9   11 ar
  19   11   12 ar
  20   11   53 1
  21   12   13 ar
  22   12   16 1
  23   13   14 ar
  24   13   54 1
  25   14   55 1
  26   16   24 ar
  27   16   28 ar
  28   17   18 ar
  29   17   22 ar
  30   18   19 ar
  31   18   56 1
  32   19   20 ar
  33   19   57 1
  34   20   21 ar
  35   20   23 1
  36   21   22 ar
  37   21   46 1
  38   22   58 1
  39   23   29 ar
  40   23   37 ar
  41   24   25 ar
  42   24   59 1
  43   25   26 ar
  44   26   27 ar
  45   26   30 ar
  46   27   28 ar
  47   27   33 ar
  48   28   60 1
  49   29   34 ar
  50   29   61 1
  51   30   31 ar
  52   30   62 1
  53   31   32 ar
  54   31   63 1
  55   32   33 ar
  56   32   64 1
  57   33   65 1
  58   34   35 ar
  59   34   66 1
  60   35   36 ar
  61   35   38 1
  62   36   37 ar
  63   36   67 1
  64   37   68 1
  65   38   39 1
  66   38   69 1
  67   38   70 1
  68   39   40 1
  69   40   41 1
  70   40   42 1
  71   40   71 1
  72   41   45 1
  73   42   43 1
  74   42   72 1
  75   42   73 1
  76   43   44 1
  77   43   74 1
  78   43   75 1
  79   44   45 1
  80   44   76 1
  81   44   77 1
  82   45   78 1
  83   45   79 1
  84   46   47 1
  85   46   48 1
  86   46   49 1

#	End of record

