#	Name: ASD02198212
#	Creating user name:	WinNT
#	Creation time:	15. 06. 2019 20:19

#	Modifying user name:	WinNT
#	Modification time:	15. 06. 2019 20:19

#	Program:	/corina/corina34_cracker 3.40 0067  02.08.2006

@<TRIPOS>MOLECULE
ASD02198212
  39   42    0    0    0
SMALL
NO_CHARGES


@<TRIPOS>ATOM
   1 C1            -0.0166     1.3756     0.0096 C.2     
   2 C2             0.0021    -0.0041     0.0020 C.2     
   3 C3            -1.1878    -0.8008     0.0087 C.1     
   4 S4             1.5675     2.0056    -0.0021 S.3     
   5 C5             2.2771     0.3991    -0.0175 C.2     
   6 C6             1.2821    -0.5519    -0.0131 C.2     
   7 C7             3.6579     0.1249    -0.0322 C.2     
   8 C8             4.6307     1.2349    -0.0350 C.2     
   9 O9             4.0503    -1.0302    -0.0426 O.2     
  10 N10            1.5290    -1.9154    -0.0228 N.pl3   
  11 N11           -1.1595     2.1397     0.0194 N.pl3   
  12 N12           -2.1317    -1.4328     0.0139 N.1     
  13 C13           -1.0679     3.5291     0.0265 C.2     
  14 C14           -2.1106     4.3928     0.0363 C.2     
  15 C15            5.9936     1.1300    -0.0485 C.2     
  16 C16            6.4374     2.4798    -0.0449 C.2     
  17 O17            4.3523     2.5519    -0.0306 O.3     
  18 N18            5.3583     3.2221    -0.0303 N.2     
  19 C19            7.8440     2.9542    -0.0550 C.ar    
  20 C20            8.1213     4.3195    -0.0497 C.ar    
  21 C21            8.8915     2.0358    -0.0639 C.ar    
  22 C22           10.1975     2.4824    -0.0728 C.ar    
  23 C23           10.4671     3.8390    -0.0729 C.ar    
  24 C24            9.4309     4.7552    -0.0587 C.ar    
  25 C25           -1.5616     5.6952     0.0415 C.2     
  26 C26           -0.2238     5.5564     0.0347 C.2     
  27 O27            0.0707     4.2433     0.0306 O.3     
  28 H28            2.4420    -2.2429    -0.0333 H       
  29 H29            0.7889    -2.5424    -0.0191 H       
  30 H30           -2.0296     1.7110     0.0213 H       
  31 H31           -3.1596     4.1360     0.0395 H       
  32 H32            6.5928     0.2315    -0.0591 H       
  33 H33            7.3130     5.0357    -0.0390 H       
  34 H34            8.6821     0.9763    -0.0635 H       
  35 H35           11.0103     1.7713    -0.0794 H       
  36 H36           11.4905     4.1842    -0.0799 H       
  37 H37            9.6470     5.8134    -0.0592 H       
  38 H38           -2.1115     6.6247     0.0492 H       
  39 H39            0.4938     6.3635     0.0359 H       
@<TRIPOS>BOND
   1    1    2 2
   2    1    4 1
   3    1   11 1
   4    2    3 1
   5    2    6 1
   6    3   12 3
   7    4    5 1
   8    5    6 2
   9    5    7 1
  10    6   10 1
  11    7    8 1
  12    7    9 2
  13    8   15 2
  14    8   17 1
  15   10   28 1
  16   10   29 1
  17   11   13 1
  18   11   30 1
  19   13   14 2
  20   13   27 1
  21   14   25 1
  22   14   31 1
  23   15   16 1
  24   15   32 1
  25   16   19 1
  26   16   18 2
  27   17   18 1
  28   19   20 ar
  29   19   21 ar
  30   20   24 ar
  31   20   33 1
  32   21   22 ar
  33   21   34 1
  34   22   23 ar
  35   22   35 1
  36   23   24 ar
  37   23   36 1
  38   24   37 1
  39   25   26 2
  40   25   38 1
  41   26   27 1
  42   26   39 1

#	End of record

