#	Name: ASD04880124
#	Creating user name:	WinNT
#	Creation time:	15. 06. 2019 20:52

#	Modifying user name:	WinNT
#	Modification time:	15. 06. 2019 20:52

#	Program:	/corina/corina34_cracker 3.40 0067  02.08.2006

@<TRIPOS>MOLECULE
ASD04880124
  36   38    0    0    0
SMALL
NO_CHARGES


@<TRIPOS>ATOM
   1 C1            -0.0144     1.2118     0.0087 C.2     
   2 O2             0.0837    -0.0000    -0.0135 O.2     
   3 C3             1.2008     2.0523    -0.0243 C.ar    
   4 C4             2.4631     1.4632     0.0666 C.ar    
   5 C5             3.5948     2.2551     0.0351 C.ar    
   6 C6             3.4773     3.6307    -0.0863 C.ar    
   7 C7             2.2287     4.2186    -0.1761 C.ar    
   8 C8             1.0912     3.4380    -0.1521 C.ar    
   9 F9             4.8177     1.6877     0.1233 F       
  10 N10           -1.2316     1.7885     0.0578 N.am    
  11 N11           -1.4768     3.1525     0.2019 N.2     
  12 C12           -2.7274     3.4633     0.2215 C.2     
  13 C13           -3.5614     2.2103     0.0775 C.3     
  14 C14           -2.5183     1.0812    -0.0384 C.3     
  15 C15           -2.3956     5.9257     0.4912 C.ar    
  16 C16           -3.2622     4.8290     0.3634 C.ar    
  17 C17           -4.6427     5.0558     0.3725 C.ar    
  18 C18           -5.0942     6.3589     0.5080 C.ar    
  19 C19           -4.1767     7.3869     0.6290 C.ar    
  20 N20           -2.8783     7.1487     0.6177 N.ar    
  21 O21           -1.0542     5.7278     0.4904 O.3     
  22 C22           -0.2276     6.8858     0.6241 C.3     
  23 Cl23          -6.7966     6.6983     0.5252 Cl      
  24 H24            2.5548     0.3913     0.1615 H       
  25 H25            4.3645     4.2462    -0.1105 H       
  26 H26            2.1439     5.2912    -0.2698 H       
  27 H27            0.1173     3.8988    -0.2273 H       
  28 H28           -4.1898     2.0662     0.9564 H       
  29 H29           -4.1702     2.2579    -0.8254 H       
  30 H30           -2.6058     0.5729    -0.9987 H       
  31 H31           -2.6292     0.3732     0.7829 H       
  32 H32           -5.3390     4.2359     0.2761 H       
  33 H33           -4.5287     8.4024     0.7343 H       
  34 H34           -0.4496     7.3837     1.5679 H       
  35 H35            0.8207     6.5876     0.6084 H       
  36 H36           -0.4233     7.5693    -0.2021 H       
@<TRIPOS>BOND
   1    1    2 2
   2    1    3 1
   3    1   10 am
   4    3    4 ar
   5    3    8 ar
   6    4    5 ar
   7    4   24 1
   8    5    6 ar
   9    5    9 1
  10    6    7 ar
  11    6   25 1
  12    7    8 ar
  13    7   26 1
  14    8   27 1
  15   10   11 1
  16   10   14 1
  17   11   12 2
  18   12   13 1
  19   12   16 1
  20   13   14 1
  21   13   28 1
  22   13   29 1
  23   14   30 1
  24   14   31 1
  25   15   16 ar
  26   15   20 ar
  27   15   21 1
  28   16   17 ar
  29   17   18 ar
  30   17   32 1
  31   18   19 ar
  32   18   23 1
  33   19   20 ar
  34   19   33 1
  35   21   22 1
  36   22   34 1
  37   22   35 1
  38   22   36 1

#	End of record

