#	Name: ASD00731022
#	Creating user name:	WinNT
#	Creation time:	15. 06. 2019 18:37

#	Modifying user name:	WinNT
#	Modification time:	15. 06. 2019 18:37

#	Program:	/corina/corina34_cracker 3.40 0067  02.08.2006

@<TRIPOS>MOLECULE
ASD00731022
 314  317    0    0    0
SMALL
NO_CHARGES


@<TRIPOS>ATOM
   1 C1            -0.3461   -10.8515    -4.6174 C.2     
   2 O2            -0.5132   -11.3804    -5.6959 O.2     
   3 N3             1.9759   -11.5063    -4.8792 N.am    
   4 C4             1.0254   -10.8295    -3.9933 C.3     
   5 C5            -3.5270    -9.1388    -4.0589 C.2     
   6 O6            -3.0388    -8.3767    -3.2515 O.2     
   7 N7            -1.3860   -10.2784    -3.9795 N.am    
   8 C8            -2.7181   -10.2945    -4.5890 C.3     
   9 C9            -3.4207   -11.6093    -4.2444 C.3     
  10 O10           -3.6489   -11.6724    -2.8352 O.3     
  11 C11           -6.9496    -7.8451    -4.5936 C.2     
  12 O12           -7.2407    -8.7102    -5.3922 O.2     
  13 N13           -4.7929    -8.9521    -4.4820 N.am    
  14 C14           -5.5793    -7.8285    -3.9667 C.3     
  15 C15           -9.7590    -5.5218    -4.8633 C.2     
  16 O16           -9.3207    -4.6918    -4.0952 O.2     
  17 N17           -7.8517    -6.8985    -4.2668 N.am    
  18 C18           -9.1838    -6.9146    -4.8763 C.3     
  19 C19          -10.0967    -7.8508    -4.0819 C.3     
  20 C20           -9.5221    -9.2686    -4.1101 C.3     
  21 O21          -10.1821    -7.3982    -2.7292 O.3     
  22 C22          -12.7864    -3.9479    -6.1749 C.2     
  23 O23          -13.2220    -5.0014    -6.5889 O.2     
  24 N24          -10.7604    -5.1984    -5.7053 N.am    
  25 C25          -11.3842    -3.8751    -5.6278 C.3     
  26 C26          -10.5668    -2.8771    -6.4505 C.3     
  27 C27           -9.2034    -2.7122    -5.8301 C.ar    
  28 C28           -8.1630    -3.5343    -6.2217 C.ar    
  29 C29           -6.9123    -3.3854    -5.6542 C.ar    
  30 C30           -6.7006    -2.4097    -4.6910 C.ar    
  31 O31           -5.4711    -2.2610    -4.1315 O.3     
  32 C32           -7.7461    -1.5858    -4.3001 C.ar    
  33 C33           -8.9936    -1.7353    -4.8744 C.ar    
  34 C34          -15.3378    -1.5516    -7.2293 C.2     
  35 O35          -14.5724    -0.6147    -7.1448 O.2     
  36 N36          -13.5566    -2.8422    -6.2042 N.am    
  37 C37          -14.9198    -2.9129    -6.7361 C.3     
  38 C38          -15.8749    -3.3708    -5.6320 C.3     
  39 O39          -15.9218    -2.3813    -4.6021 O.3     
  40 C40          -18.4715     0.0543    -8.2111 C.2     
  41 O41          -19.1376    -0.8830    -7.8254 O.2     
  42 N42          -16.5622    -1.3755    -7.7643 N.am    
  43 C43          -16.9686    -0.0521    -8.2437 C.3     
  44 C44          -16.4744     0.1445    -9.6783 C.3     
  45 C45          -14.9630    -0.0866    -9.7332 C.3     
  46 O46          -17.1304    -0.7877   -10.5401 O.3     
  47 C47          -21.2024     0.7404    -9.6887 C.2     
  48 O48          -20.5361     0.2462   -10.5734 O.2     
  49 N49          -19.0754     1.1910    -8.6107 N.am    
  50 C50          -20.5275     1.3342    -8.4792 C.3     
  51 C51          -20.8860     2.8178    -8.3721 C.3     
  52 C52          -20.2959     3.3872    -7.1077 C.2     
  53 O53          -19.6024     2.6958    -6.4000 O.2     
  54 O54          -20.5408     4.6624    -6.7678 O.3     
  55 C55          -24.5498     0.8284   -11.1549 C.2     
  56 O56          -24.9251     1.6874   -10.3853 O.2     
  57 N57          -22.5464     0.7585    -9.7873 N.am    
  58 C58          -23.2025     0.1812   -10.9631 C.3     
  59 C59          -23.3844    -1.3240   -10.7580 C.3     
  60 C60          -22.0129    -1.9986   -10.6877 C.3     
  61 C61          -22.1947    -3.5038   -10.4826 C.3     
  62 N62          -20.8815    -4.1497   -10.4154 N.pl3   
  63 C63          -20.7928    -5.5096   -10.2339 C.2     
  64 N64          -19.6244    -6.0842   -10.1741 N.2     
  65 N65          -21.9364    -6.2634   -10.1155 N.pl3   
  66 C66          -27.5528     0.1433   -13.1236 C.2     
  67 O67          -27.1442    -0.9442   -13.4718 O.2     
  68 N68          -25.3378     0.4528   -12.1818 N.am    
  69 C69          -26.6476     1.0820   -12.3683 C.3     
  70 C70          -26.4817     2.3794   -13.1620 C.3     
  71 C71          -25.6657     3.3793   -12.3402 C.3     
  72 C72          -25.3935     4.6284   -13.1807 C.3     
  73 C73          -26.4506     3.7695   -11.0861 C.3     
  74 C74          -30.7584     0.3937   -14.8628 C.2     
  75 O75          -30.7781     1.6027   -14.7693 O.2     
  76 N76          -28.8166     0.5123   -13.4121 N.am    
  77 C77          -29.6966    -0.4003   -14.1464 C.3     
  78 C78          -30.3594    -1.3693   -13.1652 C.3     
  79 C79          -29.2912    -2.2612   -12.5293 C.3     
  80 C80          -29.9540    -3.2303   -11.5482 C.3     
  81 N81          -28.9313    -4.0843   -10.9393 N.pl3   
  82 C82          -29.2923    -5.0395   -10.0187 C.2     
  83 N83          -30.5445    -5.1852    -9.6877 N.2     
  84 N84          -28.3325    -5.8410    -9.4473 N.pl3   
  85 C85          -33.9286    -0.3369   -16.5298 C.2     
  86 O86          -33.9290    -1.4877   -16.1467 O.2     
  87 N87          -31.6861    -0.2398   -15.6075 N.am    
  88 C88          -32.7182     0.5320   -16.3040 C.3     
  89 C89          -32.1750     1.0101   -17.6520 C.3     
  90 C90          -31.0241     1.9911   -17.4191 C.3     
  91 C91          -30.4809     2.4692   -18.7671 C.3     
  92 C92          -29.3300     3.4501   -18.5343 C.3     
  93 N93          -28.8084     3.9091   -19.8286 N.3     
  94 C94          -36.9625    -0.1636   -18.5617 C.2     
  95 O95          -36.5707     0.8139   -19.1633 O.2     
  96 N96          -35.0106     0.1647   -17.1575 N.am    
  97 C97          -36.1873    -0.6801   -17.3771 C.3     
  98 C98          -37.0768    -0.6490   -16.1326 C.3     
  99 C99          -36.3443    -1.2784   -14.9757 C.2     
 100 C100         -36.4352    -2.5558   -14.5731 C.2     
 101 N101         -35.6243    -2.7625   -13.4905 N.pl3   
 102 C102         -34.9752    -1.5936   -13.1617 C.ar    
 103 C103         -34.0596    -1.2524   -12.1720 C.ar    
 104 C104         -33.5785     0.0367   -12.0998 C.ar    
 105 C105         -33.9984     1.0008   -13.0057 C.ar    
 106 C106         -34.8977     0.6875   -13.9858 C.ar    
 107 C107         -35.3933    -0.6140   -14.0813 C.ar    
 108 C108         -40.2873    -0.7042   -19.9816 C.2     
 109 O109         -40.6502    -1.3575   -19.0264 O.2     
 110 N110         -38.0912    -0.7879   -18.9525 N.am    
 111 C111         -38.8448    -0.2858   -20.1042 C.3     
 112 C112         -38.2538    -0.8637   -21.3917 C.3     
 113 C113         -36.8293    -0.3380   -21.5797 C.3     
 114 S114         -36.1285    -1.0231   -23.1062 S.3     
 115 C115         -34.4669    -0.2971   -23.1542 C.3     
 116 C116         -43.2030    -0.8101   -22.1841 C.2     
 117 O117         -42.5430    -0.5338   -23.1634 O.2     
 118 N118         -41.1742    -0.3525   -20.9335 N.am    
 119 C119         -42.5766    -0.7592   -20.8144 C.3     
 120 C120         -43.3289     0.2518   -19.9468 C.3     
 121 C121         -42.7822     0.2140   -18.5429 C.ar    
 122 C122         -41.7318     1.0395   -18.1878 C.ar    
 123 C123         -41.2303     1.0049   -16.9001 C.ar    
 124 C124         -41.7795     0.1450   -15.9674 C.ar    
 125 C125         -42.8305    -0.6798   -16.3223 C.ar    
 126 C126         -43.3348    -0.6421   -17.6088 C.ar    
 127 C127         -45.5897     0.1629   -24.0347 C.2     
 128 O128         -45.4414     1.0890   -23.2730 O.2     
 129 N129         -44.4966    -1.1626   -22.3209 N.am    
 130 C130         -45.1055    -1.2121   -23.6524 C.3     
 131 C131         -46.2878    -2.1831   -23.6368 C.3     
 132 C132         -46.8458    -2.3300   -25.0538 C.3     
 133 C133         -47.9458    -3.3934   -25.0610 C.3     
 134 C134         -47.3800    -1.6420   -22.7121 C.3     
 135 O135         -46.1858     0.3586   -25.2213 O.3     
 136 C136           3.2721   -11.6089    -4.5245 C.2     
 137 O137           3.6516   -11.1409    -3.4719 O.2     
 138 C138          20.9456   -17.0970    -7.4767 C.3     
 139 C139          19.9530   -16.3901    -6.5516 C.3     
 140 C140          18.5605   -16.4124    -7.1852 C.3     
 141 C141          17.5679   -15.7055    -6.2600 C.3     
 142 C142          16.1754   -15.7279    -6.8936 C.3     
 143 C143          15.1827   -15.0210    -5.9684 C.3     
 144 C144          13.7903   -15.0433    -6.6020 C.3     
 145 C145          12.7976   -14.3365    -5.6769 C.3     
 146 C146          11.4051   -14.3588    -6.3104 C.3     
 147 C147          10.4125   -13.6519    -5.3853 C.3     
 148 C148           9.0200   -13.6743    -6.0189 C.3     
 149 C149           8.0274   -12.9674    -5.0937 C.3     
 150 C150           6.6349   -12.9897    -5.7273 C.3     
 151 C151           5.6423   -12.2828    -4.8021 C.3     
 152 C152           4.2498   -12.3052    -5.4357 C.3     
 153 H153           1.6723   -11.8806    -5.7210 H       
 154 H154           1.3401    -9.7966    -3.8440 H       
 155 H155           0.9956   -11.3428    -3.0322 H       
 156 H156          -1.2523    -9.8554    -3.1169 H       
 157 H157          -2.6236   -10.2058    -5.6712 H       
 158 H158          -4.3745   -11.6600    -4.7696 H       
 159 H159          -2.7934   -12.4471    -4.5488 H       
 160 H160          -4.0921   -12.4811    -2.5443 H       
 161 H161          -5.1834    -9.5616    -5.1277 H       
 162 H162          -5.0788    -6.8919    -4.2122 H       
 163 H163          -5.6738    -7.9173    -2.8845 H       
 164 H164          -7.6188    -6.2066    -3.6281 H       
 165 H165          -9.1085    -7.2671    -5.9050 H       
 166 H166         -11.0914    -7.8530    -4.5278 H       
 167 H167          -8.5740    -9.2871    -3.5727 H       
 168 H168         -10.2231    -9.9542    -3.6340 H       
 169 H169          -9.3600    -9.5744    -5.1437 H       
 170 H170         -10.5389    -6.5044    -2.6353 H       
 171 H171         -11.0682    -5.8419    -6.3627 H       
 172 H172         -11.4162    -3.5489    -4.5882 H       
 173 H173         -10.4598    -3.2480    -7.4698 H       
 174 H174         -11.0778    -1.9144    -6.4660 H       
 175 H175          -8.3283    -4.2937    -6.9716 H       
 176 H176          -6.1001    -4.0283    -5.9599 H       
 177 H177          -4.8973    -1.6409    -4.6020 H       
 178 H178          -7.5839    -0.8257    -3.5502 H       
 179 H179          -9.8067    -1.0912    -4.5737 H       
 180 H180         -13.2083    -1.9996    -5.8731 H       
 181 H181         -14.9512    -3.6239    -7.5617 H       
 182 H182         -16.8725    -3.5090    -6.0489 H       
 183 H183         -15.5219    -4.3137    -5.2142 H       
 184 H184         -16.5094    -2.6056    -3.8676 H       
 185 H185         -17.1744    -2.1248    -7.8318 H       
 186 H186         -16.5361     0.7154    -7.6020 H       
 187 H187         -16.6987     1.1603   -10.0038 H       
 188 H188         -14.7387    -1.1024    -9.4076 H       
 189 H189         -14.6109     0.0535   -10.7552 H       
 190 H190         -14.4626     0.6245    -9.0758 H       
 191 H191         -16.8649    -0.7201   -11.4675 H       
 192 H192         -18.5487     1.9142    -8.9852 H       
 193 H193         -20.8643     0.8134    -7.5829 H       
 194 H194         -20.4841     3.3518    -9.2332 H       
 195 H195         -21.9701     2.9289    -8.3493 H       
 196 H196         -20.1406     4.9828    -5.9479 H       
 197 H197         -23.0793     1.1538    -9.0797 H       
 198 H198         -22.5866     0.3559   -11.8452 H       
 199 H199         -23.9245    -1.5014    -9.8280 H       
 200 H200         -23.9509    -1.7385   -11.5919 H       
 201 H201         -21.4727    -1.8212   -11.6177 H       
 202 H202         -21.4464    -1.5841    -9.8538 H       
 203 H203         -22.7349    -3.6811    -9.5527 H       
 204 H204         -22.7612    -3.9183   -11.3166 H       
 205 H205         -20.0746    -3.6178   -10.4990 H       
 206 H206         -19.5618    -7.0437   -10.0460 H       
 207 H207         -22.8059    -5.8357   -10.1600 H       
 208 H208         -21.8738    -7.2228    -9.9874 H       
 209 H209         -25.0377    -0.2342   -12.7973 H       
 210 H210         -27.0855     1.3047   -11.3953 H       
 211 H211         -25.9633     2.1693   -14.0975 H       
 212 H212         -27.4633     2.8016   -13.3774 H       
 213 H213         -24.7192     2.9237   -12.0493 H       
 214 H214         -26.3401     5.0840   -13.4716 H       
 215 H215         -24.8122     5.3407   -12.5952 H       
 216 H216         -24.8344     4.3504   -14.0741 H       
 217 H217         -26.6445     2.8796   -10.4873 H       
 218 H218         -25.8693     4.4818   -10.5007 H       
 219 H219         -27.3971     4.2250   -11.3770 H       
 220 H220         -29.1435     1.3820   -13.1336 H       
 221 H221         -29.1112    -0.9631   -14.8734 H       
 222 H222         -30.8716    -0.8042   -12.3865 H       
 223 H223         -31.0803    -1.9893   -13.6981 H       
 224 H224         -28.7791    -2.8263   -13.3080 H       
 225 H225         -28.5703    -1.6412   -11.9965 H       
 226 H226         -30.4662    -2.6652   -10.7694 H       
 227 H227         -30.6750    -3.8503   -12.0810 H       
 228 H228         -27.9993    -3.9759   -11.1856 H       
 229 H229         -30.7993    -5.8591    -9.0382 H       
 230 H230         -27.4006    -5.7325    -9.6936 H       
 231 H231         -28.5872    -6.5149    -8.7978 H       
 232 H232         -31.6703    -1.2068   -15.6822 H       
 233 H233         -32.9978     1.3942   -15.6985 H       
 234 H234         -31.8133     0.1544   -18.2221 H       
 235 H235         -32.9695     1.5076   -18.2081 H       
 236 H236         -31.3858     2.8468   -16.8490 H       
 237 H237         -30.2296     1.4936   -16.8630 H       
 238 H238         -30.1192     1.6134   -19.3373 H       
 239 H239         -31.2754     2.9667   -19.3233 H       
 240 H240         -29.6917     4.3058   -17.9642 H       
 241 H241         -28.5355     2.9526   -17.9781 H       
 242 H242         -28.0467     4.5586   -19.7016 H       
 243 H243         -28.5261     3.1285   -20.4021 H       
 244 H244         -35.0103     1.0850   -17.4639 H       
 245 H245         -35.8683    -1.7043   -17.5702 H       
 246 H246         -37.3231     0.3842   -15.8878 H       
 247 H247         -37.9940    -1.2047   -16.3276 H       
 248 H248         -37.0567    -3.3087   -15.0349 H       
 249 H249         -35.5219    -3.6069   -13.0242 H       
 250 H250         -33.7270    -1.9954   -11.4622 H       
 251 H251         -32.8678     0.2998   -11.3303 H       
 252 H252         -33.6116     2.0066   -12.9352 H       
 253 H253         -35.2203     1.4429   -14.6870 H       
 254 H254         -38.4045    -1.5697   -18.4714 H       
 255 H255         -38.7832     0.8021   -20.1324 H       
 256 H256         -38.2339    -1.9515   -21.3260 H       
 257 H257         -38.8674    -0.5620   -22.2405 H       
 258 H258         -36.8491     0.7498   -21.6453 H       
 259 H259         -36.2156    -0.6397   -20.7309 H       
 260 H260         -33.9439    -0.6450   -24.0451 H       
 261 H261         -34.5458     0.7897   -23.1804 H       
 262 H262         -33.9123    -0.5998   -22.2660 H       
 263 H263         -40.8840     0.1700   -21.6975 H       
 264 H264         -42.6309    -1.7453   -20.3532 H       
 265 H265         -43.2001     1.2521   -20.3600 H       
 266 H266         -44.3890    -0.0010   -19.9307 H       
 267 H267         -41.3028     1.7113   -18.9165 H       
 268 H268         -40.4092     1.6494   -16.6229 H       
 269 H269         -41.3872     0.1175   -14.9615 H       
 270 H270         -43.2593    -1.3519   -15.5937 H       
 271 H271         -44.1583    -1.2839   -17.8850 H       
 272 H272         -45.0244    -1.3836   -21.5376 H       
 273 H273         -44.3661    -1.5515   -24.3777 H       
 274 H274         -45.9543    -3.1557   -23.2750 H       
 275 H275         -47.2600    -1.3766   -25.3818 H       
 276 H276         -46.0456    -2.6304   -25.7301 H       
 277 H277         -47.5316    -4.3468   -24.7330 H       
 278 H278         -48.7461    -3.0930   -24.3847 H       
 279 H279         -48.3434    -3.4981   -26.0705 H       
 280 H280         -48.2223    -2.3338   -22.7010 H       
 281 H281         -46.9824    -1.5374   -21.7026 H       
 282 H282         -47.7134    -0.6694   -23.0739 H       
 283 H283         -46.4796     1.2578   -25.4220 H       
 284 H284          20.9755   -16.5836    -8.4378 H       
 285 H285          21.9376   -17.0810    -7.0254 H       
 286 H286          20.6309   -18.1298    -7.6261 H       
 287 H287          19.9231   -16.9034    -5.5905 H       
 288 H288          20.2677   -15.3572    -6.4022 H       
 289 H289          18.5903   -15.8991    -8.1463 H       
 290 H290          18.2458   -17.4453    -7.3345 H       
 291 H291          17.5380   -16.2189    -5.2989 H       
 292 H292          17.8825   -14.6727    -6.1107 H       
 293 H293          16.2052   -15.2145    -7.8547 H       
 294 H294          15.8607   -16.7607    -7.0429 H       
 295 H295          15.1529   -15.5343    -5.0074 H       
 296 H296          15.4974   -13.9882    -5.8191 H       
 297 H297          13.8201   -14.5300    -7.5631 H       
 298 H298          13.4756   -16.0762    -6.7514 H       
 299 H299          12.7678   -14.8498    -4.7158 H       
 300 H300          13.1123   -13.3036    -5.5275 H       
 301 H301          11.4350   -13.8455    -7.2715 H       
 302 H302          11.0905   -15.3916    -6.4598 H       
 303 H303          10.3827   -14.1652    -4.4242 H       
 304 H304          10.7272   -12.6191    -5.2359 H       
 305 H305           9.0499   -13.1609    -6.9799 H       
 306 H306           8.7053   -14.7071    -6.1682 H       
 307 H307           7.9975   -13.4807    -4.1326 H       
 308 H308           8.3421   -11.9345    -4.9444 H       
 309 H309           6.6647   -12.4764    -6.6884 H       
 310 H310           6.3202   -14.0226    -5.8766 H       
 311 H311           5.6124   -12.7962    -3.8410 H       
 312 H312           5.9570   -11.2500    -4.6528 H       
 313 H313           3.9351   -13.3380    -5.5851 H       
 314 H314           4.2796   -11.7918    -6.3968 H       
@<TRIPOS>BOND
   1    1    2 2
   2    1    4 1
   3    1    7 am
   4    3    4 1
   5    3  136 am
   6    3  153 1
   7    4  154 1
   8    4  155 1
   9    5    6 2
  10    5    8 1
  11    5   13 am
  12    7    8 1
  13    7  156 1
  14    8    9 1
  15    8  157 1
  16    9   10 1
  17    9  158 1
  18    9  159 1
  19   10  160 1
  20   11   12 2
  21   11   14 1
  22   11   17 am
  23   13   14 1
  24   13  161 1
  25   14  162 1
  26   14  163 1
  27   15   16 2
  28   15   18 1
  29   15   24 am
  30   17   18 1
  31   17  164 1
  32   18   19 1
  33   18  165 1
  34   19   20 1
  35   19   21 1
  36   19  166 1
  37   20  167 1
  38   20  168 1
  39   20  169 1
  40   21  170 1
  41   22   23 2
  42   22   25 1
  43   22   36 am
  44   24   25 1
  45   24  171 1
  46   25   26 1
  47   25  172 1
  48   26   27 1
  49   26  173 1
  50   26  174 1
  51   27   28 ar
  52   27   33 ar
  53   28   29 ar
  54   28  175 1
  55   29   30 ar
  56   29  176 1
  57   30   31 1
  58   30   32 ar
  59   31  177 1
  60   32   33 ar
  61   32  178 1
  62   33  179 1
  63   34   35 2
  64   34   37 1
  65   34   42 am
  66   36   37 1
  67   36  180 1
  68   37   38 1
  69   37  181 1
  70   38   39 1
  71   38  182 1
  72   38  183 1
  73   39  184 1
  74   40   41 2
  75   40   43 1
  76   40   49 am
  77   42   43 1
  78   42  185 1
  79   43   44 1
  80   43  186 1
  81   44   45 1
  82   44   46 1
  83   44  187 1
  84   45  188 1
  85   45  189 1
  86   45  190 1
  87   46  191 1
  88   47   48 2
  89   47   50 1
  90   47   57 am
  91   49   50 1
  92   49  192 1
  93   50   51 1
  94   50  193 1
  95   51   52 1
  96   51  194 1
  97   51  195 1
  98   52   53 2
  99   52   54 1
 100   54  196 1
 101   55   56 2
 102   55   58 1
 103   55   68 am
 104   57   58 1
 105   57  197 1
 106   58   59 1
 107   58  198 1
 108   59   60 1
 109   59  199 1
 110   59  200 1
 111   60   61 1
 112   60  201 1
 113   60  202 1
 114   61   62 1
 115   61  203 1
 116   61  204 1
 117   62   63 1
 118   62  205 1
 119   63   64 2
 120   63   65 1
 121   64  206 1
 122   65  207 1
 123   65  208 1
 124   66   67 2
 125   66   69 1
 126   66   76 am
 127   68   69 1
 128   68  209 1
 129   69   70 1
 130   69  210 1
 131   70   71 1
 132   70  211 1
 133   70  212 1
 134   71   72 1
 135   71   73 1
 136   71  213 1
 137   72  214 1
 138   72  215 1
 139   72  216 1
 140   73  217 1
 141   73  218 1
 142   73  219 1
 143   74   75 2
 144   74   77 1
 145   74   87 am
 146   76   77 1
 147   76  220 1
 148   77   78 1
 149   77  221 1
 150   78   79 1
 151   78  222 1
 152   78  223 1
 153   79   80 1
 154   79  224 1
 155   79  225 1
 156   80   81 1
 157   80  226 1
 158   80  227 1
 159   81   82 1
 160   81  228 1
 161   82   83 2
 162   82   84 1
 163   83  229 1
 164   84  230 1
 165   84  231 1
 166   85   86 2
 167   85   88 1
 168   85   96 am
 169   87   88 1
 170   87  232 1
 171   88   89 1
 172   88  233 1
 173   89   90 1
 174   89  234 1
 175   89  235 1
 176   90   91 1
 177   90  236 1
 178   90  237 1
 179   91   92 1
 180   91  238 1
 181   91  239 1
 182   92   93 1
 183   92  240 1
 184   92  241 1
 185   93  242 1
 186   93  243 1
 187   94   95 2
 188   94   97 1
 189   94  110 am
 190   96   97 1
 191   96  244 1
 192   97   98 1
 193   97  245 1
 194   98   99 1
 195   98  246 1
 196   98  247 1
 197   99  100 2
 198   99  107 1
 199  100  101 1
 200  100  248 1
 201  101  102 1
 202  101  249 1
 203  102  103 ar
 204  102  107 ar
 205  103  104 ar
 206  103  250 1
 207  104  105 ar
 208  104  251 1
 209  105  106 ar
 210  105  252 1
 211  106  107 ar
 212  106  253 1
 213  108  109 2
 214  108  111 1
 215  108  118 am
 216  110  111 1
 217  110  254 1
 218  111  112 1
 219  111  255 1
 220  112  113 1
 221  112  256 1
 222  112  257 1
 223  113  114 1
 224  113  258 1
 225  113  259 1
 226  114  115 1
 227  115  260 1
 228  115  261 1
 229  115  262 1
 230  116  117 2
 231  116  119 1
 232  116  129 am
 233  118  119 1
 234  118  263 1
 235  119  120 1
 236  119  264 1
 237  120  121 1
 238  120  265 1
 239  120  266 1
 240  121  122 ar
 241  121  126 ar
 242  122  123 ar
 243  122  267 1
 244  123  124 ar
 245  123  268 1
 246  124  125 ar
 247  124  269 1
 248  125  126 ar
 249  125  270 1
 250  126  271 1
 251  127  128 2
 252  127  130 1
 253  127  135 1
 254  129  130 1
 255  129  272 1
 256  130  131 1
 257  130  273 1
 258  131  132 1
 259  131  134 1
 260  131  274 1
 261  132  133 1
 262  132  275 1
 263  132  276 1
 264  133  277 1
 265  133  278 1
 266  133  279 1
 267  134  280 1
 268  134  281 1
 269  134  282 1
 270  135  283 1
 271  136  137 2
 272  136  152 1
 273  138  139 1
 274  138  284 1
 275  138  285 1
 276  138  286 1
 277  139  140 1
 278  139  287 1
 279  139  288 1
 280  140  141 1
 281  140  289 1
 282  140  290 1
 283  141  142 1
 284  141  291 1
 285  141  292 1
 286  142  143 1
 287  142  293 1
 288  142  294 1
 289  143  144 1
 290  143  295 1
 291  143  296 1
 292  144  145 1
 293  144  297 1
 294  144  298 1
 295  145  146 1
 296  145  299 1
 297  145  300 1
 298  146  147 1
 299  146  301 1
 300  146  302 1
 301  147  148 1
 302  147  303 1
 303  147  304 1
 304  148  149 1
 305  148  305 1
 306  148  306 1
 307  149  150 1
 308  149  307 1
 309  149  308 1
 310  150  151 1
 311  150  309 1
 312  150  310 1
 313  151  152 1
 314  151  311 1
 315  151  312 1
 316  152  313 1
 317  152  314 1

#	End of record

