#	Name: ASD02690005
#	Creating user name:	WinNT
#	Creation time:	15. 06. 2019 20:26

#	Modifying user name:	WinNT
#	Modification time:	15. 06. 2019 20:26

#	Program:	/corina/corina34_cracker 3.40 0067  02.08.2006

@<TRIPOS>MOLECULE
ASD02690005
  36   38    0    0    0
SMALL
NO_CHARGES


@<TRIPOS>ATOM
   1 C1            -0.0168     1.3874     0.0097 C.ar    
   2 C2             0.0021    -0.0041     0.0020 C.ar    
   3 C3            -1.1911    -0.7032     0.0212 C.ar    
   4 C4            -2.4039    -0.0266     0.0484 C.ar    
   5 C5            -2.4241     1.3482     0.0340 C.ar    
   6 C6            -1.2273     2.0552     0.0306 C.ar    
   7 O7             1.1495     2.0868     0.0023 O.3     
   8 O8             1.1863    -0.6722    -0.0246 O.3     
   9 C9            -3.6640    -0.8483     0.1228 C.3     
  10 C10           -4.6703    -0.3902    -0.9362 C.3     
  11 N11           -5.5543     0.6015    -0.3206 N.3     
  12 C12           -4.8435     1.4010     0.6856 C.3     
  13 C13           -3.7023     2.1498    -0.0007 C.3     
  14 C14           -3.4803     3.4639     0.7028 C.ar    
  15 C15           -3.6168     4.6514     0.0084 C.ar    
  16 C16           -3.4132     5.8568     0.6537 C.ar    
  17 C17           -3.0735     5.8747     1.9935 C.ar    
  18 C18           -2.9379     4.6873     2.6882 C.ar    
  19 C19           -3.1458     3.4821     2.0439 C.ar    
  20 H20           -1.1797    -1.7831     0.0147 H       
  21 H21           -1.2431     3.1350     0.0364 H       
  22 H22            1.4784     2.2938    -0.8832 H       
  23 H23            1.5460    -0.8701     0.8509 H       
  24 H24           -3.4192    -1.8973    -0.0442 H       
  25 H25           -4.1077    -0.7368     1.1121 H       
  26 H26           -4.1417     0.0589    -1.7770 H       
  27 H27           -5.2561    -1.2423    -1.2810 H       
  28 H28           -5.9766     1.1933    -1.0203 H       
  29 H29           -5.5312     2.1164     1.1366 H       
  30 H30           -4.4389     0.7440     1.4554 H       
  31 H31           -3.9747     2.3429    -1.0383 H       
  32 H32           -3.8822     4.6373    -1.0384 H       
  33 H33           -3.5191     6.7845     0.1110 H       
  34 H34           -2.9137     6.8165     2.4975 H       
  35 H35           -2.6722     4.7013     3.7349 H       
  36 H36           -3.0399     2.5543     2.5866 H       
@<TRIPOS>BOND
   1    1    2 ar
   2    1    7 1
   3    1    6 ar
   4    2    3 ar
   5    2    8 1
   6    3    4 ar
   7    3   20 1
   8    4    5 ar
   9    4    9 1
  10    5    6 ar
  11    5   13 1
  12    6   21 1
  13    7   22 1
  14    8   23 1
  15    9   10 1
  16    9   24 1
  17    9   25 1
  18   10   11 1
  19   10   26 1
  20   10   27 1
  21   11   12 1
  22   11   28 1
  23   12   13 1
  24   12   29 1
  25   12   30 1
  26   13   14 1
  27   13   31 1
  28   14   15 ar
  29   14   19 ar
  30   15   16 ar
  31   15   32 1
  32   16   17 ar
  33   16   33 1
  34   17   18 ar
  35   17   34 1
  36   18   19 ar
  37   18   35 1
  38   19   36 1

#	End of record

