#	Name: ASD01815903
#	Creating user name:	WinNT
#	Creation time:	15. 06. 2019 19:34

#	Modifying user name:	WinNT
#	Modification time:	15. 06. 2019 19:34

#	Program:	/corina/corina34_cracker 3.40 0067  02.08.2006

@<TRIPOS>MOLECULE
ASD01815903
  54   59    0    0    0
SMALL
NO_CHARGES


@<TRIPOS>ATOM
   1 C1             0.1064     1.4781     0.3822 C.ar    
   2 C2             0.0862     0.0931     0.3734 C.ar    
   3 C3             1.2565    -0.6272     0.2340 C.ar    
   4 C4             2.4729     0.0371     0.1009 C.ar    
   5 C5             2.4904     1.4412     0.1101 C.ar    
   6 C6             1.3031     2.1567     0.2509 C.ar    
   7 N7             3.6499    -0.6795    -0.0383 N.pl3   
   8 C8             4.8508    -0.0941    -0.1698 C.2     
   9 C9             4.9913     1.2716    -0.1754 C.2     
  10 C10            3.7897     2.1249    -0.0323 C.2     
  11 C11            6.1080     2.2038    -0.2952 C.2     
  12 N12            5.5736     3.4421    -0.2255 N.am    
  13 N13            4.1875     3.3642    -0.0685 N.2     
  14 C14            6.3026     4.6309    -0.2995 C.ar    
  15 O15            7.2873     1.9211    -0.4307 O.2     
  16 C16            3.5814    -2.1429    -0.0416 C.3     
  17 C17            3.4354    -2.6357    -1.4583 C.ar    
  18 C18            4.5551    -2.7846    -2.2558 C.ar    
  19 C19            4.4245    -3.2356    -3.5548 C.ar    
  20 C20            3.1674    -3.5401    -4.0593 C.ar    
  21 C21            2.0450    -3.3900    -3.2559 C.ar    
  22 C22            2.1826    -2.9435    -1.9561 C.ar    
  23 N23            3.0315    -3.9976    -5.3774 N.pl3   
  24 C24            1.8719    -4.3278    -5.9897 C.2     
  25 F25            1.3218     3.5075     0.2595 F       
  26 F26            1.2209    -1.9777     0.2273 F       
  27 C27            2.1690    -4.7196    -7.2503 C.2     
  28 C28            3.5554    -4.6262    -7.4150 C.2     
  29 N29            4.0724    -4.1880    -6.2954 N.2     
  30 C30            5.6397     5.8551    -0.2153 C.ar    
  31 N31            7.6171     4.5866    -0.4435 N.ar    
  32 C32            7.7546     6.9326    -0.4474 C.ar    
  33 C33            6.3791     7.0276    -0.2906 C.ar    
  34 O34            4.2894     5.8995    -0.0623 O.3     
  35 C35            8.3436     5.6853    -0.5176 C.ar    
  36 C36            9.8378     5.5778    -0.6815 C.3     
  37 H37           -0.8163     2.0294     0.4874 H       
  38 H38           -0.8537    -0.4287     0.4770 H       
  39 H39            5.7293    -0.7136    -0.2736 H       
  40 H40            4.4943    -2.5504     0.3926 H       
  41 H41            2.7230    -2.4678     0.5463 H       
  42 H42            5.5328    -2.5477    -1.8628 H       
  43 H43            5.2993    -3.3511    -4.1775 H       
  44 H44            1.0658    -3.6257    -3.6457 H       
  45 H45            1.3099    -2.8266    -1.3307 H       
  46 H46            0.8858    -4.2867    -5.5511 H       
  47 H47            1.4610    -5.0466    -7.9975 H       
  48 H48            4.1039    -4.8695    -8.3130 H       
  49 H49            8.3592     7.8254    -0.5094 H       
  50 H50            5.8947     7.9911    -0.2334 H       
  51 H51            3.9981     5.9058     0.8597 H       
  52 H52           10.0864     5.5568    -1.7426 H       
  53 H53           10.3175     6.4372    -0.2129 H       
  54 H54           10.1904     4.6617    -0.2076 H       
@<TRIPOS>BOND
   1    1    2 ar
   2    1    6 ar
   3    1   37 1
   4    2    3 ar
   5    2   38 1
   6    3    4 ar
   7    3   26 1
   8    4    5 ar
   9    4    7 1
  10    5    6 ar
  11    5   10 1
  12    6   25 1
  13    7    8 1
  14    7   16 1
  15    8    9 2
  16    8   39 1
  17    9   10 1
  18    9   11 1
  19   10   13 2
  20   11   12 am
  21   11   15 2
  22   12   13 1
  23   12   14 1
  24   14   30 ar
  25   14   31 ar
  26   16   17 1
  27   16   40 1
  28   16   41 1
  29   17   18 ar
  30   17   22 ar
  31   18   19 ar
  32   18   42 1
  33   19   20 ar
  34   19   43 1
  35   20   21 ar
  36   20   23 1
  37   21   22 ar
  38   21   44 1
  39   22   45 1
  40   23   24 1
  41   23   29 1
  42   24   27 2
  43   24   46 1
  44   27   28 1
  45   27   47 1
  46   28   29 2
  47   28   48 1
  48   30   34 1
  49   30   33 ar
  50   31   35 ar
  51   32   33 ar
  52   32   35 ar
  53   32   49 1
  54   33   50 1
  55   34   51 1
  56   35   36 1
  57   36   52 1
  58   36   53 1
  59   36   54 1

#	End of record

