#	Name: ASD08150196
#	Creating user name:	WinNT
#	Creation time:	15. 06. 2019 21:15

#	Modifying user name:	WinNT
#	Modification time:	15. 06. 2019 21:15

#	Program:	/corina/corina34_cracker 3.40 0067  02.08.2006

@<TRIPOS>MOLECULE
ASD08150196
  42   46    0    0    0
SMALL
NO_CHARGES


@<TRIPOS>ATOM
   1 N1            -0.0588     1.3254     0.0533 N.2     
   2 C2            -0.0735     0.0281     0.0036 C.2     
   3 N3             1.0483    -0.7275    -0.1241 N.am    
   4 C4             2.2665    -0.1437    -0.2075 C.2     
   5 C5             2.3183     1.3249    -0.1542 C.ar    
   6 C6             3.5215     2.0233    -0.2323 C.ar    
   7 C7             3.5120     3.3998    -0.1778 C.ar    
   8 C8             2.3159     4.0933    -0.0457 C.ar    
   9 C9             1.1166     3.4222     0.0336 C.ar    
  10 C10            1.1000     2.0269    -0.0203 C.ar    
  11 O11            3.2798    -0.8084    -0.3217 O.2     
  12 C12           -1.4031    -0.6757     0.0925 C.3     
  13 S13           -2.7247     0.5500     0.2566 S.3     
  14 N14           -5.9403     1.2535     0.5662 N.2     
  15 C15           -7.2349     1.1774     0.6768 C.2     
  16 N16           -7.6275    -0.1280     0.6605 N.pl3   
  17 C17           -6.4977    -0.8956     0.5316 C.ar    
  18 N18           -6.2525    -2.2000     0.4590 N.ar    
  19 C19           -5.0200    -2.6454     0.3332 C.ar    
  20 N20           -3.9772    -1.8380     0.2725 N.ar    
  21 C21           -4.1240    -0.5178     0.3373 C.ar    
  22 C22           -5.4217     0.0058     0.4722 C.ar    
  23 C23            4.8236     1.2783    -0.3747 C.3     
  24 C24            0.9385    -2.1876    -0.1715 C.3     
  25 C25            0.2144    -2.8031    -1.3705 C.3     
  26 C26            1.7352    -2.9213    -1.2522 C.3     
  27 H27            4.4427     3.9444    -0.2380 H       
  28 H28            2.3269     5.1724    -0.0042 H       
  29 H29            0.1928     3.9722     0.1362 H       
  30 H30           -1.5637    -1.2645    -0.8107 H       
  31 H31           -1.4083    -1.3342     0.9611 H       
  32 H32           -7.8999     2.0235     0.7680 H       
  33 H33           -8.5385    -0.4542     0.7278 H       
  34 H34           -4.8558    -3.7114     0.2775 H       
  35 H35            4.9916     1.0377    -1.4245 H       
  36 H36            5.6403     1.9009    -0.0095 H       
  37 H37            4.7808     0.3573     0.2068 H       
  38 H38            0.8246    -2.6820     0.7932 H       
  39 H39           -0.3756    -3.7026    -1.1947 H       
  40 H40           -0.1803    -2.1216    -2.1242 H       
  41 H41            2.3410    -2.3176    -1.9279 H       
  42 H42            2.1458    -3.8986    -0.9985 H       
@<TRIPOS>BOND
   1    1    2 2
   2    1   10 1
   3    2    3 1
   4    2   12 1
   5    3    4 am
   6    3   24 1
   7    4    5 1
   8    4   11 2
   9    5    6 ar
  10    5   10 ar
  11    6    7 ar
  12    6   23 1
  13    7    8 ar
  14    7   27 1
  15    8    9 ar
  16    8   28 1
  17    9   10 ar
  18    9   29 1
  19   12   13 1
  20   12   30 1
  21   12   31 1
  22   13   21 1
  23   14   15 2
  24   14   22 1
  25   15   16 1
  26   15   32 1
  27   16   17 1
  28   16   33 1
  29   17   18 ar
  30   17   22 ar
  31   18   19 ar
  32   19   20 ar
  33   19   34 1
  34   20   21 ar
  35   21   22 ar
  36   23   35 1
  37   23   36 1
  38   23   37 1
  39   24   25 1
  40   24   26 1
  41   24   38 1
  42   25   26 1
  43   25   39 1
  44   25   40 1
  45   26   41 1
  46   26   42 1

#	End of record

