#	Name: ASD02030114
#	Creating user name:	WinNT
#	Creation time:	15. 06. 2019 20:14

#	Modifying user name:	WinNT
#	Modification time:	15. 06. 2019 20:14

#	Program:	/corina/corina34_cracker 3.40 0067  02.08.2006

@<TRIPOS>MOLECULE
ASD02030114
  55   58    0    0    0
SMALL
NO_CHARGES


@<TRIPOS>ATOM
   1 N1            -0.2117     1.4222    -0.1393 N.am    
   2 C2            -0.0215    -0.0114     0.1225 C.3     
   3 C3            -0.9186    -0.4181     1.2981 C.3     
   4 N4            -2.2775     0.0818     1.0468 N.am    
   5 C5            -2.4677     1.5154     0.7850 C.3     
   6 C6            -1.5713     1.9231    -0.3851 C.3     
   7 C7             0.8413     2.2634    -0.1482 C.2     
   8 C8             2.1837     1.7715     0.2280 C.2     
   9 N9             3.2623     2.5085     0.3833 N.2     
  10 N10            2.5162     0.4916     0.4776 N.2     
  11 C11            3.7906     0.4718     0.7748 C.2     
  12 N12            4.2437     1.7407     0.7118 N.pl3   
  13 O13            0.6872     3.4267    -0.4656 O.2     
  14 C14           -3.3305    -0.7594     1.0557 C.2     
  15 C15           -4.7025    -0.2279     0.9116 C.ar    
  16 O16           -3.1521    -1.9551     1.1822 O.2     
  17 C17           -1.5445     3.4482    -0.5044 C.3     
  18 C18           -2.1090     1.3125    -1.6809 C.3     
  19 C19            5.5593     2.1541     0.9610 C.ar    
  20 C20            5.8972     3.4972     0.8615 C.ar    
  21 C21            7.1947     3.9015     1.1076 C.ar    
  22 C22            8.1570     2.9702     1.4524 C.ar    
  23 C23            7.8236     1.6319     1.5522 C.ar    
  24 C24            6.5264     1.2222     1.3133 C.ar    
  25 C25           -5.6739    -0.9689     0.2371 C.ar    
  26 C26           -6.9525    -0.4670     0.1061 C.ar    
  27 C27           -7.2725     0.7677     0.6416 C.ar    
  28 C28           -6.3138     1.5078     1.3112 C.ar    
  29 C29           -5.0335     1.0148     1.4546 C.ar    
  30 C30           -8.0026    -1.2655    -0.6224 C.3     
  31 H31           -0.2965    -0.5846    -0.7629 H       
  32 H32            1.0215    -0.2019     0.3752 H       
  33 H33           -0.9386    -1.5045     1.3842 H       
  34 H34           -0.5333     0.0174     2.2200 H       
  35 H35           -3.5107     1.7060     0.5322 H       
  36 H36           -2.1927     2.0886     1.6704 H       
  37 H37            4.3731    -0.4017     1.0279 H       
  38 H38           -1.0486     3.8723     0.3687 H       
  39 H39           -1.0006     3.7327    -1.4052 H       
  40 H40           -2.5653     3.8261    -0.5618 H       
  41 H41           -3.1224     1.6721    -1.8588 H       
  42 H42           -1.4685     1.6044    -2.5132 H       
  43 H43           -2.1190     0.2260    -1.5938 H       
  44 H44            5.1462     4.2250     0.5917 H       
  45 H45            7.4581     4.9461     1.0305 H       
  46 H46            9.1711     3.2887     1.6436 H       
  47 H47            8.5774     0.9069     1.8216 H       
  48 H48            6.2666     0.1768     1.3918 H       
  49 H49           -5.4253    -1.9328    -0.1817 H       
  50 H50           -8.2747     1.1560     0.5363 H       
  51 H51           -6.5700     2.4712     1.7267 H       
  52 H52           -4.2863     1.5934     1.9774 H       
  53 H53           -8.5239    -1.9108     0.0848 H       
  54 H54           -8.7164    -0.5867    -1.0892 H       
  55 H55           -7.5272    -1.8767    -1.3895 H       
@<TRIPOS>BOND
   1    1    2 1
   2    1    7 am
   3    1    6 1
   4    2    3 1
   5    2   31 1
   6    2   32 1
   7    3    4 1
   8    3   33 1
   9    3   34 1
  10    4    5 1
  11    4   14 am
  12    5    6 1
  13    5   35 1
  14    5   36 1
  15    6   17 1
  16    6   18 1
  17    7    8 1
  18    7   13 2
  19    8    9 2
  20    8   10 1
  21    9   12 1
  22   10   11 2
  23   11   12 1
  24   11   37 1
  25   12   19 1
  26   14   15 1
  27   14   16 2
  28   15   25 ar
  29   15   29 ar
  30   17   38 1
  31   17   39 1
  32   17   40 1
  33   18   41 1
  34   18   42 1
  35   18   43 1
  36   19   20 ar
  37   19   24 ar
  38   20   21 ar
  39   20   44 1
  40   21   22 ar
  41   21   45 1
  42   22   23 ar
  43   22   46 1
  44   23   24 ar
  45   23   47 1
  46   24   48 1
  47   25   26 ar
  48   25   49 1
  49   26   27 ar
  50   26   30 1
  51   27   28 ar
  52   27   50 1
  53   28   29 ar
  54   28   51 1
  55   29   52 1
  56   30   53 1
  57   30   54 1
  58   30   55 1

#	End of record

