#	Name: ASD01814516
#	Creating user name:	WinNT
#	Creation time:	15. 06. 2019 19:32

#	Modifying user name:	WinNT
#	Modification time:	15. 06. 2019 19:32

#	Program:	/corina/corina34_cracker 3.40 0067  02.08.2006

@<TRIPOS>MOLECULE
ASD01814516
  52   54    0    0    0
SMALL
NO_CHARGES


@<TRIPOS>ATOM
   1 C1             1.4632     1.3957    -0.0586 C.3     
   2 C2             1.1579    -0.1039    -0.0461 C.3     
   3 C3            -0.1127    -0.3554     0.7718 C.3     
   4 N4             0.0585     0.2367     2.1056 N.am    
   5 C5             0.4418     1.6515     2.2065 C.3     
   6 C6             1.7062     1.8805     1.3725 C.3     
   7 N7             2.6625     1.6443    -0.8698 N.3     
   8 C8             2.6649     3.0144    -1.3997 C.3     
   9 C9             1.8563     3.0611    -2.7000 C.3     
  10 N10            1.9767     4.4040    -3.2837 N.am    
  11 C11            3.3185     4.9568    -3.5136 C.3     
  12 C12            4.1107     4.8888    -2.2042 C.3     
  13 C13            4.1045     3.4499    -1.6830 C.3     
  14 C14            0.8772     5.1152    -3.6026 C.2     
  15 C15            1.0083     6.5014    -4.0610 C.2     
  16 O16           -0.2246     4.6066    -3.5101 O.2     
  17 S17            2.0987     7.7016    -3.3813 S.3     
  18 C18            1.5621     8.8841    -4.4880 C.2     
  19 C19            0.6256     8.3860    -5.3038 C.2     
  20 C20            0.3069     7.0661    -5.0888 C.2     
  21 C21           -0.1327    -0.5038     3.2153 C.2     
  22 O22           -0.4499    -1.6728     3.1185 O.2     
  23 O23            0.0276     0.0517     4.4312 O.3     
  24 C24            0.0325    -0.0045     6.8658 C.3     
  25 C25           -0.1948    -0.8053     5.5820 C.3     
  26 H26            0.6177     1.9349    -0.4859 H       
  27 H27            1.0081    -0.4531    -1.0677 H       
  28 H28            1.9926    -0.6413     0.4038 H       
  29 H29           -0.9653     0.1063     0.2738 H       
  30 H30           -0.2795    -1.4284     0.8670 H       
  31 H31           -0.3656     2.2768     1.8255 H       
  32 H32            0.6408     1.9027     3.2483 H       
  33 H33            2.5357     1.3244     1.8091 H       
  34 H34            1.9465     2.9436     1.3606 H       
  35 H35            3.5015     1.4597    -0.3406 H       
  36 H36            2.2177     3.6880    -0.6687 H       
  37 H37            2.2466     2.3222    -3.3998 H       
  38 H38            0.8089     2.8479    -2.4867 H       
  39 H39            3.8280     4.3724    -4.2797 H       
  40 H40            3.2357     5.9943    -3.8372 H       
  41 H41            5.1379     5.2063    -2.3836 H       
  42 H42            3.6502     5.5452    -1.4658 H       
  43 H43            4.6882     3.3939    -0.7642 H       
  44 H44            4.5426     2.7904    -2.4321 H       
  45 H45            1.9293     9.8991    -4.5252 H       
  46 H46            0.1573     8.9766    -6.0773 H       
  47 H47           -0.4300     6.5310    -5.6694 H       
  48 H48           -0.1345    -0.6478     7.7297 H       
  49 H49            1.0560     0.3699     6.8840 H       
  50 H50           -0.6621     0.8349     6.8982 H       
  51 H51           -1.2183    -1.1797     5.5638 H       
  52 H52            0.4998    -1.6447     5.5496 H       
@<TRIPOS>BOND
   1    1    2 1
   2    1    7 1
   3    1    6 1
   4    1   26 1
   5    2    3 1
   6    2   27 1
   7    2   28 1
   8    3    4 1
   9    3   29 1
  10    3   30 1
  11    4    5 1
  12    4   21 am
  13    5    6 1
  14    5   31 1
  15    5   32 1
  16    6   33 1
  17    6   34 1
  18    7    8 1
  19    7   35 1
  20    8    9 1
  21    8   13 1
  22    8   36 1
  23    9   10 1
  24    9   37 1
  25    9   38 1
  26   10   11 1
  27   10   14 am
  28   11   12 1
  29   11   39 1
  30   11   40 1
  31   12   13 1
  32   12   41 1
  33   12   42 1
  34   13   43 1
  35   13   44 1
  36   14   15 1
  37   14   16 2
  38   15   17 1
  39   15   20 2
  40   17   18 1
  41   18   19 2
  42   18   45 1
  43   19   20 1
  44   19   46 1
  45   20   47 1
  46   21   22 2
  47   21   23 1
  48   23   25 1
  49   24   25 1
  50   24   48 1
  51   24   49 1
  52   24   50 1
  53   25   51 1
  54   25   52 1

#	End of record

