#	Name: ASD01148406
#	Creating user name:	WinNT
#	Creation time:	15. 06. 2019 19:02

#	Modifying user name:	WinNT
#	Modification time:	15. 06. 2019 19:02

#	Program:	/corina/corina34_cracker 3.40 0067  02.08.2006

@<TRIPOS>MOLECULE
ASD01148406
  46   48    0    0    0
SMALL
NO_CHARGES


@<TRIPOS>ATOM
   1 C1             0.3640     1.8421     0.0678 C.ar    
   2 C2             0.4624     0.4644    -0.0076 C.ar    
   3 C3            -0.6828    -0.3066    -0.0947 C.ar    
   4 C4            -1.9260     0.3006    -0.1064 C.ar    
   5 C5            -2.0237     1.6773    -0.0310 C.ar    
   6 C6            -0.8799     2.4479     0.0613 C.ar    
   7 C7            -3.3781     2.3381    -0.0438 C.3     
   8 O8            -4.3701     1.4939     0.5749 O.3     
   9 C9            -3.3981     3.5780     0.8816 C.3     
  10 C10           -3.9241     3.0080     2.1852 C.2     
  11 N11           -4.4445     1.8522     1.9406 N.2     
  12 C12           -3.8532     3.6624     3.5064 C.ar    
  13 C13           -4.3796     3.0230     4.6320 C.ar    
  14 C14           -3.2547     4.9185     3.6325 C.ar    
  15 C15           -3.1885     5.5289     4.8646 C.ar    
  16 C16           -3.7199     4.8922     5.9890 C.ar    
  17 C17           -4.3134     3.6332     5.8638 C.ar    
  18 C18           -3.6489     5.5471     7.3111 C.2     
  19 O19           -4.2073     5.0470     8.2676 O.2     
  20 N20           -2.9649     6.6992     7.4565 N.am    
  21 C21           -4.8870     2.9466     7.0765 C.3     
  22 C22           -3.7888     2.7112    -1.4696 C.3     
  23 F23           -3.8286     1.5578    -2.2604 F       
  24 F24           -5.0546     3.3068    -1.4495 F       
  25 F25           -2.8588     3.6102    -2.0027 F       
  26 Cl26          -0.5602    -2.0356    -0.1899 Cl      
  27 Cl27           1.8006     2.8105     0.1777 Cl      
  28 C28           -2.9002     7.2968     8.6628 C.2     
  29 O29           -2.2171     8.4475     8.8081 O.3     
  30 C30           -2.1899     9.0348    10.1357 C.3     
  31 O31           -3.4583     6.7970     9.6190 O.2     
  32 H32            1.4331    -0.0091     0.0012 H       
  33 H33           -2.8201    -0.3012    -0.1747 H       
  34 H34           -0.9569     3.5235     0.1201 H       
  35 H35           -2.3932     3.9795     1.0124 H       
  36 H36           -4.0729     4.3404     0.4925 H       
  37 H37           -4.8386     2.0502     4.5352 H       
  38 H38           -2.8437     5.4105     2.7633 H       
  39 H39           -2.7256     6.4997     4.9621 H       
  40 H40           -2.5193     7.0984     6.6930 H       
  41 H41           -5.8945     3.3189     7.2623 H       
  42 H42           -4.9235     1.8713     6.9020 H       
  43 H43           -4.2580     3.1530     7.9424 H       
  44 H44           -1.7337     8.3332    10.8341 H       
  45 H45           -1.6076     9.9559    10.1137 H       
  46 H46           -3.2080     9.2561    10.4561 H       
@<TRIPOS>BOND
   1    1    2 ar
   2    1   27 1
   3    1    6 ar
   4    2    3 ar
   5    2   32 1
   6    3    4 ar
   7    3   26 1
   8    4    5 ar
   9    4   33 1
  10    5    6 ar
  11    5    7 1
  12    6   34 1
  13    7    8 1
  14    7    9 1
  15    7   22 1
  16    8   11 1
  17    9   10 1
  18    9   35 1
  19    9   36 1
  20   10   11 2
  21   10   12 1
  22   12   13 ar
  23   12   14 ar
  24   13   17 ar
  25   13   37 1
  26   14   15 ar
  27   14   38 1
  28   15   16 ar
  29   15   39 1
  30   16   17 ar
  31   16   18 1
  32   17   21 1
  33   18   19 2
  34   18   20 am
  35   20   28 am
  36   20   40 1
  37   21   41 1
  38   21   42 1
  39   21   43 1
  40   22   23 1
  41   22   24 1
  42   22   25 1
  43   28   29 1
  44   28   31 2
  45   29   30 1
  46   30   44 1
  47   30   45 1
  48   30   46 1

#	End of record

