#	Name: ASD01885278
#	Creating user name:	WinNT
#	Creation time:	15. 06. 2019 19:49

#	Modifying user name:	WinNT
#	Modification time:	15. 06. 2019 19:49

#	Program:	/corina/corina34_cracker 3.40 0067  02.08.2006

@<TRIPOS>MOLECULE
ASD01885278
  57   61    0    0    0
SMALL
NO_CHARGES


@<TRIPOS>ATOM
   1 C1            -0.0170     1.4050     0.0098 C.2     
   2 C2             1.1991    -0.6521    -0.0129 C.2     
   3 C3             2.3930     0.0893    -0.0203 C.2     
   4 C4             2.3588     1.4383    -0.0121 C.2     
   5 N5             1.1665     2.1012     0.0022 N.pl3   
   6 C6             0.8241     3.4179     0.0118 C.2     
   7 N7            -0.4823     3.4846     0.0242 N.2     
   8 N8            -0.9895     2.3020     0.0186 N.2     
   9 C9             1.7760     4.5862     0.0091 C.3     
  10 C10            1.2438    -2.1584    -0.0214 C.3     
  11 C11            2.0853     4.9887    -1.4342 C.3     
  12 N12            1.3658    -2.6368    -1.4050 N.3     
  13 C13            1.6498    -4.0782    -1.4407 C.3     
  14 C14            1.6904    -4.5516    -2.8956 C.3     
  15 N15            2.7189    -3.7969    -3.6250 N.3     
  16 C16            2.4349    -2.3554    -3.5893 C.3     
  17 C17            2.3943    -1.8821    -2.1344 C.3     
  18 C18            0.0021    -0.0041     0.0020 C.2     
  19 C19            2.9455     6.2352    -1.6511 C.3     
  20 C20            3.5315     4.8463    -1.9129 C.3     
  21 Cl21          -1.4832    -0.9027     0.0119 Cl      
  22 C22            2.8409    -4.2753    -5.0086 C.3     
  23 C23            3.7165    -3.3309    -5.7913 C.ar    
  24 C24            5.0825    -3.5381    -5.8438 C.ar    
  25 C25            5.8869    -2.6725    -6.5609 C.ar    
  26 C26            5.3263    -1.5986    -7.2265 C.ar    
  27 C27            3.9586    -1.3904    -7.1750 C.ar    
  28 C28            3.1531    -2.2615    -6.4609 C.ar    
  29 F29            3.4097    -0.3408    -7.8248 F       
  30 C30            7.3756    -2.8994    -6.6167 C.3     
  31 F31            7.6821    -3.7173    -7.7096 F       
  32 F32            8.0297    -1.6706    -6.7560 F       
  33 F33            7.7972    -3.5209    -5.4364 F       
  34 H34            3.3434    -0.4236    -0.0323 H       
  35 H35            3.2826     1.9976    -0.0175 H       
  36 H36            1.3201     5.4274     0.5312 H       
  37 H37            2.6999     4.3031     0.5133 H       
  38 H38            2.1016    -2.4997     0.5580 H       
  39 H39            0.3278    -2.5516     0.4195 H       
  40 H40            1.2938     4.7914    -2.1572 H       
  41 H41            2.6132    -4.2708    -0.9686 H       
  42 H42            0.8679    -4.6163    -0.9048 H       
  43 H43            1.9296    -5.6146    -2.9256 H       
  44 H44            0.7185    -4.3839    -3.3598 H       
  45 H45            3.2169    -1.8173    -4.1251 H       
  46 H46            1.4715    -2.1628    -4.0614 H       
  47 H47            2.1552    -0.8191    -2.1044 H       
  48 H48            3.3662    -2.0497    -1.6702 H       
  49 H49            2.7203     6.8578    -2.5170 H       
  50 H50            3.2911     6.7685    -0.7655 H       
  51 H51            4.2626     4.4659    -1.1995 H       
  52 H52            3.6917     4.5551    -2.9510 H       
  53 H53            3.2864    -5.2701    -5.0110 H       
  54 H54            1.8528    -4.3185    -5.4665 H       
  55 H55            5.5214    -4.3767    -5.3237 H       
  56 H56            5.9550    -0.9220    -7.7862 H       
  57 H57            2.0855    -2.1027    -6.4237 H       
@<TRIPOS>BOND
   1    1   18 1
   2    1    5 1
   3    1    8 2
   4    2    3 1
   5    2   10 1
   6    2   18 2
   7    3    4 2
   8    3   34 1
   9    4    5 1
  10    4   35 1
  11    5    6 1
  12    6    7 2
  13    6    9 1
  14    7    8 1
  15    9   11 1
  16    9   36 1
  17    9   37 1
  18   10   12 1
  19   10   38 1
  20   10   39 1
  21   11   19 1
  22   11   20 1
  23   11   40 1
  24   12   13 1
  25   12   17 1
  26   13   14 1
  27   13   41 1
  28   13   42 1
  29   14   15 1
  30   14   43 1
  31   14   44 1
  32   15   16 1
  33   15   22 1
  34   16   17 1
  35   16   45 1
  36   16   46 1
  37   17   47 1
  38   17   48 1
  39   18   21 1
  40   19   20 1
  41   19   49 1
  42   19   50 1
  43   20   51 1
  44   20   52 1
  45   22   23 1
  46   22   53 1
  47   22   54 1
  48   23   24 ar
  49   23   28 ar
  50   24   25 ar
  51   24   55 1
  52   25   26 ar
  53   25   30 1
  54   26   27 ar
  55   26   56 1
  56   27   28 ar
  57   27   29 1
  58   28   57 1
  59   30   31 1
  60   30   32 1
  61   30   33 1

#	End of record

