#	Name: ASD01917088
#	Creating user name:	WinNT
#	Creation time:	15. 06. 2019 20:08

#	Modifying user name:	WinNT
#	Modification time:	15. 06. 2019 20:08

#	Program:	/corina/corina34_cracker 3.40 0067  02.08.2006

@<TRIPOS>MOLECULE
ASD01917088
  38   40    0    0    0
SMALL
NO_CHARGES


@<TRIPOS>ATOM
   1 C1            -0.0662     1.4723    -0.1213 C.ar    
   2 C2            -0.0189    -0.0054    -0.0550 C.2     
   3 N3            -0.9974    -0.7939     0.3362 N.2     
   4 C4            -0.6031    -2.0701     0.2677 C.2     
   5 N5             0.6370    -2.1113    -0.1700 N.2     
   6 N6             1.0361    -0.7833    -0.3917 N.pl3   
   7 C7             2.3399    -0.3292    -0.8818 C.3     
   8 C8             2.3265    -0.2965    -2.3884 C.2     
   9 O9             3.4215     0.0913    -3.0610 O.3     
  10 O10            1.3302    -0.6194    -2.9909 O.2     
  11 C11           -1.4302    -3.2486     0.6275 C.ar    
  12 C12            0.8404     2.1662    -0.9228 C.ar    
  13 C13           -0.9032    -4.5334     0.5123 C.ar    
  14 C14           -1.6756    -5.6263     0.8479 C.ar    
  15 C15           -2.9735    -5.4478     1.2984 C.ar    
  16 C16           -3.5016    -4.1721     1.4140 C.ar    
  17 C17           -2.7339    -3.0733     1.0869 C.ar    
  18 C18            0.7938     3.5444    -0.9825 C.ar    
  19 C19           -0.1491     4.2406    -0.2496 C.ar    
  20 C20           -1.0552     3.5581     0.5511 C.ar    
  21 C21           -1.0210     2.1752     0.6126 C.ar    
  22 O22           -1.9797     4.2474     1.2703 O.3     
  23 C23           -1.9615     5.6716     1.1547 C.3     
  24 F24           -3.7266    -6.5207     1.6255 F       
  25 H25            2.5440     0.6705    -0.4985 H       
  26 H26            3.1154    -1.0147    -0.5401 H       
  27 H27            3.3650     0.0960    -4.0263 H       
  28 H28            1.5789     1.6254    -1.4960 H       
  29 H29            0.1083    -4.6735     0.1605 H       
  30 H30           -1.2679    -6.6225     0.7589 H       
  31 H31           -4.5141    -4.0374     1.7649 H       
  32 H32           -3.1463    -2.0792     1.1773 H       
  33 H33            1.4963     4.0805    -1.6033 H       
  34 H34           -0.1809     5.3189    -0.2998 H       
  35 H35           -1.7252     1.6432     1.2350 H       
  36 H36           -0.9935     6.0504     1.4826 H       
  37 H37           -2.1291     5.9539     0.1153 H       
  38 H38           -2.7482     6.0968     1.7780 H       
@<TRIPOS>BOND
   1    1    2 1
   2    1   12 ar
   3    1   21 ar
   4    2    3 2
   5    2    6 1
   6    3    4 1
   7    4    5 2
   8    4   11 1
   9    5    6 1
  10    6    7 1
  11    7    8 1
  12    7   25 1
  13    7   26 1
  14    8    9 1
  15    8   10 2
  16    9   27 1
  17   11   13 ar
  18   11   17 ar
  19   12   18 ar
  20   12   28 1
  21   13   14 ar
  22   13   29 1
  23   14   15 ar
  24   14   30 1
  25   15   16 ar
  26   15   24 1
  27   16   17 ar
  28   16   31 1
  29   17   32 1
  30   18   19 ar
  31   18   33 1
  32   19   20 ar
  33   19   34 1
  34   20   21 ar
  35   20   22 1
  36   21   35 1
  37   22   23 1
  38   23   36 1
  39   23   37 1
  40   23   38 1

#	End of record

