#	Name: ASD00600004
#	Creating user name:	WinNT
#	Creation time:	15. 06. 2019 18:36

#	Modifying user name:	WinNT
#	Modification time:	15. 06. 2019 18:36

#	Program:	/corina/corina34_cracker 3.40 0067  02.08.2006

@<TRIPOS>MOLECULE
ASD00600004
  84   88    0    0    0
SMALL
NO_CHARGES


@<TRIPOS>ATOM
   1 C1             2.2428     1.5640     2.8989 C.3     
   2 C2             2.0347     0.1199     2.4301 C.3     
   3 C3             0.6327    -0.0121     1.8323 C.3     
   4 N4            -0.3719     0.3229     2.8500 N.3     
   5 C5            -0.2088     1.7019     3.3283 C.3     
   6 C6             1.1762     1.8687     3.9561 C.3     
   7 N7             3.5641     1.6778     3.5114 N.am    
   8 C8             4.3534     2.7409     3.3083 C.2     
   9 C9             3.9309     3.8838     2.4303 C.3     
  10 N10            2.8323     3.5541     1.5278 N.am    
  11 C11            2.0469     2.4878     1.7294 C.2     
  12 C12            4.0409     0.5951     4.3756 C.3     
  13 C13            4.7935    -0.4364     3.5327 C.3     
  14 O14            5.4386     2.7818     3.8484 O.2     
  15 O15            1.1508     2.2608     0.9443 O.2     
  16 C16            3.4984     5.0503     3.3209 C.3     
  17 C17            3.1825     6.2675     2.4495 C.3     
  18 C18            2.6316     7.3936     3.3266 C.3     
  19 C19            2.3156     8.6108     2.4551 C.3     
  20 C20            3.5929     9.0850     1.7589 C.3     
  21 C21            4.1438     7.9589     0.8818 C.3     
  22 C22            4.4597     6.7417     1.7533 C.3     
  23 C23           -1.7317     0.0996     2.3410 C.3     
  24 C24           -2.7177     0.2146     3.4748 C.ar    
  25 C25            5.2914    -1.5671     4.4352 C.3     
  26 C26            6.0440    -2.5986     3.5922 C.3     
  27 C27           -3.2810     1.4404     3.7779 C.ar    
  28 C28           -4.1851     1.5486     4.8167 C.ar    
  29 C29           -4.5278     0.4256     5.5563 C.ar    
  30 C30           -3.9611    -0.8033     5.2500 C.ar    
  31 C31           -3.0618    -0.9070     4.2066 C.ar    
  32 O32           -5.4166     0.5294     6.5789 O.3     
  33 C33           -6.0261     1.7258     6.7742 C.ar    
  34 C34           -7.2156     2.0138     6.1144 C.ar    
  35 C35           -7.8374     3.2263     6.3101 C.ar    
  36 C36           -7.2713     4.1686     7.1738 C.ar    
  37 C37           -6.0752     3.8751     7.8353 C.ar    
  38 C38           -5.4625     2.6581     7.6381 C.ar    
  39 C39           -7.9338     5.4689     7.3861 C.2     
  40 O40           -8.9731     5.7225     6.8100 O.2     
  41 O41           -7.3865     6.3759     8.2189 O.3     
  42 H42            2.7789    -0.1291     1.6737 H       
  43 H43            2.1350    -0.5572     3.2783 H       
  44 H44            0.5334     0.6686     0.9868 H       
  45 H45            0.4780    -1.0364     1.4932 H       
  46 H46           -0.3125     2.3911     2.4903 H       
  47 H47           -0.9735     1.9200     4.0738 H       
  48 H48            1.2835     1.1780     4.7924 H       
  49 H49            1.2955     2.8927     4.3103 H       
  50 H50            4.7873     4.2007     1.8351 H       
  51 H51            2.6661     4.1233     0.7601 H       
  52 H52            4.7099     1.0029     5.1333 H       
  53 H53            3.1905     0.1166     4.8613 H       
  54 H54            4.1245    -0.8442     2.7749 H       
  55 H55            5.6439     0.0421     3.0469 H       
  56 H56            2.6098     4.7668     3.8850 H       
  57 H57            4.3040     5.2977     4.0123 H       
  58 H58            2.4399     5.9946     1.6996 H       
  59 H59            1.7216     7.0558     3.8225 H       
  60 H60            3.3741     7.6665     4.0764 H       
  61 H61            1.5730     8.3379     1.7053 H       
  62 H62            1.9231     9.4130     3.0800 H       
  63 H63            3.3678     9.9521     1.1381 H       
  64 H64            4.3355     9.3578     2.5088 H       
  65 H65            3.4012     7.6860     0.1320 H       
  66 H66            5.0538     8.2967     0.3859 H       
  67 H67            5.2023     7.0146     2.5031 H       
  68 H68            4.8522     5.9394     1.1284 H       
  69 H69           -1.9626     0.8466     1.5815 H       
  70 H70           -1.7966    -0.8962     1.9026 H       
  71 H71            5.9605    -1.1592     5.1929 H       
  72 H72            4.4410    -2.0455     4.9209 H       
  73 H73            6.8945    -2.1201     3.1065 H       
  74 H74            6.3988    -3.4041     4.2352 H       
  75 H75            5.3750    -3.0064     2.8345 H       
  76 H76           -3.0136     2.3142     3.2022 H       
  77 H77           -4.6245     2.5064     5.0533 H       
  78 H78           -4.2259    -1.6788     5.8243 H       
  79 H79           -2.6204    -1.8633     3.9677 H       
  80 H80           -7.6521     1.2854     5.4471 H       
  81 H81           -8.7612     3.4494     5.7969 H       
  82 H82           -5.6347     4.6004     8.5033 H       
  83 H83           -4.5385     2.4306     8.1487 H       
  84 H84           -7.8572     7.2138     8.3260 H       
@<TRIPOS>BOND
   1    1    2 1
   2    1    7 1
   3    1    6 1
   4    1   11 1
   5    2    3 1
   6    2   42 1
   7    2   43 1
   8    3    4 1
   9    3   44 1
  10    3   45 1
  11    4    5 1
  12    4   23 1
  13    5    6 1
  14    5   46 1
  15    5   47 1
  16    6   48 1
  17    6   49 1
  18    7    8 am
  19    7   12 1
  20    8    9 1
  21    8   14 2
  22    9   10 1
  23    9   16 1
  24    9   50 1
  25   10   11 am
  26   10   51 1
  27   11   15 2
  28   12   13 1
  29   12   52 1
  30   12   53 1
  31   13   25 1
  32   13   54 1
  33   13   55 1
  34   16   17 1
  35   16   56 1
  36   16   57 1
  37   17   18 1
  38   17   22 1
  39   17   58 1
  40   18   19 1
  41   18   59 1
  42   18   60 1
  43   19   20 1
  44   19   61 1
  45   19   62 1
  46   20   21 1
  47   20   63 1
  48   20   64 1
  49   21   22 1
  50   21   65 1
  51   21   66 1
  52   22   67 1
  53   22   68 1
  54   23   24 1
  55   23   69 1
  56   23   70 1
  57   24   27 ar
  58   24   31 ar
  59   25   26 1
  60   25   71 1
  61   25   72 1
  62   26   73 1
  63   26   74 1
  64   26   75 1
  65   27   28 ar
  66   27   76 1
  67   28   29 ar
  68   28   77 1
  69   29   30 ar
  70   29   32 1
  71   30   31 ar
  72   30   78 1
  73   31   79 1
  74   32   33 1
  75   33   34 ar
  76   33   38 ar
  77   34   35 ar
  78   34   80 1
  79   35   36 ar
  80   35   81 1
  81   36   37 ar
  82   36   39 1
  83   37   38 ar
  84   37   82 1
  85   38   83 1
  86   39   40 2
  87   39   41 1
  88   41   84 1

#	End of record

