#	Name: ASD01440017
#	Creating user name:	WinNT
#	Creation time:	15. 06. 2019 19:20

#	Modifying user name:	WinNT
#	Modification time:	15. 06. 2019 19:20

#	Program:	/corina/corina34_cracker 3.40 0067  02.08.2006

@<TRIPOS>MOLECULE
ASD01440017
  90   95    0    0    0
SMALL
NO_CHARGES


@<TRIPOS>ATOM
   1 N1             2.0582     1.4831    -0.3621 N.ar    
   2 C2             2.0585     0.1671    -0.4934 C.ar    
   3 C3             1.3630    -0.6338     0.4036 C.ar    
   4 C4             0.6672    -0.0366     1.4400 C.ar    
   5 C5             0.6919     1.3477     1.5429 C.ar    
   6 C6             1.4042     2.0813     0.6156 C.ar    
   7 C7             1.3659    -2.1329     0.2498 C.3     
   8 C8             0.6719    -2.7883     1.4249 C.2     
   9 C9             0.5335    -2.5449    -0.9430 C.ar    
  10 N10            2.7371    -2.6319     0.1197 N.am    
  11 C11           -0.4964    -3.3383    -0.4452 C.ar    
  12 C12            0.6354    -2.2804    -2.2857 C.ar    
  13 C13           -0.3066    -2.8132    -3.1725 C.ar    
  14 C14           -1.3428    -3.6105    -2.6790 C.ar    
  15 C15           -1.4360    -3.8684    -1.3312 C.ar    
  16 C16           -0.2099    -2.5431    -4.5755 C.1     
  17 N17           -0.3849    -3.4589     0.9370 N.am    
  18 C18           -2.8061    -3.2815     2.2335 C.ar    
  19 C19           -3.9421    -3.3362     1.4473 C.ar    
  20 C20           -2.7452    -2.4095     3.3048 C.ar    
  21 C21           -3.8200    -1.5905     3.5922 C.ar    
  22 C22           -4.9610    -1.6435     2.8048 C.ar    
  23 C23           -5.0193    -2.5189     1.7302 C.ar    
  24 O24           -6.0197    -0.8391     3.0857 O.3     
  25 O25            1.0075    -2.7210     2.5884 O.2     
  26 C26            3.6323    -2.4066     1.1018 C.2     
  27 O27            3.3301    -1.7105     2.0518 O.2     
  28 N28            4.8623    -2.9528     1.0308 N.am    
  29 C29            5.8913    -2.6282     2.0303 C.3     
  30 C30            6.4714    -3.9379     2.5748 C.3     
  31 N31            6.9337    -4.7681     1.4545 N.3     
  32 C32            5.8181    -5.1493     0.5780 C.3     
  33 C33            5.2094    -3.8940    -0.0448 C.3     
  34 C34            7.6513    -5.9545     1.9395 C.3     
  35 C35            8.0081    -6.8566     0.7548 C.3     
  36 C36            8.8082    -8.0598     1.2589 C.3     
  37 N37           10.0297    -7.5921     1.9265 N.3     
  38 C38            9.7115    -6.7625     3.0956 C.3     
  39 C39            8.9384    -5.5206     2.6463 C.3     
  40 C40           10.8904    -8.7220     2.3012 C.3     
  41 O41            2.7443    -0.4061    -1.5141 O.3     
  42 C42            3.3500     0.4735    -2.4635 C.3     
  43 C43            3.9695    -0.3473    -3.5964 C.3     
  44 N44           -0.1331    -2.3288    -5.6885 N.1     
  45 C45           -7.1610    -0.9473     2.2327 C.3     
  46 C46           12.2511    -8.1957     2.7622 C.3     
  47 S47           -1.4364    -4.3300     1.8740 S.o2    
  48 O48           -1.9361    -5.3749     1.0509 O.2     
  49 O49           -0.7743    -4.5630     3.1096 O.2     
  50 H50            0.1173    -0.6337     2.1523 H       
  51 H51            0.1591     1.8453     2.3398 H       
  52 H52            1.4269     3.1584     0.6914 H       
  53 H53            3.0008    -3.1244    -0.6732 H       
  54 H54            1.4399    -1.6627    -2.6566 H       
  55 H55           -2.0733    -4.0248    -3.3580 H       
  56 H56           -2.2395    -4.4852    -0.9565 H       
  57 H57           -3.9872    -4.0181     0.6111 H       
  58 H58           -1.8569    -2.3689     3.9177 H       
  59 H59           -3.7721    -0.9098     4.4293 H       
  60 H60           -5.9063    -2.5618     1.1156 H       
  61 H61            6.6836    -2.0429     1.5634 H       
  62 H62            5.4437    -2.0593     2.8452 H       
  63 H63            7.3105    -3.7175     3.2346 H       
  64 H64            5.7018    -4.4731     3.1308 H       
  65 H65            6.1835    -5.8075    -0.2103 H       
  66 H66            5.0576    -5.6677     1.1619 H       
  67 H67            4.3124    -4.1607    -0.6037 H       
  68 H68            5.9346    -3.4275    -0.7116 H       
  69 H69            7.0186    -6.5030     2.6374 H       
  70 H70            7.0939    -7.2034     0.2732 H       
  71 H71            8.6076    -6.2955     0.0379 H       
  72 H72            8.2031    -8.6281     1.9654 H       
  73 H73            9.0761    -8.6967     0.4160 H       
  74 H74            9.1022    -7.3369     3.7935 H       
  75 H75           10.6355    -6.4572     3.5866 H       
  76 H76            9.5525    -4.9385     1.9591 H       
  77 H77            8.6888    -4.9129     3.5161 H       
  78 H78           10.4235    -9.2812     3.1120 H       
  79 H79           11.0266    -9.3762     1.4401 H       
  80 H80            2.5936     1.1437    -2.8720 H       
  81 H81            4.1270     1.0591    -1.9722 H       
  82 H82            3.1811    -0.8636    -4.1442 H       
  83 H83            4.5078     0.3161    -4.2734 H       
  84 H84            4.6609    -1.0792    -3.1788 H       
  85 H85           -6.8737    -0.7066     1.2091 H       
  86 H86           -7.5483    -1.9655     2.2714 H       
  87 H87           -7.9316    -0.2525     2.5668 H       
  88 H88           12.7180    -7.6366     1.9513 H       
  89 H89           12.1149    -7.5415     3.6233 H       
  90 H90           12.8897    -9.0341     3.0402 H       
@<TRIPOS>BOND
   1    1    2 ar
   2    1    6 ar
   3    2    3 ar
   4    2   41 1
   5    3    4 ar
   6    3    7 1
   7    4    5 ar
   8    4   50 1
   9    5    6 ar
  10    5   51 1
  11    6   52 1
  12    7    8 1
  13    7    9 1
  14    7   10 1
  15    8   17 am
  16    8   25 2
  17    9   11 ar
  18    9   12 ar
  19   10   26 am
  20   10   53 1
  21   11   17 1
  22   11   15 ar
  23   12   13 ar
  24   12   54 1
  25   13   14 ar
  26   13   16 1
  27   14   15 ar
  28   14   55 1
  29   15   56 1
  30   16   44 3
  31   17   47 am
  32   18   19 ar
  33   18   20 ar
  34   18   47 1
  35   19   23 ar
  36   19   57 1
  37   20   21 ar
  38   20   58 1
  39   21   22 ar
  40   21   59 1
  41   22   23 ar
  42   22   24 1
  43   23   60 1
  44   24   45 1
  45   26   27 2
  46   26   28 am
  47   28   29 1
  48   28   33 1
  49   29   30 1
  50   29   61 1
  51   29   62 1
  52   30   31 1
  53   30   63 1
  54   30   64 1
  55   31   32 1
  56   31   34 1
  57   32   33 1
  58   32   65 1
  59   32   66 1
  60   33   67 1
  61   33   68 1
  62   34   35 1
  63   34   39 1
  64   34   69 1
  65   35   36 1
  66   35   70 1
  67   35   71 1
  68   36   37 1
  69   36   72 1
  70   36   73 1
  71   37   38 1
  72   37   40 1
  73   38   39 1
  74   38   74 1
  75   38   75 1
  76   39   76 1
  77   39   77 1
  78   40   46 1
  79   40   78 1
  80   40   79 1
  81   41   42 1
  82   42   43 1
  83   42   80 1
  84   42   81 1
  85   43   82 1
  86   43   83 1
  87   43   84 1
  88   45   85 1
  89   45   86 1
  90   45   87 1
  91   46   88 1
  92   46   89 1
  93   46   90 1
  94   47   48 2
  95   47   49 2

#	End of record

