#	Name: ASD05940009
#	Creating user name:	WinNT
#	Creation time:	15. 06. 2019 21:04

#	Modifying user name:	WinNT
#	Modification time:	15. 06. 2019 21:04

#	Program:	/corina/corina34_cracker 3.40 0067  02.08.2006

@<TRIPOS>MOLECULE
ASD05940009
  63   66    0    0    0
SMALL
NO_CHARGES


@<TRIPOS>ATOM
   1 N1            -0.0159     1.3181     0.0093 N.ar    
   2 C2             0.0021    -0.0041     0.0020 C.ar    
   3 N3             1.1319    -0.6930    -0.0101 N.ar    
   4 C4             2.3066    -0.0681    -0.0158 C.ar    
   5 C5             2.3274     1.3257    -0.0126 C.ar    
   6 C6             1.1197     2.0168     0.0022 C.ar    
   7 N7             3.4912    -0.7843    -0.0194 N.3     
   8 C8             4.5325    -0.1239    -0.8126 C.3     
   9 C9             4.6626     1.3202    -0.4024 C.2     
  10 N10            3.5574     2.0048    -0.0283 N.am    
  11 N11            1.0976     3.4049     0.0085 N.pl3   
  12 O12           -1.1750    -0.6756     0.0076 O.3     
  13 C13            3.2722    -2.1617    -0.4807 C.3     
  14 O14            5.7473     1.8634    -0.4080 O.2     
  15 C15            4.6022    -2.8335    -0.7061 C.ar    
  16 C16            5.2126    -3.5218     0.3257 C.ar    
  17 C17            6.4326    -4.1380     0.1190 C.ar    
  18 C18            7.0420    -4.0662    -1.1197 C.ar    
  19 C19            6.4313    -3.3787    -2.1517 C.ar    
  20 C20            5.2092    -2.7662    -1.9462 C.ar    
  21 C21           -2.3694     0.1089     0.0211 C.3     
  22 C22           -3.4758    -0.6591     0.7468 C.3     
  23 C23           -3.0924    -0.8381     2.2172 C.3     
  24 C24           -4.1989    -1.6061     2.9429 C.3     
  25 C25            9.4165    -6.7253    -2.2620 C.3     
  26 N26            8.1545    -6.1150    -1.8052 N.3     
  27 C27            7.1826    -6.1541    -2.9185 C.3     
  28 C28            7.6592    -7.3209    -3.8190 C.3     
  29 C29            9.2014    -7.1834    -3.7199 C.3     
  30 C30            8.3726    -4.7371    -1.3448 C.3     
  31 C31           -2.8069     0.3967    -1.4165 C.3     
  32 H32            5.4840    -0.6315    -0.6537 H       
  33 H33            4.2697    -0.1768    -1.8692 H       
  34 H34            3.6126     2.9403     0.2223 H       
  35 H35            1.9298     3.9032     0.0026 H       
  36 H36            0.2500     3.8765     0.0188 H       
  37 H37            2.7102    -2.7125     0.2736 H       
  38 H38            2.7096    -2.1471    -1.4142 H       
  39 H39            4.7364    -3.5779     1.2935 H       
  40 H40            6.9098    -4.6751     0.9253 H       
  41 H41            6.9076    -3.3223    -3.1194 H       
  42 H42            4.7320    -2.2290    -2.7525 H       
  43 H43           -2.1805     1.0495     0.5385 H       
  44 H44           -4.4096    -0.1007     0.6802 H       
  45 H45           -3.6035    -1.6372     0.2830 H       
  46 H46           -2.1587    -1.3965     2.2838 H       
  47 H47           -2.9648     0.1400     2.6810 H       
  48 H48           -4.3266    -2.5842     2.4791 H       
  49 H49           -3.9258    -1.7336     3.9904 H       
  50 H50           -5.1326    -1.0477     2.8763 H       
  51 H51           10.2206    -5.9907    -2.2190 H       
  52 H52            9.6614    -7.5834    -1.6360 H       
  53 H53            6.1798    -6.3520    -2.5400 H       
  54 H54            7.2017    -5.2153    -3.4721 H       
  55 H55            7.3265    -8.2805    -3.4234 H       
  56 H56            7.3203    -7.1851    -4.8460 H       
  57 H57            9.5669    -6.4307    -4.4183 H       
  58 H58            9.6861    -8.1434    -3.8977 H       
  59 H59            8.9341    -4.1864    -2.0995 H       
  60 H60            8.9352    -4.7506    -0.4114 H       
  61 H61           -2.9958    -0.5439    -1.9340 H       
  62 H62           -3.7179     0.9951    -1.4062 H       
  63 H63           -2.0186     0.9439    -1.9336 H       
@<TRIPOS>BOND
   1    1    2 ar
   2    1    6 ar
   3    2    3 ar
   4    2   12 1
   5    3    4 ar
   6    4    5 ar
   7    4    7 1
   8    5    6 ar
   9    5   10 1
  10    6   11 1
  11    7    8 1
  12    7   13 1
  13    8    9 1
  14    8   32 1
  15    8   33 1
  16    9   10 am
  17    9   14 2
  18   10   34 1
  19   11   35 1
  20   11   36 1
  21   12   21 1
  22   13   15 1
  23   13   37 1
  24   13   38 1
  25   15   16 ar
  26   15   20 ar
  27   16   17 ar
  28   16   39 1
  29   17   18 ar
  30   17   40 1
  31   18   19 ar
  32   18   30 1
  33   19   20 ar
  34   19   41 1
  35   20   42 1
  36   21   22 1
  37   21   31 1
  38   21   43 1
  39   22   23 1
  40   22   44 1
  41   22   45 1
  42   23   24 1
  43   23   46 1
  44   23   47 1
  45   24   48 1
  46   24   49 1
  47   24   50 1
  48   25   26 1
  49   25   29 1
  50   25   51 1
  51   25   52 1
  52   26   27 1
  53   26   30 1
  54   27   28 1
  55   27   53 1
  56   27   54 1
  57   28   29 1
  58   28   55 1
  59   28   56 1
  60   29   57 1
  61   29   58 1
  62   30   59 1
  63   30   60 1
  64   31   61 1
  65   31   62 1
  66   31   63 1

#	End of record

