#	Name: ASD06710010
#	Creating user name:	WinNT
#	Creation time:	15. 06. 2019 21:08

#	Modifying user name:	WinNT
#	Modification time:	15. 06. 2019 21:08

#	Program:	/corina/corina34_cracker 3.40 0067  02.08.2006

@<TRIPOS>MOLECULE
ASD06710010
  39   41    0    0    0
SMALL
NO_CHARGES


@<TRIPOS>ATOM
   1 C1            -0.0184     1.5028     0.0103 C.3     
   2 C2             0.0021    -0.0041     0.0020 C.ar    
   3 C3             0.0229    -0.7017     1.1942 C.ar    
   4 C4             0.0411    -2.0842     1.1872 C.ar    
   5 C5             0.0387    -2.7720    -0.0122 C.ar    
   6 C6             0.0184    -2.0790    -1.2071 C.ar    
   7 C7            -0.0058    -0.6919    -1.2028 C.ar    
   8 O8            -0.0258    -0.0078    -2.3769 O.3     
   9 C9            -1.3083     0.2966    -2.9286 C.3     
  10 C10           -1.1302     1.0636    -4.2405 C.3     
  11 S11           -2.7547     1.4491    -4.9393 S.3     
  12 C12           -2.2644     2.3062    -6.3987 C.2     
  13 N13           -1.0248     2.5322    -6.7588 N.2     
  14 C14           -1.0082     3.2167    -7.9324 C.ar    
  15 C15           -2.3451     3.4205    -8.3117 C.ar    
  16 N16           -3.1198     2.8294    -7.3268 N.pl3   
  17 C17           -2.6361     4.1005    -9.4845 C.ar    
  18 C18           -1.6104     4.5751   -10.2758 C.ar    
  19 C19           -0.2884     4.3766    -9.9061 C.ar    
  20 C20            0.0190     3.7040    -8.7447 C.ar    
  21 C21            0.0166    -2.8292    -2.5141 C.3     
  22 H22            1.0042     1.8801     0.0026 H       
  23 H23           -0.5455     1.8639    -0.8728 H       
  24 H24           -0.5286     1.8543     0.9071 H       
  25 H25            0.0252    -0.1668     2.1324 H       
  26 H26            0.0577    -2.6278     2.1203 H       
  27 H27            0.0530    -3.8519    -0.0150 H       
  28 H28           -1.8506    -0.6294    -3.1199 H       
  29 H29           -1.8712     0.9083    -2.2237 H       
  30 H30           -0.5879     1.9895    -4.0492 H       
  31 H31           -0.5673     0.4518    -4.9455 H       
  32 H32           -4.0888     2.7985    -7.2982 H       
  33 H33           -3.6635     4.2580    -9.7781 H       
  34 H34           -1.8383     5.1043   -11.1893 H       
  35 H35            0.5059     4.7528   -10.5338 H       
  36 H36            1.0506     3.5533    -8.4626 H       
  37 H37           -1.0113    -3.0240    -2.8198 H       
  38 H38            0.5154    -2.2313    -3.2769 H       
  39 H39            0.5445    -3.7749    -2.3909 H       
@<TRIPOS>BOND
   1    1    2 1
   2    1   22 1
   3    1   23 1
   4    1   24 1
   5    2    3 ar
   6    2    7 ar
   7    3    4 ar
   8    3   25 1
   9    4    5 ar
  10    4   26 1
  11    5    6 ar
  12    5   27 1
  13    6    7 ar
  14    6   21 1
  15    7    8 1
  16    8    9 1
  17    9   10 1
  18    9   28 1
  19    9   29 1
  20   10   11 1
  21   10   30 1
  22   10   31 1
  23   11   12 1
  24   12   13 2
  25   12   16 1
  26   13   14 1
  27   14   15 ar
  28   14   20 ar
  29   15   16 1
  30   15   17 ar
  31   16   32 1
  32   17   18 ar
  33   17   33 1
  34   18   19 ar
  35   18   34 1
  36   19   20 ar
  37   19   35 1
  38   20   36 1
  39   21   37 1
  40   21   38 1
  41   21   39 1

#	End of record

