#	Name: ASD01208657
#	Creating user name:	WinNT
#	Creation time:	15. 06. 2019 19:10

#	Modifying user name:	WinNT
#	Modification time:	15. 06. 2019 19:10

#	Program:	/corina/corina34_cracker 3.40 0067  02.08.2006

@<TRIPOS>MOLECULE
ASD01208657
  18   18    0    0    0
SMALL
NO_CHARGES


@<TRIPOS>ATOM
   1 C1            -0.0167     1.3794     0.0096 C.ar    
   2 C2             0.0021    -0.0041     0.0020 C.ar    
   3 N3             1.1183     2.0561     0.0024 N.ar    
   4 N4             1.1551    -0.6494    -0.0125 N.ar    
   5 C5             2.2911     0.0273    -0.0198 C.ar    
   6 C6             2.2717     1.4119    -0.0121 C.ar    
   7 S7            -1.5546     2.2392     0.0216 S.o2    
   8 O8            -1.8364     2.5763    -1.3298 O.2     
   9 O9            -2.4360     1.4737     0.8317 O.2     
  10 N10           -1.3102     3.6698     0.8191 N.am    
  11 C11           -0.4118     4.6794     0.2537 C.3     
  12 Br12           3.9415    -0.8955    -0.0399 Br      
  13 H13           -0.9258    -0.5566     0.0083 H       
  14 H14            3.1993     1.9650    -0.0183 H       
  15 H15           -1.7619     3.8393     1.6606 H       
  16 H16           -0.7783     4.9838    -0.7266 H       
  17 H17           -0.3777     5.5461     0.9140 H       
  18 H18            0.5891     4.2597     0.1532 H       
@<TRIPOS>BOND
   1    1    2 ar
   2    1    3 ar
   3    1    7 1
   4    2    4 ar
   5    2   13 1
   6    3    6 ar
   7    4    5 ar
   8    5    6 ar
   9    5   12 1
  10    6   14 1
  11    7    8 2
  12    7    9 2
  13    7   10 am
  14   10   11 1
  15   10   15 1
  16   11   16 1
  17   11   17 1
  18   11   18 1

#	End of record

