#	Name: ASD05430048
#	Creating user name:	WinNT
#	Creation time:	15. 06. 2019 20:59

#	Modifying user name:	WinNT
#	Modification time:	15. 06. 2019 20:59

#	Program:	/corina/corina34_cracker 3.40 0067  02.08.2006

@<TRIPOS>MOLECULE
ASD05430048
  66   72    0    0    0
SMALL
NO_CHARGES


@<TRIPOS>ATOM
   1 C1             0.0925     2.7264    -0.7650 C.ar    
   2 C2            -0.0844     1.4640    -1.3542 C.ar    
   3 C3             1.0047     0.7346    -1.7960 C.ar    
   4 C4             2.2838     1.2404    -1.6626 C.ar    
   5 C5             2.4880     2.4871    -1.0826 C.ar    
   6 C6             1.3755     3.2531    -0.6219 C.ar    
   7 O7             4.7788     0.8059    -0.9546 O.3     
   8 C8             4.9090     2.1768    -0.9841 C.2     
   9 C9             3.8500     3.0165    -0.9439 C.2     
  10 C10            5.7084     0.1102    -0.1275 C.3     
  11 C11            7.1523     0.3331    -0.5793 C.3     
  12 N12            7.3590     1.7653    -0.7842 N.pl3   
  13 C13            6.3113     2.6519    -1.0632 C.2     
  14 C14           -1.9216     0.4146    -2.6387 C.2     
  15 N15           -1.3756     0.9384    -1.4955 N.pl3   
  16 C16           -3.1744     0.0279    -2.3309 C.2     
  17 N17           -3.3924     0.3057    -1.0370 N.2     
  18 C18           -2.3225     0.8513    -0.5256 C.2     
  19 C19           -4.1610    -0.6066    -3.2770 C.3     
  20 C20            8.5771     2.5685    -0.7330 C.3     
  21 O21            8.1945     3.7921    -1.3971 O.3     
  22 N22            6.7726     3.8093    -1.3865 N.2     
  23 C23            8.9752     2.8404     0.6948 C.ar    
  24 C24            9.7127     1.8759    -1.4891 C.3     
  25 O25           10.9194     2.6236    -1.3254 O.3     
  26 C26            8.7660     1.8784     1.6654 C.ar    
  27 C27            9.5544     4.0495     1.0321 C.ar    
  28 C28            9.9207     4.2997     2.3409 C.ar    
  29 C29            9.7069     3.3389     3.3148 C.ar    
  30 C30            9.1311     2.1265     2.9750 C.ar    
  31 F31           10.0646     3.5824     4.5946 F       
  32 C32            5.5445     0.5481     1.3401 C.3     
  33 C33            5.1386    -0.7516     2.0723 C.3     
  34 O34            5.6432    -1.8184     1.2390 O.3     
  35 C35            5.3879    -1.3961    -0.1196 C.3     
  36 C36            1.3587     4.5604     0.0058 C.2     
  37 C37            0.1579     5.0099     0.3223 C.2     
  38 S38           -1.0896     3.8635    -0.1281 S.3     
  39 C39            2.6159     5.3460     0.2766 C.3     
  40 H40            0.8548    -0.2352    -2.2470 H       
  41 H41            3.1286     0.6644    -2.0101 H       
  42 H42            4.0062     4.0767    -0.8098 H       
  43 H43            7.8361    -0.0294     0.1882 H       
  44 H44            7.3301    -0.1998    -1.5133 H       
  45 H45           -1.4410     0.3321    -3.6023 H       
  46 H46           -2.2089     1.1779     0.4976 H       
  47 H47           -4.0481    -1.6903    -3.2466 H       
  48 H48           -5.1745    -0.3384    -2.9787 H       
  49 H49           -3.9740    -0.2501    -4.2899 H       
  50 H50            9.8520     0.8699    -1.0935 H       
  51 H51            9.4618     1.8184    -2.5483 H       
  52 H52           11.6833     2.2418    -1.7791 H       
  53 H53            8.3169     0.9327     1.4001 H       
  54 H54            9.7211     4.7988     0.2723 H       
  55 H55           10.3739     5.2440     2.6040 H       
  56 H56            8.9636     1.3764     3.7338 H       
  57 H57            6.4868     0.9300     1.7328 H       
  58 H58            4.7593     1.2988     1.4298 H       
  59 H59            5.5995    -0.7908     3.0593 H       
  60 H60            4.0538    -0.8167     2.1564 H       
  61 H61            4.3426    -1.5633    -0.3792 H       
  62 H62            6.0416    -1.9270    -0.8116 H       
  63 H63           -0.0313     5.9624     0.7949 H       
  64 H64            2.8952     5.9042    -0.6170 H       
  65 H65            2.4407     6.0401     1.0986 H       
  66 H66            3.4212     4.6619     0.5442 H       
@<TRIPOS>BOND
   1    1    2 ar
   2    1    6 ar
   3    1   38 1
   4    2    3 ar
   5    2   15 1
   6    3    4 ar
   7    3   40 1
   8    4    5 ar
   9    4   41 1
  10    5    6 ar
  11    5    9 1
  12    6   36 1
  13    7    8 1
  14    7   10 1
  15    8    9 2
  16    8   13 1
  17    9   42 1
  18   10   11 1
  19   10   32 1
  20   10   35 1
  21   11   12 1
  22   11   43 1
  23   11   44 1
  24   12   13 1
  25   12   20 1
  26   13   22 2
  27   14   15 1
  28   14   16 2
  29   14   45 1
  30   15   18 1
  31   16   17 1
  32   16   19 1
  33   17   18 2
  34   18   46 1
  35   19   47 1
  36   19   48 1
  37   19   49 1
  38   20   21 1
  39   20   23 1
  40   20   24 1
  41   21   22 1
  42   23   26 ar
  43   23   27 ar
  44   24   25 1
  45   24   50 1
  46   24   51 1
  47   25   52 1
  48   26   30 ar
  49   26   53 1
  50   27   28 ar
  51   27   54 1
  52   28   29 ar
  53   28   55 1
  54   29   30 ar
  55   29   31 1
  56   30   56 1
  57   32   33 1
  58   32   57 1
  59   32   58 1
  60   33   34 1
  61   33   59 1
  62   33   60 1
  63   34   35 1
  64   35   61 1
  65   35   62 1
  66   36   37 2
  67   36   39 1
  68   37   38 1
  69   37   63 1
  70   39   64 1
  71   39   65 1
  72   39   66 1

#	End of record

