#	Name: ASD03540399
#	Creating user name:	WinNT
#	Creation time:	15. 06. 2019 20:43

#	Modifying user name:	WinNT
#	Modification time:	15. 06. 2019 20:43

#	Program:	/corina/corina34_cracker 3.40 0067  02.08.2006

@<TRIPOS>MOLECULE
ASD03540399
  43   46    0    0    0
SMALL
NO_CHARGES


@<TRIPOS>ATOM
   1 N1            -0.0161     1.3395     0.0094 N.am    
   2 C2             0.0021    -0.0041     0.0020 C.2     
   3 N3             1.1389    -0.7173    -0.0126 N.am    
   4 C4             2.3459    -0.1107    -0.0209 C.2     
   5 C5             2.3856     1.3633    -0.0133 C.ar    
   6 C6             3.5869     2.0604    -0.0206 C.ar    
   7 C7             3.5657     3.4551    -0.0124 C.ar    
   8 C8             2.3429     4.1385     0.0033 C.ar    
   9 C9             1.1618     3.4521     0.0104 C.ar    
  10 C10            1.1635     2.0628     0.0020 C.ar    
  11 C11            4.8323     4.2113    -0.0199 C.2     
  12 O12            5.8932     3.6192    -0.0332 O.2     
  13 O13            4.8127     5.5585    -0.0121 O.3     
  14 O14            3.3720    -0.7627    -0.0337 O.2     
  15 O15           -1.0577    -0.5997     0.0093 O.2     
  16 C16            1.0696    -2.1807    -0.0194 C.3     
  17 C17            1.0320    -2.6753    -1.4424 C.2     
  18 C18            6.0967     6.2365    -0.0202 C.3     
  19 C19            5.5850     9.7900     1.1566 C.ar    
  20 N20            5.4813    10.4318     0.0093 N.ar    
  21 C21            5.7854     8.4229     1.1862 C.ar    
  22 C22            5.8775     7.7275    -0.0097 C.ar    
  23 C23            5.7636     8.4365    -1.1958 C.ar    
  24 C24            5.5635     9.8031    -1.1469 C.ar    
  25 C25            2.1015    -2.9791    -2.1793 C.2     
  26 C26            1.8207    -3.4149    -3.4628 C.2     
  27 C27            0.5232    -3.4649    -3.7682 C.2     
  28 S28           -0.4291    -2.9473    -2.3830 S.3     
  29 H29           -0.8657     1.8077     0.0159 H       
  30 H30            4.5268     1.5286    -0.0320 H       
  31 H31            2.3339     5.2185     0.0102 H       
  32 H32            0.2255     3.9901     0.0226 H       
  33 H33            1.9463    -2.5883     0.4839 H       
  34 H34            0.1684    -2.5041     0.5016 H       
  35 H35            6.6661     5.9468     0.8629 H       
  36 H36            6.6495     5.9569    -0.9170 H       
  37 H37            5.5170    10.3397     2.0838 H       
  38 H38            5.8699     7.9029     2.1290 H       
  39 H39            5.8301     7.9272    -2.1458 H       
  40 H40            5.4738    10.3626    -2.0663 H       
  41 H41            3.1101    -2.8915    -1.8032 H       
  42 H42            2.5936    -3.6930    -4.1640 H       
  43 H43            0.1191    -3.7787    -4.7193 H       
@<TRIPOS>BOND
   1    1    2 am
   2    1   10 1
   3    1   29 1
   4    2    3 am
   5    2   15 2
   6    3    4 am
   7    3   16 1
   8    4    5 1
   9    4   14 2
  10    5    6 ar
  11    5   10 ar
  12    6    7 ar
  13    6   30 1
  14    7    8 ar
  15    7   11 1
  16    8    9 ar
  17    8   31 1
  18    9   10 ar
  19    9   32 1
  20   11   12 2
  21   11   13 1
  22   13   18 1
  23   16   17 1
  24   16   33 1
  25   16   34 1
  26   17   25 2
  27   17   28 1
  28   18   22 1
  29   18   35 1
  30   18   36 1
  31   19   20 ar
  32   19   21 ar
  33   19   37 1
  34   20   24 ar
  35   21   22 ar
  36   21   38 1
  37   22   23 ar
  38   23   24 ar
  39   23   39 1
  40   24   40 1
  41   25   26 1
  42   25   41 1
  43   26   27 2
  44   26   42 1
  45   27   28 1
  46   27   43 1

#	End of record

