#	Name: ASD00960134
#	Creating user name:	WinNT
#	Creation time:	15. 06. 2019 18:53

#	Modifying user name:	WinNT
#	Modification time:	15. 06. 2019 18:53

#	Program:	/corina/corina34_cracker 3.40 0067  02.08.2006

@<TRIPOS>MOLECULE
ASD00960134
  46   48    0    0    0
SMALL
NO_CHARGES


@<TRIPOS>ATOM
   1 C1            -0.0189     1.5406     0.0105 C.3     
   2 C2             0.0021    -0.0041     0.0020 C.3     
   3 O3            -0.1198    -0.3671    -1.3905 O.3     
   4 C4            -1.0916     0.5497    -1.9391 C.3     
   5 C5            -0.9496     0.6289    -3.4605 C.3     
   6 C6             1.3035    -0.5142     0.5652 C.2     
   7 C7             1.5671    -0.7003     1.8808 C.2     
   8 N8             2.3883    -0.8630    -0.1656 N.pl3   
   9 C9             3.3842    -1.2814     0.6922 C.2     
  10 C10            2.8853    -1.1863     1.9924 C.2     
  11 N11            2.6516    -0.8706    -1.5431 N.2     
  12 C12            3.8147    -1.2666    -1.9836 C.2     
  13 N13            4.7832    -1.6729    -1.1658 N.2     
  14 C14            4.6167    -1.6956     0.1474 C.2     
  15 N15            5.6378    -2.1219     0.9738 N.pl3   
  16 C16           -0.7549     1.9132    -1.2959 C.3     
  17 F17            1.2846     2.0485     0.0008 F       
  18 C18            3.5768    -1.5178     3.2018 C.1     
  19 O19           -1.3063    -0.6285    -4.0383 O.3     
  20 C20            4.1437    -1.7896     4.1932 C.1     
  21 Si21           5.0612    -2.2295     5.7979 Si      
  22 C22            3.9443    -1.9202     7.2565 C.3     
  23 C23            5.5508    -4.0266     5.7606 C.3     
  24 C24            6.5880    -1.1729     5.9498 C.3     
  25 O25           -1.9512     2.6395    -1.0069 O.3     
  26 *26           -1.7995     4.0402    -1.0637 Du      
  27 H27           -0.5654     1.9103     0.8781 H       
  28 H28           -0.8394    -0.3981     0.5719 H       
  29 H29           -2.1008     0.2406    -1.6669 H       
  30 H30           -1.6087     1.4063    -3.8469 H       
  31 H31            0.0826     0.8670    -3.7171 H       
  32 H32            0.8880    -0.5098     2.6988 H       
  33 H33            3.9974    -1.2649    -3.0480 H       
  34 H34            6.4831    -2.4070     0.5928 H       
  35 H35            5.5097    -2.1362     1.9352 H       
  36 H36           -0.1032     2.4933    -1.9493 H       
  37 H37           -1.2395    -0.6512    -5.0027 H       
  38 H38            3.0510    -2.5384     7.1676 H       
  39 H39            4.4706    -2.1726     8.1771 H       
  40 H40            3.6578    -0.8688     7.2783 H       
  41 H41            6.2042    -4.2075     4.9072 H       
  42 H42            6.0771    -4.2789     6.6812 H       
  43 H43            4.6574    -4.6448     5.6717 H       
  44 H44            6.3016    -0.1214     5.9716 H       
  45 H45            7.1144    -1.4252     6.8703 H       
  46 H46            7.2415    -1.3538     5.0964 H       
@<TRIPOS>BOND
   1    1    2 1
   2    1   17 1
   3    1   16 1
   4    1   27 1
   5    2    3 1
   6    2    6 1
   7    2   28 1
   8    3    4 1
   9    4   16 1
  10    4    5 1
  11    4   29 1
  12    5   19 1
  13    5   30 1
  14    5   31 1
  15    6    7 2
  16    6    8 1
  17    7   10 1
  18    7   32 1
  19    8    9 1
  20    8   11 1
  21    9   10 2
  22    9   14 1
  23   10   18 1
  24   11   12 2
  25   12   13 1
  26   12   33 1
  27   13   14 2
  28   14   15 1
  29   15   34 1
  30   15   35 1
  31   16   25 1
  32   16   36 1
  33   18   20 3
  34   19   37 1
  35   20   21 1
  36   21   22 1
  37   21   23 1
  38   21   24 1
  39   22   38 1
  40   22   39 1
  41   22   40 1
  42   23   41 1
  43   23   42 1
  44   23   43 1
  45   24   44 1
  46   24   45 1
  47   24   46 1
  48   25   26 1

#	End of record

