#	Name: ASD01120277
#	Creating user name:	WinNT
#	Creation time:	15. 06. 2019 18:59

#	Modifying user name:	WinNT
#	Modification time:	15. 06. 2019 18:59

#	Program:	/corina/corina34_cracker 3.40 0067  02.08.2006

@<TRIPOS>MOLECULE
ASD01120277
  38   40    0    0    0
SMALL
NO_CHARGES


@<TRIPOS>ATOM
   1 C1             0.6333     0.5514     0.2503 C.3     
   2 C2             0.4723    -0.9070    -0.0932 C.2     
   3 O3             1.0969    -1.3853    -1.0163 O.2     
   4 N4            -0.3660    -1.6800     0.6254 N.am    
   5 C5            -0.5769    -3.0134     0.2573 C.ar    
   6 C6             0.4794    -3.7780    -0.2213 C.ar    
   7 C7             0.2719    -5.0948    -0.5851 C.ar    
   8 C8            -0.9859    -5.6550    -0.4747 C.ar    
   9 C9            -2.0468    -4.8955     0.0034 C.ar    
  10 C10           -1.8404    -3.5749     0.3753 C.ar    
  11 N11           -3.3209    -5.4638     0.1150 N.pl3   
  12 C12           -3.9521    -5.8008     1.2989 C.2     
  13 C13           -5.1744    -6.3264     1.0176 C.2     
  14 C14           -5.3312    -6.3261    -0.3894 C.ar    
  15 C15           -4.1553    -5.7742    -0.9349 C.ar    
  16 C16           -4.0341    -5.6511    -2.3160 C.ar    
  17 C17           -5.0607    -6.0684    -3.1332 C.ar    
  18 C18           -6.2197    -6.6120    -2.5930 C.ar    
  19 C19           -6.3633    -6.7395    -1.2422 C.ar    
  20 N20           -2.8052    -5.0728    -2.9046 N.pl3   
  21 O21           -2.2819    -4.1013    -2.3890 O.2     
  22 O22           -2.3173    -5.5685    -3.9045 O.2     
  23 C23           -3.3919    -5.6200     2.6442 C.2     
  24 O24           -4.0356    -5.9524     3.6204 O.2     
  25 O25           -2.1633    -5.0854     2.7967 O.3     
  26 H26            1.3468     1.0094    -0.4348 H       
  27 H27           -0.3297     1.0541     0.1615 H       
  28 H28            0.9995     0.6457     1.2726 H       
  29 H29           -0.8230    -1.3120     1.3978 H       
  30 H30            1.4638    -3.3427    -0.3095 H       
  31 H31            1.0948    -5.6872    -0.9569 H       
  32 H32           -1.1450    -6.6843    -0.7605 H       
  33 H33           -2.6633    -2.9824     0.7472 H       
  34 H34           -5.8961    -6.6811     1.7385 H       
  35 H35           -4.9643    -5.9719    -4.2046 H       
  36 H36           -7.0156    -6.9336    -3.2484 H       
  37 H37           -7.2679    -7.1633    -0.8315 H       
  38 H38           -1.8370    -4.9860     3.7015 H       
@<TRIPOS>BOND
   1    1    2 1
   2    1   26 1
   3    1   27 1
   4    1   28 1
   5    2    3 2
   6    2    4 am
   7    4    5 1
   8    4   29 1
   9    5    6 ar
  10    5   10 ar
  11    6    7 ar
  12    6   30 1
  13    7    8 ar
  14    7   31 1
  15    8    9 ar
  16    8   32 1
  17    9   10 ar
  18    9   11 1
  19   10   33 1
  20   11   12 1
  21   11   15 1
  22   12   13 2
  23   12   23 1
  24   13   14 1
  25   13   34 1
  26   14   15 ar
  27   14   19 ar
  28   15   16 ar
  29   16   17 ar
  30   16   20 1
  31   17   18 ar
  32   17   35 1
  33   18   19 ar
  34   18   36 1
  35   19   37 1
  36   20   21 2
  37   20   22 2
  38   23   24 2
  39   23   25 1
  40   25   38 1

#	End of record

