#	Name: ASD01917589
#	Creating user name:	WinNT
#	Creation time:	15. 06. 2019 20:09

#	Modifying user name:	WinNT
#	Modification time:	15. 06. 2019 20:09

#	Program:	/corina/corina34_cracker 3.40 0067  02.08.2006

@<TRIPOS>MOLECULE
ASD01917589
  23   24    0    0    0
SMALL
NO_CHARGES


@<TRIPOS>ATOM
   1 C1            -0.0161     1.3355     0.0094 C.2     
   2 N2             0.0021    -0.0041     0.0020 N.2     
   3 C3             1.1377    -0.6611    -0.0124 C.2     
   4 C4             2.3568     0.0336    -0.0203 C.2     
   5 C5             2.3511     1.3895    -0.0130 C.2     
   6 N6             1.1553     2.0488     0.0020 N.pl3   
   7 N7             0.8241     3.4083     0.0120 N.2     
   8 C8            -0.4848     3.5262     0.0249 C.2     
   9 C9            -1.0517     2.2609     0.0186 C.2     
  10 C10           -1.2464     4.8264     0.0391 C.3     
  11 C11           -1.6266     5.2105    -1.3923 C.3     
  12 C12           -2.5157     4.6649     0.8780 C.3     
  13 Br13           3.9937    -0.9130    -0.0404 Br      
  14 H14            1.1341    -1.7411    -0.0178 H       
  15 H15            3.2798     1.9407    -0.0185 H       
  16 H16           -2.1079     2.0356     0.0216 H       
  17 H17           -0.6222     5.6084     0.4714 H       
  18 H18           -2.2508     4.4285    -1.8247 H       
  19 H19           -2.1774     6.1510    -1.3821 H       
  20 H20           -0.7223     5.3255    -1.9900 H       
  21 H21           -2.2448     4.3913     1.8977 H       
  22 H22           -3.0666     5.6054     0.8882 H       
  23 H23           -3.1399     3.8829     0.4456 H       
@<TRIPOS>BOND
   1    1    2 1
   2    1    6 1
   3    1    9 2
   4    2    3 2
   5    3    4 1
   6    3   14 1
   7    4    5 2
   8    4   13 1
   9    5    6 1
  10    5   15 1
  11    6    7 1
  12    7    8 2
  13    8    9 1
  14    8   10 1
  15    9   16 1
  16   10   11 1
  17   10   12 1
  18   10   17 1
  19   11   18 1
  20   11   19 1
  21   11   20 1
  22   12   21 1
  23   12   22 1
  24   12   23 1

#	End of record

