#	Name: ASD01813569
#	Creating user name:	WinNT
#	Creation time:	15. 06. 2019 19:30

#	Modifying user name:	WinNT
#	Modification time:	15. 06. 2019 19:30

#	Program:	/corina/corina34_cracker 3.40 0067  02.08.2006

@<TRIPOS>MOLECULE
ASD01813569
  45   49    0    0    0
SMALL
NO_CHARGES


@<TRIPOS>ATOM
   1 C1            -0.0169     1.3824    -0.0245 C.ar    
   2 C2             0.0019    -0.0039    -0.0317 C.ar    
   3 C3             1.1975    -0.6932    -0.0351 C.ar    
   4 C4             2.4040     0.0044    -0.0316 C.ar    
   5 C5             2.3834     1.4096    -0.0248 C.ar    
   6 C6             1.1657     2.0946    -0.0210 C.ar    
   7 N7             3.6050    -0.6734    -0.0339 N.pl3   
   8 C8             4.7898    -0.0496    -0.0299 C.2     
   9 C9             4.8962     1.3266    -0.0226 C.2     
  10 C10            3.6660     2.1351    -0.0212 C.2     
  11 O11            3.7066     3.3531    -0.0154 O.2     
  12 C12            6.2156     1.9738    -0.0173 C.2     
  13 O13            6.3066     3.3188    -0.0103 O.3     
  14 O14            7.2250     1.2963    -0.0193 O.2     
  15 C15            3.5837    -2.1382    -0.0406 C.3     
  16 C16            3.4403    -2.6321    -1.4571 C.ar    
  17 N17            2.2394    -2.7349    -1.9922 N.ar    
  18 C18            2.0661    -3.1637    -3.2323 C.ar    
  19 C19            3.1559    -3.5227    -4.0157 C.ar    
  20 C20            4.4297    -3.4258    -3.4824 C.ar    
  21 C21            4.5690    -2.9660    -2.1805 C.ar    
  22 F22            1.1983    -2.0442    -0.0413 F       
  23 F23            1.1457     3.4454    -0.0148 F       
  24 N24            0.7751    -3.2568    -3.7583 N.pl3   
  25 N25            0.4159    -3.2079    -5.1133 N.2     
  26 N26           -0.8604    -3.3252    -5.2236 N.2     
  27 C27           -1.4268    -3.4559    -4.0009 C.ar    
  28 C28           -0.3939    -3.4204    -3.0482 C.ar    
  29 C29           -2.7508    -3.6108    -3.5706 C.ar    
  30 C30           -3.0254    -3.7195    -2.2388 C.ar    
  31 C31           -2.0046    -3.6784    -1.2977 C.ar    
  32 C32           -0.6943    -3.5345    -1.6957 C.ar    
  33 H33           -0.9607     1.9073    -0.0260 H       
  34 H34           -0.9295    -0.5505    -0.0344 H       
  35 H35            5.6922    -0.6429    -0.0320 H       
  36 H36            7.1958     3.6987    -0.0070 H       
  37 H37            4.5134    -2.5171     0.3839 H       
  38 H38            2.7418    -2.4920     0.5545 H       
  39 H39            3.0112    -3.8730    -5.0270 H       
  40 H40            5.2957    -3.6978    -4.0676 H       
  41 H41            5.5487    -2.8785    -1.7345 H       
  42 H42           -3.5535    -3.6439    -4.2925 H       
  43 H43           -4.0480    -3.8385    -1.9125 H       
  44 H44           -2.2397    -3.7656    -0.2472 H       
  45 H45            0.0958    -3.5032    -0.9600 H       
@<TRIPOS>BOND
   1    1    2 ar
   2    1    6 ar
   3    1   33 1
   4    2    3 ar
   5    2   34 1
   6    3    4 ar
   7    3   22 1
   8    4    5 ar
   9    4    7 1
  10    5    6 ar
  11    5   10 1
  12    6   23 1
  13    7    8 1
  14    7   15 1
  15    8    9 2
  16    8   35 1
  17    9   10 1
  18    9   12 1
  19   10   11 2
  20   12   13 1
  21   12   14 2
  22   13   36 1
  23   15   16 1
  24   15   37 1
  25   15   38 1
  26   16   17 ar
  27   16   21 ar
  28   17   18 ar
  29   18   19 ar
  30   18   24 1
  31   19   20 ar
  32   19   39 1
  33   20   21 ar
  34   20   40 1
  35   21   41 1
  36   24   25 1
  37   24   28 1
  38   25   26 2
  39   26   27 1
  40   27   28 ar
  41   27   29 ar
  42   28   32 ar
  43   29   30 ar
  44   29   42 1
  45   30   31 ar
  46   30   43 1
  47   31   32 ar
  48   31   44 1
  49   32   45 1

#	End of record

