#	Name: ASD05430665
#	Creating user name:	WinNT
#	Creation time:	15. 06. 2019 21:00

#	Modifying user name:	WinNT
#	Modification time:	15. 06. 2019 21:00

#	Program:	/corina/corina34_cracker 3.40 0067  02.08.2006

@<TRIPOS>MOLECULE
ASD05430665
  21   21    0    0    0
SMALL
NO_CHARGES


@<TRIPOS>ATOM
   1 C1            -0.0167     1.3780     0.0096 C.ar    
   2 C2             0.0021    -0.0041     0.0020 C.ar    
   3 C3            -1.1864    -0.7124     0.0096 C.ar    
   4 C4            -2.4116     1.3460     0.0439 C.ar    
   5 C5            -1.2225     2.0532     0.0305 C.ar    
   6 C6             1.2782     2.1489     0.0014 C.3     
   7 C7            -2.3936    -0.0371     0.0247 C.ar    
   8 C8             1.3356     3.0362    -1.2437 C.3     
   9 C9             1.3595     3.0228     1.2546 C.3     
  10 Cl10          -3.9260     2.1943     0.0706 Cl      
  11 Cl11          -1.1627    -2.4482    -0.0006 Cl      
  12 H12            0.9446    -0.5312    -0.0102 H       
  13 H13           -1.2364     3.1331     0.0455 H       
  14 H14            2.1160     1.4517    -0.0103 H       
  15 H15           -3.3216    -0.5896     0.0302 H       
  16 H16            0.4978     3.7334    -1.2320 H       
  17 H17            2.2722     3.5938    -1.2497 H       
  18 H18            1.2777     2.4136    -2.1365 H       
  19 H19            1.3186     2.3906     2.1417 H       
  20 H20            2.2960     3.5804     1.2487 H       
  21 H21            0.5216     3.7199     1.2664 H       
@<TRIPOS>BOND
   1    1    2 ar
   2    1    6 1
   3    1    5 ar
   4    2    3 ar
   5    2   12 1
   6    3    7 ar
   7    3   11 1
   8    4    5 ar
   9    4   10 1
  10    4    7 ar
  11    5   13 1
  12    6    8 1
  13    6    9 1
  14    6   14 1
  15    7   15 1
  16    8   16 1
  17    8   17 1
  18    8   18 1
  19    9   19 1
  20    9   20 1
  21    9   21 1

#	End of record

