#	Name: ASD01140394
#	Creating user name:	WinNT
#	Creation time:	15. 06. 2019 19:00

#	Modifying user name:	WinNT
#	Modification time:	15. 06. 2019 19:00

#	Program:	/corina/corina34_cracker 3.40 0067  02.08.2006

@<TRIPOS>MOLECULE
ASD01140394
  56   60    0    0    0
SMALL
NO_CHARGES


@<TRIPOS>ATOM
   1 N1             0.0562     1.2544    -1.1491 N.pl3   
   2 C2             0.1220    -0.0836    -1.1393 C.2     
   3 C3             1.1793    -0.7655    -0.5739 C.2     
   4 C4             2.2727     0.0056     0.0399 C.2     
   5 C5             2.1595     1.4745     0.0068 C.ar    
   6 C6             3.1462     2.2905     0.5625 C.ar    
   7 C7             2.9686     3.6666     0.4918 C.ar    
   8 C8             1.8265     4.1722    -0.1236 C.ar    
   9 N9             0.9133     3.3771    -0.6387 N.ar    
  10 C10            1.0317     2.0557    -0.5992 C.ar    
  11 C11            1.2134    -2.2362    -0.5836 C.2     
  12 O12            0.2561    -2.8641    -0.9949 O.2     
  13 N13            2.3052    -2.8880    -0.1368 N.am    
  14 O14            3.2298    -0.5468     0.5535 O.2     
  15 C15           -1.1023     1.8936    -1.7780 C.3     
  16 N16            3.9248     4.5330     1.0323 N.pl3   
  17 C17            4.4947     6.7033     2.0816 C.3     
  18 C18            3.7280     5.9826     0.9525 C.3     
  19 C19            4.3912     6.5572    -0.3173 C.3     
  20 C20            4.9150     7.9176     0.0904 C.ar    
  21 C21            5.3084     8.9967    -0.6836 C.ar    
  22 C22            5.7596    10.1553    -0.0825 C.ar    
  23 C23            5.8191    10.2392     1.2962 C.ar    
  24 C24            5.4272     9.1643     2.0696 C.ar    
  25 C25            4.9745     8.0015     1.4687 C.ar    
  26 C26            3.4614    -5.0050    -0.2614 C.ar    
  27 C27            2.2955    -4.2842    -0.0387 C.ar    
  28 C28           -2.2044     2.0910    -0.7353 C.3     
  29 C29            3.4497    -6.3826    -0.1636 C.ar    
  30 C30            2.2765    -7.0451     0.1562 C.ar    
  31 C31            1.1128    -6.3283     0.3787 C.ar    
  32 C32            1.1201    -4.9506     0.2819 C.ar    
  33 F33            2.2673    -8.3927     0.2513 F       
  34 H34           -0.6810    -0.6481    -1.5897 H       
  35 H35            4.0204     1.8654     1.0332 H       
  36 H36            1.6868     5.2417    -0.1791 H       
  37 H37            3.0977    -2.3895     0.1168 H       
  38 H38           -0.8077     2.8618    -2.1830 H       
  39 H39           -1.4737     1.2605    -2.5838 H       
  40 H40            4.7180     4.1741     1.4599 H       
  41 H41            3.8298     6.9046     2.9216 H       
  42 H42            5.3438     6.1017     2.4061 H       
  43 H43            2.6671     6.2303     0.9851 H       
  44 H44            5.2125     5.9163    -0.6381 H       
  45 H45            3.6557     6.6587    -1.1153 H       
  46 H46            5.2626     8.9317    -1.7606 H       
  47 H47            6.0660    10.9948    -0.6889 H       
  48 H48            6.1720    11.1444     1.7679 H       
  49 H49            5.4740     9.2306     3.1466 H       
  50 H50            4.3756    -4.4890    -0.5151 H       
  51 H51           -3.0664     2.5665    -1.2032 H       
  52 H52           -2.4990     1.1228    -0.3303 H       
  53 H53           -1.8331     2.7241     0.0705 H       
  54 H54            4.3562    -6.9435    -0.3371 H       
  55 H55            0.1988    -6.8469     0.6273 H       
  56 H56            0.2124    -4.3918     0.4558 H       
@<TRIPOS>BOND
   1    1    2 1
   2    1   10 1
   3    1   15 1
   4    2    3 2
   5    2   34 1
   6    3    4 1
   7    3   11 1
   8    4    5 1
   9    4   14 2
  10    5    6 ar
  11    5   10 ar
  12    6    7 ar
  13    6   35 1
  14    7    8 ar
  15    7   16 1
  16    8    9 ar
  17    8   36 1
  18    9   10 ar
  19   11   12 2
  20   11   13 am
  21   13   27 1
  22   13   37 1
  23   15   28 1
  24   15   38 1
  25   15   39 1
  26   16   18 1
  27   16   40 1
  28   17   18 1
  29   17   25 1
  30   17   41 1
  31   17   42 1
  32   18   19 1
  33   18   43 1
  34   19   20 1
  35   19   44 1
  36   19   45 1
  37   20   21 ar
  38   20   25 ar
  39   21   22 ar
  40   21   46 1
  41   22   23 ar
  42   22   47 1
  43   23   24 ar
  44   23   48 1
  45   24   25 ar
  46   24   49 1
  47   26   27 ar
  48   26   29 ar
  49   26   50 1
  50   27   32 ar
  51   28   51 1
  52   28   52 1
  53   28   53 1
  54   29   30 ar
  55   29   54 1
  56   30   31 ar
  57   30   33 1
  58   31   32 ar
  59   31   55 1
  60   32   56 1

#	End of record

