#	Name: ASD03331397
#	Creating user name:	WinNT
#	Creation time:	15. 06. 2019 20:39

#	Modifying user name:	WinNT
#	Modification time:	15. 06. 2019 20:39

#	Program:	/corina/corina34_cracker 3.40 0067  02.08.2006

@<TRIPOS>MOLECULE
ASD03331397
  57   59    0    0    0
SMALL
NO_CHARGES


@<TRIPOS>ATOM
   1 C1            -0.6388     0.9645     0.4271 C.3     
   2 O2            -0.7164    -0.4531     0.2570 O.3     
   3 C3            -0.1372    -0.9365    -0.9642 C.3     
   4 C4             1.2426    -0.3509    -1.0839 C.2     
   5 C5             1.6813     0.6953    -0.3357 C.2     
   6 C6             0.8166     1.3781     0.6933 C.3     
   7 C7             2.3138    -0.7057    -1.9161 C.2     
   8 N8             3.3090     0.1195    -1.6309 N.2     
   9 N9             2.9524     0.9450    -0.7062 N.pl3   
  10 C10            2.3291    -1.7906    -2.9175 C.2     
  11 O11            1.3413    -2.4802    -3.0818 O.2     
  12 N12            3.4380    -2.0165    -3.6494 N.am    
  13 C13            3.4532    -3.0930    -4.6430 C.3     
  14 C14            2.8663    -2.5801    -5.9596 C.3     
  15 C15            4.8719    -3.5481    -4.8690 C.2     
  16 C16            3.7658     1.9515    -0.1672 C.ar    
  17 C17            4.4819     2.7943    -1.0100 C.ar    
  18 C18            5.2835     3.7863    -0.4745 C.ar    
  19 C19            5.3723     3.9393     0.8977 C.ar    
  20 C20            4.6600     3.1010     1.7378 C.ar    
  21 C21            3.8535     2.1124     1.2088 C.ar    
  22 Cl22           6.3795     5.1847     1.5671 Cl      
  23 C23            3.6567    -1.3567    -6.4280 C.3     
  24 C24            2.9533    -3.6800    -7.0195 C.3     
  25 C25            1.4019    -2.1907    -5.7478 C.3     
  26 N26            5.1130    -4.7495    -5.4301 N.am    
  27 O27            5.7968    -2.8332    -4.5459 O.2     
  28 C28            6.4891    -5.2356    -5.5577 C.3     
  29 C29            6.4837    -6.6133    -6.2231 C.3     
  30 O30            5.9994    -6.4937    -7.5622 O.3     
  31 F31            4.3953     2.6443    -2.3499 F       
  32 H32           -0.9962     1.4580    -0.4767 H       
  33 H33           -1.2604     1.2627     1.2714 H       
  34 H34           -0.0752    -2.0244    -0.9378 H       
  35 H35           -0.7464    -0.6214    -1.8114 H       
  36 H36            0.9163     2.4596     0.6010 H       
  37 H37            1.1134     1.0627     1.6935 H       
  38 H38            4.2261    -1.4664    -3.5183 H       
  39 H39            2.8564    -3.9301    -4.2809 H       
  40 H40            5.8406     4.4415    -1.1278 H       
  41 H41            4.7317     3.2228     2.8085 H       
  42 H42            3.2983     1.4591     1.8656 H       
  43 H43            4.7000    -1.6342    -6.5789 H       
  44 H44            3.2386    -0.9913    -7.3660 H       
  45 H45            3.5947    -0.5731    -5.6729 H       
  46 H46            2.3879    -4.5506    -6.6870 H       
  47 H47            2.5377    -3.3137    -7.9582 H       
  48 H48            3.9963    -3.9594    -7.1685 H       
  49 H49            1.3399    -1.4070    -4.9926 H       
  50 H50            0.9838    -1.8253    -6.6857 H       
  51 H51            0.8388    -3.0622    -5.4140 H       
  52 H52            4.3753    -5.2924    -5.7496 H       
  53 H53            7.0652    -4.5398    -6.1676 H       
  54 H54            6.9407    -5.3116    -4.5686 H       
  55 H55            7.4974    -7.0137    -6.2377 H       
  56 H56            5.8356    -7.2857    -5.6611 H       
  57 H57            5.9687    -7.3306    -8.0456 H       
@<TRIPOS>BOND
   1    1    2 1
   2    1    6 1
   3    1   32 1
   4    1   33 1
   5    2    3 1
   6    3    4 1
   7    3   34 1
   8    3   35 1
   9    4    5 2
  10    4    7 1
  11    5    6 1
  12    5    9 1
  13    6   36 1
  14    6   37 1
  15    7    8 2
  16    7   10 1
  17    8    9 1
  18    9   16 1
  19   10   11 2
  20   10   12 am
  21   12   13 1
  22   12   38 1
  23   13   14 1
  24   13   15 1
  25   13   39 1
  26   14   23 1
  27   14   24 1
  28   14   25 1
  29   15   26 am
  30   15   27 2
  31   16   17 ar
  32   16   21 ar
  33   17   18 ar
  34   17   31 1
  35   18   19 ar
  36   18   40 1
  37   19   20 ar
  38   19   22 1
  39   20   21 ar
  40   20   41 1
  41   21   42 1
  42   23   43 1
  43   23   44 1
  44   23   45 1
  45   24   46 1
  46   24   47 1
  47   24   48 1
  48   25   49 1
  49   25   50 1
  50   25   51 1
  51   26   28 1
  52   26   52 1
  53   28   29 1
  54   28   53 1
  55   28   54 1
  56   29   30 1
  57   29   55 1
  58   29   56 1
  59   30   57 1

#	End of record

