#	Name: ASD01816503
#	Creating user name:	WinNT
#	Creation time:	15. 06. 2019 19:35

#	Modifying user name:	WinNT
#	Modification time:	15. 06. 2019 19:35

#	Program:	/corina/corina34_cracker 3.40 0067  02.08.2006

@<TRIPOS>MOLECULE
ASD01816503
  65   71    0    0    0
SMALL
NO_CHARGES


@<TRIPOS>ATOM
   1 C1            -0.0531     1.4841    -0.1035 C.ar    
   2 C2            -0.0548     0.0989    -0.1306 C.ar    
   3 C3             1.1312    -0.6056    -0.1413 C.ar    
   4 C4             2.3446     0.0731    -0.1255 C.ar    
   5 C5             2.3429     1.4777    -0.0985 C.ar    
   6 C6             1.1404     2.1766    -0.0874 C.ar    
   7 N7             3.5382    -0.6278    -0.1357 N.pl3   
   8 C8             4.7390    -0.0272    -0.1209 C.2     
   9 C9             4.8622     1.3398    -0.0948 C.2     
  10 C10            3.6415     2.1778    -0.0821 C.2     
  11 C11            5.9735     2.2858    -0.0737 C.2     
  12 N12            5.4192     3.5171    -0.0520 N.am    
  13 N13            4.0253     3.4219    -0.0575 N.2     
  14 C14            6.1391     4.7184    -0.0271 C.ar    
  15 O15            7.1641     2.0180    -0.0747 O.2     
  16 C16            3.4891    -2.0917    -0.1635 C.3     
  17 C17            3.4758    -2.5669    -1.5935 C.ar    
  18 C18            4.6674    -2.8247    -2.2461 C.ar    
  19 C19            4.6584    -3.2598    -3.5569 C.ar    
  20 C20            3.4514    -3.4388    -4.2192 C.ar    
  21 C21            2.2566    -3.1796    -3.5612 C.ar    
  22 C22            2.2719    -2.7496    -2.2487 C.ar    
  23 N23            3.4391    -3.8799    -5.5498 N.pl3   
  24 C24            2.3394    -4.0941    -6.3071 C.2     
  25 C25            2.7537    -4.5124    -7.5255 C.2     
  26 C26            4.1522    -4.5557    -7.5135 C.2     
  27 N27            4.5640    -4.1712    -6.3322 N.2     
  28 C28            7.0900     4.9800    -1.0025 C.ar    
  29 C29            7.7991     6.1661    -0.9758 C.ar    
  30 C30            7.5644     7.0948     0.0215 C.ar    
  31 C31            6.6187     6.8429     0.9978 C.ar    
  32 C32            5.8978     5.6582     0.9756 C.ar    
  33 N33            4.9396     5.4011     1.9626 N.am    
  34 C34            4.3407     6.4245     2.6032 C.2     
  35 O35            4.6844     7.5683     2.3762 O.2     
  36 C36            3.2660     6.1562     3.5820 C.ar    
  37 C37            2.6437     7.2139     4.2472 C.ar    
  38 C38            2.8650     4.8444     3.8408 C.ar    
  39 C39            1.8610     4.6011     4.7550 C.ar    
  40 C40            1.2519     5.6537     5.4149 C.ar    
  41 C41            1.6410     6.9566     5.1591 C.ar    
  42 H42           -0.9886     2.0237    -0.0994 H       
  43 H43           -0.9938    -0.4345    -0.1430 H       
  44 H44            1.1172    -1.6853    -0.1618 H       
  45 H45            1.1407     3.2565    -0.0670 H       
  46 H46            5.6313    -0.6355    -0.1295 H       
  47 H47            4.3651    -2.4944     0.3451 H       
  48 H48            2.5861    -2.4346     0.3417 H       
  49 H49            5.6060    -2.6853    -1.7303 H       
  50 H50            5.5894    -3.4603    -4.0662 H       
  51 H51            1.3162    -3.3176    -4.0740 H       
  52 H52            1.3428    -2.5478    -1.7364 H       
  53 H53            1.3146    -3.9565    -5.9953 H       
  54 H54            2.1173    -4.7678    -8.3598 H       
  55 H55            4.7834    -4.8512    -8.3386 H       
  56 H56            7.2765     4.2567    -1.7825 H       
  57 H57            8.5391     6.3681    -1.7360 H       
  58 H58            8.1218     8.0196     0.0380 H       
  59 H59            6.4382     7.5704     1.7753 H       
  60 H60            4.7064     4.4863     2.1856 H       
  61 H61            2.9467     8.2313     4.0488 H       
  62 H62            3.3394     4.0220     3.3261 H       
  63 H63            1.5495     3.5866     4.9559 H       
  64 H64            0.4664     5.4577     6.1297 H       
  65 H65            1.1615     7.7737     5.6776 H       
@<TRIPOS>BOND
   1    1    2 ar
   2    1    6 ar
   3    1   42 1
   4    2    3 ar
   5    2   43 1
   6    3    4 ar
   7    3   44 1
   8    4    5 ar
   9    4    7 1
  10    5    6 ar
  11    5   10 1
  12    6   45 1
  13    7    8 1
  14    7   16 1
  15    8    9 2
  16    8   46 1
  17    9   10 1
  18    9   11 1
  19   10   13 2
  20   11   12 am
  21   11   15 2
  22   12   13 1
  23   12   14 1
  24   14   28 ar
  25   14   32 ar
  26   16   17 1
  27   16   47 1
  28   16   48 1
  29   17   18 ar
  30   17   22 ar
  31   18   19 ar
  32   18   49 1
  33   19   20 ar
  34   19   50 1
  35   20   21 ar
  36   20   23 1
  37   21   22 ar
  38   21   51 1
  39   22   52 1
  40   23   24 1
  41   23   27 1
  42   24   25 2
  43   24   53 1
  44   25   26 1
  45   25   54 1
  46   26   27 2
  47   26   55 1
  48   28   29 ar
  49   28   56 1
  50   29   30 ar
  51   29   57 1
  52   30   31 ar
  53   30   58 1
  54   31   32 ar
  55   31   59 1
  56   32   33 1
  57   33   34 am
  58   33   60 1
  59   34   35 2
  60   34   36 1
  61   36   37 ar
  62   36   38 ar
  63   37   41 ar
  64   37   61 1
  65   38   39 ar
  66   38   62 1
  67   39   40 ar
  68   39   63 1
  69   40   41 ar
  70   40   64 1
  71   41   65 1

#	End of record

