#	Name: ASD08150694
#	Creating user name:	WinNT
#	Creation time:	15. 06. 2019 21:16

#	Modifying user name:	WinNT
#	Modification time:	15. 06. 2019 21:16

#	Program:	/corina/corina34_cracker 3.40 0067  02.08.2006

@<TRIPOS>MOLECULE
ASD08150694
  51   55    0    0    0
SMALL
NO_CHARGES


@<TRIPOS>ATOM
   1 C1            -0.0174     1.3320     0.1145 C.2     
   2 N2            -0.0006     0.0026     0.2078 N.2     
   3 C3             1.1326    -0.6707     0.2948 C.2     
   4 C4             2.3481     0.0114     0.2904 C.2     
   5 C5             2.3334     1.4188     0.1918 C.2     
   6 N6             1.1443     2.0531     0.1055 N.am    
   7 C7            -1.2508     2.0011     0.0181 C.2     
   8 C8            -1.2710     3.3607    -0.0774 C.2     
   9 C9            -0.0631     4.0721    -0.0782 C.2     
  10 C10            1.1135     3.4117     0.0094 C.2     
  11 O11            3.3764     2.0516     0.1851 O.2     
  12 C12            1.1111    -2.1739     0.3993 C.3     
  13 C13            0.4487    -2.5842     1.7160 C.3     
  14 C14            0.5382    -4.1027     1.8804 C.3     
  15 N15            0.3522    -2.7306    -0.7234 N.pl3   
  16 N16           -1.0987    -4.1239    -3.0481 N.2     
  17 C17           -1.4151    -5.0582    -3.8969 C.2     
  18 N18           -0.6538    -6.1669    -3.6744 N.pl3   
  19 C19            0.1802    -5.8885    -2.6212 C.ar    
  20 N20            1.1221    -6.5601    -1.9671 N.ar    
  21 C21            1.7698    -6.0035    -0.9652 C.ar    
  22 N22            1.5251    -4.7707    -0.5605 N.ar    
  23 C23            0.6012    -4.0220    -1.1541 C.ar    
  24 C24           -0.1170    -4.5722    -2.2292 C.ar    
  25 C25            2.4055     4.1874     0.0013 C.3     
  26 C26            4.0262    -1.5939    -0.6298 C.ar    
  27 C27            3.6289    -0.7261     0.3877 C.ar    
  28 C28            4.4597    -0.5633     1.5005 C.ar    
  29 C29            5.6479    -1.2761     1.5429 C.ar    
  30 C30            5.9700    -2.1182     0.4911 C.ar    
  31 N31            5.1647    -2.2502    -0.5453 N.ar    
  32 F32            6.4826    -1.1505     2.5978 F       
  33 H33           -2.1748     1.4420     0.0195 H       
  34 H34           -2.2114     3.8864    -0.1523 H       
  35 H35           -0.0722     5.1494    -0.1536 H       
  36 H36            2.1321    -2.5546     0.3721 H       
  37 H37            0.9600    -2.0981     2.5469 H       
  38 H38           -0.5982    -2.2809     1.7061 H       
  39 H39            0.0663    -4.3950     2.8185 H       
  40 H40            0.0269    -4.5889     1.0496 H       
  41 H41            1.5851    -4.4061     1.8904 H       
  42 H42           -0.3247    -2.1941    -1.1648 H       
  43 H43           -2.1700    -4.9687    -4.6641 H       
  44 H44           -0.6946    -7.0000    -4.1696 H       
  45 H45            2.5295    -6.5769    -0.4548 H       
  46 H46            3.0125     3.8734    -0.8478 H       
  47 H47            2.1892     5.2526    -0.0808 H       
  48 H48            2.9492     3.9974     0.9267 H       
  49 H49            3.3918    -1.7323    -1.4928 H       
  50 H50            4.1830     0.1007     2.3060 H       
  51 H51            6.8949    -2.6750     0.5200 H       
@<TRIPOS>BOND
   1    1    2 2
   2    1    6 1
   3    1    7 1
   4    2    3 1
   5    3    4 2
   6    3   12 1
   7    4    5 1
   8    4   27 1
   9    5    6 am
  10    5   11 2
  11    6   10 1
  12    7    8 2
  13    7   33 1
  14    8    9 1
  15    8   34 1
  16    9   10 2
  17    9   35 1
  18   10   25 1
  19   12   13 1
  20   12   15 1
  21   12   36 1
  22   13   14 1
  23   13   37 1
  24   13   38 1
  25   14   39 1
  26   14   40 1
  27   14   41 1
  28   15   23 1
  29   15   42 1
  30   16   17 2
  31   16   24 1
  32   17   18 1
  33   17   43 1
  34   18   19 1
  35   18   44 1
  36   19   20 ar
  37   19   24 ar
  38   20   21 ar
  39   21   22 ar
  40   21   45 1
  41   22   23 ar
  42   23   24 ar
  43   25   46 1
  44   25   47 1
  45   25   48 1
  46   26   27 ar
  47   26   31 ar
  48   26   49 1
  49   27   28 ar
  50   28   29 ar
  51   28   50 1
  52   29   30 ar
  53   29   32 1
  54   30   31 ar
  55   30   51 1

#	End of record

