#	Name: ASD05430369
#	Creating user name:	WinNT
#	Creation time:	15. 06. 2019 21:00

#	Modifying user name:	WinNT
#	Modification time:	15. 06. 2019 21:00

#	Program:	/corina/corina34_cracker 3.40 0067  02.08.2006

@<TRIPOS>MOLECULE
ASD05430369
  61   65    0    0    0
SMALL
NO_CHARGES


@<TRIPOS>ATOM
   1 C1            -0.1736     2.2603    -1.2818 C.ar    
   2 C2             0.0861     1.0191    -1.8625 C.ar    
   3 C3            -0.9622     0.2247    -2.3093 C.ar    
   4 C4            -2.2633     0.6593    -2.1815 C.ar    
   5 C5            -2.5313     1.9029    -1.6001 C.ar    
   6 C6            -1.4764     2.7002    -1.1451 C.ar    
   7 C7            -4.9047     1.4861    -1.2096 C.2     
   8 C8            -3.9206     2.3689    -1.4626 C.2     
   9 N9            -7.2951     0.9828    -0.7468 N.pl3   
  10 C10           -6.3356     1.8748    -1.2145 C.2     
  11 C11           -8.8322     2.0809     0.8080 C.ar    
  12 C12           -9.9830     2.7728     1.1368 C.ar    
  13 C13           -7.9314     1.7267     1.7950 C.ar    
  14 C14           -8.1807     2.0637     3.1119 C.ar    
  15 C15           -9.3329     2.7566     3.4425 C.ar    
  16 C16          -10.2341     3.1112     2.4530 C.ar    
  17 F17           -9.5778     3.0862     4.7296 F       
  18 O18            0.8548     3.0350    -0.8451 O.3     
  19 C19            0.5158     4.2942    -0.2607 C.3     
  20 C20            1.8968    -0.6500    -1.6150 C.2     
  21 N21            1.4073     0.5727    -1.9958 N.pl3   
  22 C22            3.2075    -0.6588    -1.9239 C.2     
  23 N23            3.5151     0.5232    -2.4782 N.2     
  24 C24            2.4455     1.2696    -2.5269 C.2     
  25 C25            4.1635    -1.7995    -1.6873 C.3     
  26 N26           -7.0297    -0.3300    -0.4849 N.3     
  27 C27           -5.6783    -0.4884     0.0758 C.3     
  28 C28           -4.6233     0.0261    -0.9068 C.3     
  29 C29           -8.5625     1.7071    -0.6268 C.3     
  30 C30           -8.3063     2.9680    -1.4846 C.3     
  31 N31           -6.8419     2.9867    -1.6396 N.2     
  32 C32           -8.0441    -0.9040     0.4092 C.3     
  33 C33           -9.7164     0.8832    -1.2019 C.3     
  34 H34           -0.7567    -0.7358    -2.7584 H       
  35 H35           -3.0762     0.0398    -2.5304 H       
  36 H36           -1.6790     3.6611    -0.6956 H       
  37 H37           -4.1505     3.4192    -1.5648 H       
  38 H38          -10.6858     3.0493     0.3648 H       
  39 H39           -7.0327     1.1862     1.5369 H       
  40 H40           -7.4771     1.7862     3.8830 H       
  41 H41          -11.1330     3.6521     2.7096 H       
  42 H42           -0.0188     4.9015    -0.9911 H       
  43 H43           -0.1187     4.1313     0.6105 H       
  44 H44            1.4262     4.8101     0.0442 H       
  45 H45            1.3393    -1.4507    -1.1519 H       
  46 H46            2.3943     2.2730    -2.9230 H       
  47 H47            4.1724    -2.4530    -2.5596 H       
  48 H48            5.1655    -1.4048    -1.5188 H       
  49 H49            3.8441    -2.3657    -0.8123 H       
  50 H50           -5.6059     0.0780     1.0043 H       
  51 H51           -5.4969    -1.5429     0.2838 H       
  52 H52           -4.6696    -0.5535    -1.8288 H       
  53 H53           -3.6326    -0.0702    -0.4624 H       
  54 H54           -8.7938     2.8773    -2.4553 H       
  55 H55           -8.6486     3.8624    -0.9641 H       
  56 H56           -8.9666    -1.0702    -0.1472 H       
  57 H57           -7.6834    -1.8528     0.8064 H       
  58 H58           -8.2351    -0.2149     1.2318 H       
  59 H59           -9.9674     0.0780    -0.5114 H       
  60 H60          -10.5860     1.5249    -1.3432 H       
  61 H61           -9.4178     0.4596    -2.1608 H       
@<TRIPOS>BOND
   1    1    2 ar
   2    1   18 1
   3    1    6 ar
   4    2    3 ar
   5    2   21 1
   6    3    4 ar
   7    3   34 1
   8    4    5 ar
   9    4   35 1
  10    5    6 ar
  11    5    8 1
  12    6   36 1
  13    7    8 2
  14    7   28 1
  15    7   10 1
  16    8   37 1
  17    9   10 1
  18    9   29 1
  19    9   26 1
  20   10   31 2
  21   11   12 ar
  22   11   13 ar
  23   11   29 1
  24   12   16 ar
  25   12   38 1
  26   13   14 ar
  27   13   39 1
  28   14   15 ar
  29   14   40 1
  30   15   16 ar
  31   15   17 1
  32   16   41 1
  33   18   19 1
  34   19   42 1
  35   19   43 1
  36   19   44 1
  37   20   21 1
  38   20   22 2
  39   20   45 1
  40   21   24 1
  41   22   23 1
  42   22   25 1
  43   23   24 2
  44   24   46 1
  45   25   47 1
  46   25   48 1
  47   25   49 1
  48   26   27 1
  49   26   32 1
  50   27   28 1
  51   27   50 1
  52   27   51 1
  53   28   52 1
  54   28   53 1
  55   29   30 1
  56   29   33 1
  57   30   31 1
  58   30   54 1
  59   30   55 1
  60   32   56 1
  61   32   57 1
  62   32   58 1
  63   33   59 1
  64   33   60 1
  65   33   61 1

#	End of record

