#	Name: ASD01910254
#	Creating user name:	WinNT
#	Creation time:	15. 06. 2019 19:55

#	Modifying user name:	WinNT
#	Modification time:	15. 06. 2019 19:55

#	Program:	/corina/corina34_cracker 3.40 0067  02.08.2006

@<TRIPOS>MOLECULE
ASD01910254
  47   51    0    0    0
SMALL
NO_CHARGES


@<TRIPOS>ATOM
   1 C1             0.6278     0.5004     0.4182 C.2     
   2 C2             1.8050     1.4410     0.4036 C.3     
   3 C3             2.1246     1.8371    -1.0397 C.3     
   4 C4             3.3405     2.7664    -1.0581 C.3     
   5 C5             3.0179     4.0384    -0.2678 C.3     
   6 N6             2.5698     3.6578     1.0786 N.am    
   7 C7             1.4651     2.6981     1.2105 C.3     
   8 C8             3.1608     4.1790     2.1720 C.2     
   9 O9             2.7365     3.9097     3.2791 O.2     
  10 N10            0.6166    -0.7246     0.8815 N.2     
  11 C11           -0.6434    -1.1753     0.6861 C.2     
  12 N12           -1.3165    -0.2067     0.1212 N.2     
  13 O13           -0.6027     0.7615    -0.0340 O.3     
  14 C14           -1.1643    -2.5176     1.0448 C.ar    
  15 C15           -2.4934    -2.8443     0.7823 C.ar    
  16 C16           -2.9735    -4.0936     1.1170 C.ar    
  17 C17           -2.1363    -5.0229     1.7133 C.ar    
  18 C18           -0.8141    -4.7021     1.9761 C.ar    
  19 C19           -0.3244    -3.4570     1.6399 C.ar    
  20 F20           -2.6106    -6.2450     2.0399 F       
  21 C21            4.3232     5.0769     2.0254 C.ar    
  22 C22            4.2578     6.1626     1.1539 C.ar    
  23 C23            5.3521     7.0000     1.0226 C.ar    
  24 C24            6.5206     6.7524     1.7665 C.ar    
  25 C25            6.5697     5.6573     2.6375 C.ar    
  26 C26            5.4885     4.8394     2.7672 C.ar    
  27 N27            5.6117     8.1301     0.2709 N.pl3   
  28 C28            6.8780     8.5264     0.5627 C.2     
  29 N29            7.4097     7.7211     1.4371 N.2     
  30 H30            2.6706     0.9475     0.8456 H       
  31 H31            2.3429     0.9419    -1.6220 H       
  32 H32            1.2674     2.3520    -1.4732 H       
  33 H33            4.1917     2.2608    -0.6022 H       
  34 H34            3.5818     3.0293    -2.0881 H       
  35 H35            3.9110     4.6590    -0.1939 H       
  36 H36            2.2267     4.5920    -0.7734 H       
  37 H37            0.5472     3.1423     0.8255 H       
  38 H38            1.3336     2.4343     2.2599 H       
  39 H39           -3.1466    -2.1205     0.3179 H       
  40 H40           -4.0034    -4.3476     0.9142 H       
  41 H41           -0.1650    -5.4293     2.4411 H       
  42 H42            0.7062    -3.2077     1.8450 H       
  43 H43            3.3593     6.3491     0.5845 H       
  44 H44            7.4644     5.4634     3.2104 H       
  45 H45            5.5323     3.9962     3.4407 H       
  46 H46            5.0031     8.5602    -0.3499 H       
  47 H47            7.3722     9.3844     0.1315 H       
@<TRIPOS>BOND
   1    1   10 2
   2    1    2 1
   3    1   13 1
   4    2    3 1
   5    2    7 1
   6    2   30 1
   7    3    4 1
   8    3   31 1
   9    3   32 1
  10    4    5 1
  11    4   33 1
  12    4   34 1
  13    5    6 1
  14    5   35 1
  15    5   36 1
  16    6    7 1
  17    6    8 am
  18    7   37 1
  19    7   38 1
  20    8    9 2
  21    8   21 1
  22   10   11 1
  23   11   12 2
  24   11   14 1
  25   12   13 1
  26   14   15 ar
  27   14   19 ar
  28   15   16 ar
  29   15   39 1
  30   16   17 ar
  31   16   40 1
  32   17   18 ar
  33   17   20 1
  34   18   19 ar
  35   18   41 1
  36   19   42 1
  37   21   22 ar
  38   21   26 ar
  39   22   23 ar
  40   22   43 1
  41   23   24 ar
  42   23   27 1
  43   24   25 ar
  44   24   29 1
  45   25   26 ar
  46   25   44 1
  47   26   45 1
  48   27   28 1
  49   27   46 1
  50   28   29 2
  51   28   47 1

#	End of record

