#	Name: ASD01140563
#	Creating user name:	WinNT
#	Creation time:	15. 06. 2019 19:01

#	Modifying user name:	WinNT
#	Modification time:	15. 06. 2019 19:01

#	Program:	/corina/corina34_cracker 3.40 0067  02.08.2006

@<TRIPOS>MOLECULE
ASD01140563
  74   79    0    0    0
SMALL
NO_CHARGES


@<TRIPOS>ATOM
   1 C1            -0.1826     1.7314    -0.3054 C.3     
   2 C2            -0.1171     0.2085    -0.1721 C.3     
   3 C3             0.5625    -0.1590     1.1484 C.3     
   4 C4             1.9793     0.4180     1.1719 C.3     
   5 C5             1.9128     1.9410     1.0377 C.3     
   6 C6             1.2364     2.3048    -0.2867 C.3     
   7 C7             2.0397     1.7108    -1.4445 C.3     
   8 C8             3.3313     2.5150     1.0588 C.3     
   9 C9             4.1364     1.9283    -0.1026 C.3     
  10 C10            3.4617     2.2928    -1.4257 C.3     
  11 C11            2.1637     1.4875    -3.9611 C.3     
  12 C12            1.3360     1.9936    -2.7674 C.3     
  13 C13            3.5189     2.1634    -3.8895 C.3     
  14 C14            4.5206     1.7991    -4.9804 C.3     
  15 C15            4.2143     1.6754    -2.5897 C.3     
  16 C16            5.6480     2.1739    -2.7992 C.3     
  17 C17            5.9098     1.8591    -4.2974 C.3     
  18 C18           -0.2427     0.4186     2.3142 C.3     
  19 H19            1.3377     2.3548     1.8660 H       
  20 H20            3.4174     3.3769    -1.5299 H       
  21 C21            3.3376     3.6818    -3.8403 C.3     
  22 C22            4.4498     2.7960    -6.1083 C.2     
  23 O23            5.1743     3.7621    -6.1066 O.2     
  24 C24            3.4748     2.5874    -7.2383 C.3     
  25 O25            0.6254    -1.5813     1.2718 O.3     
  26 H26            2.0995     0.6303    -1.3137 H       
  27 H27            4.1840     0.5877    -2.5264 H       
  28 H28            1.1927     3.3892    -0.3877 H       
  29 N29            3.5998     3.6852    -8.2002 N.pl3   
  30 C30            2.9196     4.8432    -8.1721 C.2     
  31 N31            4.4558     3.7170    -9.3114 N.2     
  32 C32            4.2840     4.8598    -9.9297 C.2     
  33 C33            3.3216     5.5876    -9.2338 C.2     
  34 C34            1.7058     6.8072    -7.3031 C.3     
  35 C35            1.8873     5.2904    -7.1676 C.3     
  36 C36            2.7857     6.9603    -9.5558 C.3     
  37 C37            1.4821     7.1660    -8.7746 C.3     
  38 H38           -0.6682     1.9935    -1.2454 H       
  39 H39           -0.7528     2.1450     0.5264 H       
  40 H40           -1.1270    -0.2013    -0.1874 H       
  41 H41            0.4553    -0.2046    -1.0026 H       
  42 H42            2.4622     0.1570     2.1136 H       
  43 H43            2.5535     0.0049     0.3426 H       
  44 H44            3.2859     3.5994     0.9581 H       
  45 H45            3.8134     2.2575     2.0018 H       
  46 H46            5.1474     2.3353    -0.0861 H       
  47 H47            4.1796     0.8437    -0.0035 H       
  48 H48            2.2847     0.4061    -3.8964 H       
  49 H49            1.6669     1.7507    -4.8949 H       
  50 H50            0.3662     1.4960    -2.7692 H       
  51 H51            1.1846     3.0683    -2.8684 H       
  52 H52            4.3254     0.7931    -5.3517 H       
  53 H53            5.7149     3.2457    -2.6128 H       
  54 H54            6.3435     1.6266    -2.1628 H       
  55 H55            6.4164     0.8989    -4.3950 H       
  56 H56            6.5133     2.6483    -4.7456 H       
  57 H57           -1.2518     0.0070     2.2980 H       
  58 H58            0.2414     0.1568     3.2550 H       
  59 H59           -0.2911     1.5034     2.2201 H       
  60 H60            2.7008     3.9445    -2.9956 H       
  61 H61            4.3101     4.1603    -3.7249 H       
  62 H62            2.8726     4.0223    -4.7655 H       
  63 H63            3.6919     1.6421    -7.7356 H       
  64 H64            2.4594     2.5649    -6.8426 H       
  65 H65           -0.2387    -2.0153     1.2650 H       
  66 H66            4.8004     5.1820   -10.8219 H       
  67 H67            0.8430     7.1236    -6.7168 H       
  68 H68            2.5989     7.3140    -6.9374 H       
  69 H69            0.9404     4.7882    -7.3659 H       
  70 H70            2.2270     5.0499    -6.1602 H       
  71 H71            3.5132     7.7168    -9.2616 H       
  72 H72            2.5887     7.0360   -10.6252 H       
  73 H73            0.7045     6.5253    -9.1905 H       
  74 H74            1.1732     8.2085    -8.8514 H       
@<TRIPOS>BOND
   1    1    2 1
   2    1    6 1
   3    1   38 1
   4    1   39 1
   5    2    3 1
   6    2   40 1
   7    2   41 1
   8    3    4 1
   9    3   18 1
  10    3   25 1
  11    4    5 1
  12    4   42 1
  13    4   43 1
  14    5    6 1
  15    5    8 1
  16    5   19 1
  17    6    7 1
  18    6   28 1
  19    7   10 1
  20    7   26 1
  21    7   12 1
  22    8    9 1
  23    8   44 1
  24    8   45 1
  25    9   10 1
  26    9   46 1
  27    9   47 1
  28   10   15 1
  29   10   20 1
  30   11   12 1
  31   11   13 1
  32   11   48 1
  33   11   49 1
  34   12   50 1
  35   12   51 1
  36   13   15 1
  37   13   21 1
  38   13   14 1
  39   14   17 1
  40   14   22 1
  41   14   52 1
  42   15   16 1
  43   15   27 1
  44   16   17 1
  45   16   53 1
  46   16   54 1
  47   17   55 1
  48   17   56 1
  49   18   57 1
  50   18   58 1
  51   18   59 1
  52   21   60 1
  53   21   61 1
  54   21   62 1
  55   22   23 2
  56   22   24 1
  57   24   29 1
  58   24   63 1
  59   24   64 1
  60   25   65 1
  61   29   31 1
  62   29   30 1
  63   30   33 2
  64   30   35 1
  65   31   32 2
  66   32   33 1
  67   32   66 1
  68   33   36 1
  69   34   35 1
  70   34   37 1
  71   34   67 1
  72   34   68 1
  73   35   69 1
  74   35   70 1
  75   36   37 1
  76   36   71 1
  77   36   72 1
  78   37   73 1
  79   37   74 1

#	End of record

