#	Name: ASD06140009
#	Creating user name:	WinNT
#	Creation time:	15. 06. 2019 21:05

#	Modifying user name:	WinNT
#	Modification time:	15. 06. 2019 21:05

#	Program:	/corina/corina34_cracker 3.40 0067  02.08.2006

@<TRIPOS>MOLECULE
ASD06140009
  35   37    0    0    0
SMALL
NO_CHARGES


@<TRIPOS>ATOM
   1 C1            -0.0170     1.4004     0.0097 C.ar    
   2 C2             0.0021    -0.0041     0.0020 C.ar    
   3 C3            -1.3950    -0.5032     0.0132 C.2     
   4 C4            -2.2880     0.6671     0.0283 C.2     
   5 C5            -1.4271     1.8613     0.0317 C.2     
   6 C6             1.1822     2.1046     0.0021 C.ar    
   7 C7            -3.6651     0.6484     0.0418 C.2     
   8 N8            -4.3597     1.8146     0.0550 N.pl3   
   9 C9            -5.7571     1.7955     0.0687 C.ar    
  10 C10           -6.4695     2.9881     0.0822 C.ar    
  11 C11           -7.8502     2.9657     0.0957 C.ar    
  12 C12           -8.5238     1.7579     0.0959 C.ar    
  13 C13           -7.8177     0.5689     0.0826 C.ar    
  14 C14           -6.4369     0.5841     0.0631 C.ar    
  15 S15          -10.2855     1.7339     0.1139 S.o2    
  16 O16          -10.6642     0.4758     0.6552 O.2     
  17 C17            2.3869     1.4216    -0.0131 C.ar    
  18 C18            2.4056     0.0402    -0.0207 C.ar    
  19 C19            1.2199    -0.6754    -0.0132 C.ar    
  20 O20           -1.7403    -1.6688     0.0100 O.2     
  21 O21           -1.8038     3.0170     0.0436 O.2     
  22 O22          -10.6981     2.9750     0.6695 O.2     
  23 N23          -10.7919     1.7360    -1.4628 N.am    
  24 H24            1.1740     3.1846     0.0076 H       
  25 H25           -4.1923    -0.2942     0.0420 H       
  26 H26           -3.8861     2.6611     0.0548 H       
  27 H27           -5.9441     3.9317     0.0824 H       
  28 H28           -8.4047     3.8924     0.1066 H       
  29 H29           -8.3468    -0.3727     0.0828 H       
  30 H30           -5.8861    -0.3448     0.0527 H       
  31 H31            3.3163     1.9716    -0.0194 H       
  32 H32            3.3496    -0.4843    -0.0329 H       
  33 H33            1.2410    -1.7552    -0.0189 H       
  34 H34          -11.6271     1.3060    -1.7046 H       
  35 H35          -10.2533     2.1672    -2.1446 H       
@<TRIPOS>BOND
   1    1    2 ar
   2    1    6 ar
   3    1    5 1
   4    2    3 1
   5    2   19 ar
   6    3    4 1
   7    3   20 2
   8    4    5 1
   9    4    7 2
  10    5   21 2
  11    6   17 ar
  12    6   24 1
  13    7    8 1
  14    7   25 1
  15    8    9 1
  16    8   26 1
  17    9   10 ar
  18    9   14 ar
  19   10   11 ar
  20   10   27 1
  21   11   12 ar
  22   11   28 1
  23   12   13 ar
  24   12   15 1
  25   13   14 ar
  26   13   29 1
  27   14   30 1
  28   15   16 2
  29   15   22 2
  30   15   23 am
  31   17   18 ar
  32   17   31 1
  33   18   19 ar
  34   18   32 1
  35   19   33 1
  36   23   34 1
  37   23   35 1

#	End of record

