#	Name: ASD01410913
#	Creating user name:	WinNT
#	Creation time:	15. 06. 2019 19:18

#	Modifying user name:	WinNT
#	Modification time:	15. 06. 2019 19:18

#	Program:	/corina/corina34_cracker 3.40 0067  02.08.2006

@<TRIPOS>MOLECULE
ASD01410913
  54   56    0    0    0
SMALL
NO_CHARGES


@<TRIPOS>ATOM
   1 C1            -0.3453     2.4273    -0.1939 C.ar    
   2 C2            -0.6542     0.1462    -0.8983 C.ar    
   3 C3            -2.0025     0.2271    -0.5816 C.ar    
   4 C4            -2.5248     1.4189    -0.0541 C.ar    
   5 C5            -1.6845     2.5208     0.1312 C.ar    
   6 O6             0.4736     3.4973    -0.0085 O.3     
   7 C7             0.7574     4.2760    -1.0825 C.ar    
   8 N8            -2.8330    -0.8742    -0.7756 N.am    
   9 C9            -3.0828    -1.7180     0.2452 C.2     
  10 C10           -2.5753    -1.4098     1.6015 C.ar    
  11 O11           -3.7247    -2.7318     0.0524 O.2     
  12 N12           -1.9370    -0.2665     1.8212 N.ar    
  13 C13           -2.2967    -2.0178     3.9016 C.ar    
  14 C14           -1.6306    -0.8149     4.0865 C.ar    
  15 C15           -1.4710     0.0461     3.0101 C.ar    
  16 Cl16          -1.0098    -0.3879     5.6505 Cl      
  17 N17            0.1565     4.0427    -2.2379 N.ar    
  18 C18           -3.4350    -1.1153    -2.0893 C.3     
  19 C19           -4.2118     0.1270    -2.5300 C.3     
  20 C20            1.6717     5.3140    -0.9573 C.ar    
  21 C21            1.9521     6.1013    -2.0607 C.ar    
  22 C22            1.3045     5.8207    -3.2559 C.ar    
  23 C23            0.4030     4.7758    -3.3067 C.ar    
  24 C24           -2.7768    -2.3196     2.6374 C.ar    
  25 C25            0.1703     1.2391    -0.7057 C.ar    
  26 F26            1.4825     1.1543    -1.0160 F       
  27 C27           -0.6147    -3.0006    -3.6367 C.3     
  28 O28           -1.6674    -2.6271    -2.7454 O.3     
  29 C29           -2.3334    -1.4158    -3.1077 C.3     
  30 C30           -3.9547     1.5137     0.2849 C.2     
  31 O31           -4.6599     0.5257     0.2261 O.2     
  32 O32           -4.4812     2.6961     0.6603 O.3     
  33 C33            2.3492     5.5799     0.3623 C.3     
  34 F34            3.2175     6.6688     0.2297 F       
  35 F35            1.3834     5.8689     1.3324 F       
  36 F36            3.0755     4.4488     0.7499 F       
  37 H37           -0.2497    -0.7694    -1.3038 H       
  38 H38           -2.0817     3.4433     0.5282 H       
  39 H39           -2.4340    -2.7051     4.7232 H       
  40 H40           -0.9569     0.9854     3.1508 H       
  41 H41           -4.1142    -1.9655    -2.0272 H       
  42 H42           -3.5489     0.9921    -2.5212 H       
  43 H43           -4.5981    -0.0247    -3.5379 H       
  44 H44           -5.0420     0.2984    -1.8448 H       
  45 H45            2.6583     6.9156    -1.9932 H       
  46 H46            1.5003     6.4159    -4.1355 H       
  47 H47           -0.1036     4.5533    -4.2342 H       
  48 H48           -3.3001    -3.2471     2.4575 H       
  49 H49           -1.0203    -3.1436    -4.6383 H       
  50 H50            0.1390    -2.2134    -3.6589 H       
  51 H51           -0.1599    -3.9295    -3.2928 H       
  52 H52           -2.7746    -1.5260    -4.0983 H       
  53 H53           -1.6154    -0.5958    -3.1188 H       
  54 H54           -5.4244     2.7089     0.8731 H       
@<TRIPOS>BOND
   1    1   25 ar
   2    1    6 1
   3    1    5 ar
   4    2    3 ar
   5    2   25 ar
   6    2   37 1
   7    3    4 ar
   8    3    8 1
   9    4    5 ar
  10    4   30 1
  11    5   38 1
  12    6    7 1
  13    7   20 ar
  14    7   17 ar
  15    8    9 am
  16    8   18 1
  17    9   11 2
  18    9   10 1
  19   10   12 ar
  20   10   24 ar
  21   12   15 ar
  22   13   14 ar
  23   13   24 ar
  24   13   39 1
  25   14   15 ar
  26   14   16 1
  27   15   40 1
  28   17   23 ar
  29   18   19 1
  30   18   29 1
  31   18   41 1
  32   19   42 1
  33   19   43 1
  34   19   44 1
  35   20   21 ar
  36   20   33 1
  37   21   22 ar
  38   21   45 1
  39   22   23 ar
  40   22   46 1
  41   23   47 1
  42   24   48 1
  43   25   26 1
  44   27   28 1
  45   27   49 1
  46   27   50 1
  47   27   51 1
  48   28   29 1
  49   29   52 1
  50   29   53 1
  51   30   31 2
  52   30   32 1
  53   32   54 1
  54   33   34 1
  55   33   35 1
  56   33   36 1

#	End of record

