#	Name: ASD07300710
#	Creating user name:	WinNT
#	Creation time:	15. 06. 2019 21:10

#	Modifying user name:	WinNT
#	Modification time:	15. 06. 2019 21:10

#	Program:	/corina/corina34_cracker 3.40 0067  02.08.2006

@<TRIPOS>MOLECULE
ASD07300710
  45   48    0    0    0
SMALL
NO_CHARGES


@<TRIPOS>ATOM
   1 C1            -0.0172     1.4141     0.0098 C.2     
   2 C2             0.0021    -0.0041     0.0020 C.2     
   3 N3             1.1789     2.0886     0.0020 N.pl3   
   4 N4             1.1598    -0.6390    -0.0124 N.2     
   5 C5             2.3134     0.0267    -0.0199 C.2     
   6 C6             2.3458     1.3789    -0.0130 C.2     
   7 N7            -0.9951     2.3042     0.0292 N.2     
   8 C8            -0.4790     3.5302     0.0285 C.2     
   9 C9             0.8853     3.4256     0.0125 C.2     
  10 C10           -2.4705    -2.8374     0.0118 C.ar    
  11 C11           -1.2650    -2.1662     0.0030 C.ar    
  12 C12           -1.2674    -0.7674     0.0105 C.ar    
  13 C13           -2.5017    -0.1094     0.0268 C.ar    
  14 C14           -3.6597    -0.8596     0.0347 C.ar    
  15 N15           -3.6128    -2.1779     0.0271 N.ar    
  16 C16           -1.2639     4.8166     0.0468 C.3     
  17 C17            2.9703     4.5143     0.8486 C.ar    
  18 C18            1.8547     4.5409     0.0094 C.ar    
  19 C19            1.6705     5.6420    -0.8353 C.ar    
  20 C20            2.6076     6.6597    -0.8000 C.ar    
  21 C21            3.6859     6.5578     0.0602 C.ar    
  22 N22            3.8340     5.5081     0.8457 N.ar    
  23 C23            4.7082     7.6642     0.1012 C.3     
  24 C24            4.8557     8.1694     1.5378 C.3     
  25 O25            5.8251     9.2185     1.5767 O.3     
  26 C26            6.0398     9.7636     2.8801 C.3     
  27 H27            3.2421    -0.5246    -0.0314 H       
  28 H28            3.2935     1.8969    -0.0189 H       
  29 H29           -2.4790    -3.9173     0.0016 H       
  30 H30           -0.3335    -2.7127    -0.0091 H       
  31 H31           -2.5475     0.9696     0.0334 H       
  32 H32           -4.6175    -0.3607     0.0476 H       
  33 H33           -1.4380     5.1213     1.0787 H       
  34 H34           -0.7010     5.5930    -0.4713 H       
  35 H35           -2.2203     4.6658    -0.4538 H       
  36 H36            3.1235     3.6736     1.5091 H       
  37 H37            0.8191     5.6956    -1.4977 H       
  38 H38            2.4982     7.5243    -1.4378 H       
  39 H39            5.6677     7.2855    -0.2511 H       
  40 H40            4.3832     8.4832    -0.5404 H       
  41 H41            3.8962     8.5480     1.8901 H       
  42 H42            5.1808     7.3503     2.1794 H       
  43 H43            6.7888    10.5535     2.8248 H       
  44 H44            5.1049    10.1753     3.2602 H       
  45 H45            6.3894     8.9776     3.5495 H       
@<TRIPOS>BOND
   1    1    2 1
   2    1    3 1
   3    1    7 2
   4    2    4 2
   5    2   12 1
   6    3    6 1
   7    3    9 1
   8    4    5 1
   9    5    6 2
  10    5   27 1
  11    6   28 1
  12    7    8 1
  13    8    9 2
  14    8   16 1
  15    9   18 1
  16   10   11 ar
  17   10   15 ar
  18   10   29 1
  19   11   12 ar
  20   11   30 1
  21   12   13 ar
  22   13   14 ar
  23   13   31 1
  24   14   15 ar
  25   14   32 1
  26   16   33 1
  27   16   34 1
  28   16   35 1
  29   17   18 ar
  30   17   22 ar
  31   17   36 1
  32   18   19 ar
  33   19   20 ar
  34   19   37 1
  35   20   21 ar
  36   20   38 1
  37   21   22 ar
  38   21   23 1
  39   23   24 1
  40   23   39 1
  41   23   40 1
  42   24   25 1
  43   24   41 1
  44   24   42 1
  45   25   26 1
  46   26   43 1
  47   26   44 1
  48   26   45 1

#	End of record

