#	Name: ASD01911530
#	Creating user name:	WinNT
#	Creation time:	15. 06. 2019 19:57

#	Modifying user name:	WinNT
#	Modification time:	15. 06. 2019 19:57

#	Program:	/corina/corina34_cracker 3.40 0067  02.08.2006

@<TRIPOS>MOLECULE
ASD01911530
  36   37    0    0    0
SMALL
NO_CHARGES


@<TRIPOS>ATOM
   1 N1            -0.0169     1.3965     0.0097 N.2     
   2 N2             0.0021    -0.0041     0.0020 N.pl3   
   3 C3             1.2287     1.8225     0.0001 C.2     
   4 C4             2.0725     0.6945    -0.0140 C.2     
   5 C5             1.2910    -0.4071    -0.0125 C.2     
   6 C6             1.7726    -1.8350    -0.0247 C.3     
   7 C7             1.6665     3.2400     0.0031 C.ar    
   8 C8            -1.1724    -0.8797     0.0085 C.3     
   9 C9            -1.5883    -1.1729    -1.4100 C.2     
  10 O10           -2.6486    -1.9604    -1.6494 O.3     
  11 O11           -0.9674    -0.6989    -2.3318 O.2     
  12 N12            2.9612     3.5280    -0.0081 N.ar    
  13 C13            0.7137     4.2568     0.0119 C.ar    
  14 C14            1.1358     5.5743     0.0142 C.ar    
  15 C15            2.5014     5.8331     0.0075 C.ar    
  16 C16            3.3923     4.7731    -0.0064 C.ar    
  17 C17            2.0690    -2.2856     1.4071 C.3     
  18 F18            2.9549     7.1057     0.0089 F       
  19 C19            2.5580    -3.7353     1.3946 C.3     
  20 C20            4.8742     5.0471    -0.0137 C.3     
  21 H21            3.1523     0.7082    -0.0248 H       
  22 H22            1.0019    -2.4747    -0.4547 H       
  23 H23            2.6805    -1.9071    -0.6236 H       
  24 H24           -0.9270    -1.8130     0.5154 H       
  25 H25           -1.9908    -0.3860     0.5325 H       
  26 H26           -2.8770    -2.1197    -2.5754 H       
  27 H27           -0.3399     4.0196     0.0166 H       
  28 H28            0.4204     6.3833     0.0206 H       
  29 H29            2.8397    -1.6459     1.8371 H       
  30 H30            1.1611    -2.2135     2.0060 H       
  31 H31            1.7873    -4.3750     0.9646 H       
  32 H32            3.4659    -3.8074     0.7957 H       
  33 H33            2.7692    -4.0563     2.4146 H       
  34 H34            5.2380     5.1052     1.0122 H       
  35 H35            5.3899     4.2420    -0.5371 H       
  36 H36            5.0664     5.9923    -0.5214 H       
@<TRIPOS>BOND
   1    1    2 1
   2    1    3 2
   3    2    8 1
   4    2    5 1
   5    3    4 1
   6    3    7 1
   7    4    5 2
   8    4   21 1
   9    5    6 1
  10    6   17 1
  11    6   22 1
  12    6   23 1
  13    7   12 ar
  14    7   13 ar
  15    8    9 1
  16    8   24 1
  17    8   25 1
  18    9   10 1
  19    9   11 2
  20   10   26 1
  21   12   16 ar
  22   13   14 ar
  23   13   27 1
  24   14   15 ar
  25   14   28 1
  26   15   16 ar
  27   15   18 1
  28   16   20 1
  29   17   19 1
  30   17   29 1
  31   17   30 1
  32   19   31 1
  33   19   32 1
  34   19   33 1
  35   20   34 1
  36   20   35 1
  37   20   36 1

#	End of record

