#	Name: ASD01230549
#	Creating user name:	WinNT
#	Creation time:	15. 06. 2019 19:14

#	Modifying user name:	WinNT
#	Modification time:	15. 06. 2019 19:14

#	Program:	/corina/corina34_cracker 3.40 0067  02.08.2006

@<TRIPOS>MOLECULE
ASD01230549
  43   45    0    0    0
SMALL
NO_CHARGES


@<TRIPOS>ATOM
   1 S1             0.9628     0.9525     0.1030 S.o2    
   2 N2             0.6207    -0.6526    -0.1076 N.am    
   3 C3             1.3859    -1.4433    -0.8202 C.2     
   4 N4             2.5297    -1.0693    -1.4662 N.pl3   
   5 C5             3.0344     0.3056    -1.5068 C.3     
   6 C6             2.7602     1.0192    -0.1798 C.3     
   7 C7             0.9494    -2.8528    -0.9138 C.2     
   8 C8             1.7256    -3.7504    -1.6141 C.2     
   9 C9             2.9064    -3.2994    -2.2202 C.2     
  10 C10            3.2744    -2.0097    -2.1339 C.2     
  11 C11           -0.3052    -3.2942    -0.2631 C.ar    
  12 C12           -0.2628    -4.2102     0.7885 C.ar    
  13 C13           -1.4332    -4.6186     1.3924 C.ar    
  14 C14           -2.6528    -4.1198     0.9550 C.ar    
  15 C15           -2.6990    -3.2082    -0.0912 C.ar    
  16 C16           -1.5323    -2.7908    -0.6962 C.ar    
  17 O17           -3.8044    -4.5252     1.5520 O.3     
  18 C18           -3.6786    -5.3709     2.6970 C.3     
  19 C19           -4.9209    -5.2245     3.5780 C.3     
  20 C20           -4.9881    -3.8001     4.1323 C.3     
  21 C21           -3.5432    -6.8260     2.2439 C.3     
  22 O22            0.2625     1.6080    -0.9454 O.2     
  23 O23            0.6571     1.2073     1.4671 O.2     
  24 H24            4.1086     0.2889    -1.6907 H       
  25 H25            2.5405     0.8461    -2.3143 H       
  26 H26            3.0883     2.0569    -0.2414 H       
  27 H27            3.2829     0.5108     0.6303 H       
  28 H28            1.4290    -4.7857    -1.6946 H       
  29 H29            3.5277    -3.9966    -2.7628 H       
  30 H30            4.1936    -1.7005    -2.6090 H       
  31 H31            0.6855    -4.5992     1.1289 H       
  32 H32           -1.4012    -5.3276     2.2065 H       
  33 H33           -3.6495    -2.8223    -0.4288 H       
  34 H34           -1.5686    -2.0784    -1.5071 H       
  35 H35           -2.7941    -5.0836     3.2655 H       
  36 H36           -5.8129    -5.4260     2.9848 H       
  37 H37           -4.8661    -5.9336     4.4040 H       
  38 H38           -5.8731    -3.6958     4.7600 H       
  39 H39           -4.0962    -3.5986     4.7256 H       
  40 H40           -5.0429    -3.0910     3.3063 H       
  41 H41           -4.4277    -7.1133     1.6754 H       
  42 H42           -2.6582    -6.9303     1.6163 H       
  43 H43           -3.4473    -7.4711     3.1173 H       
@<TRIPOS>BOND
   1    1    2 am
   2    1    6 1
   3    1   22 2
   4    1   23 2
   5    2    3 2
   6    3    4 1
   7    3    7 1
   8    4    5 1
   9    4   10 1
  10    5    6 1
  11    5   24 1
  12    5   25 1
  13    6   26 1
  14    6   27 1
  15    7    8 2
  16    7   11 1
  17    8    9 1
  18    8   28 1
  19    9   10 2
  20    9   29 1
  21   10   30 1
  22   11   12 ar
  23   11   16 ar
  24   12   13 ar
  25   12   31 1
  26   13   14 ar
  27   13   32 1
  28   14   15 ar
  29   14   17 1
  30   15   16 ar
  31   15   33 1
  32   16   34 1
  33   17   18 1
  34   18   19 1
  35   18   21 1
  36   18   35 1
  37   19   20 1
  38   19   36 1
  39   19   37 1
  40   20   38 1
  41   20   39 1
  42   20   40 1
  43   21   41 1
  44   21   42 1
  45   21   43 1

#	End of record

