#	Name: ASD00842846
#	Creating user name:	WinNT
#	Creation time:	15. 06. 2019 18:45

#	Modifying user name:	WinNT
#	Modification time:	15. 06. 2019 18:45

#	Program:	/corina/corina34_cracker 3.40 0067  02.08.2006

@<TRIPOS>MOLECULE
ASD00842846
  94   99    0    0    0
SMALL
NO_CHARGES


@<TRIPOS>ATOM
   1 N1            -0.0142     1.3152     0.0260 N.ar    
   2 C2             0.0027    -0.0071     0.0115 C.ar    
   3 C3             1.2071    -0.6994    -0.0063 C.ar    
   4 C4             2.3932     0.0133    -0.0087 C.ar    
   5 C5             2.3325     1.4001     0.0070 C.ar    
   6 C6             1.1001     2.0220     0.0242 C.ar    
   7 C7             1.2215    -2.2062    -0.0224 C.3     
   8 C8             0.4763    -2.7309    -1.2311 C.2     
   9 N9             2.5989    -2.7051    -0.0122 N.am    
  10 C10            3.4467    -2.3635    -1.0028 C.2     
  11 N11            4.7402    -2.7372    -0.9415 N.am    
  12 O12            3.0445    -1.7183    -1.9516 O.2     
  13 C13            5.2676    -3.4159     0.2500 C.3     
  14 C14            6.4984    -2.6520     0.7484 C.3     
  15 C15            7.5064    -2.5152    -0.3949 C.3     
  16 C16            6.8759    -1.7204    -1.5408 C.3     
  17 C17            5.6481    -2.4789    -2.0674 C.3     
  18 C18            8.7519    -1.7828     0.1085 C.3     
  19 C19            9.3849    -2.5776     1.2539 C.3     
  20 C20           10.6632    -1.8721     1.7124 C.3     
  21 N21           11.5998    -1.7725     0.5858 N.3     
  22 C22           11.0321    -0.9734    -0.5076 C.3     
  23 C23            9.7648    -1.6521    -1.0324 C.3     
  24 C24           12.8915    -1.2255     1.0219 C.3     
  25 O25            0.7571    -2.5297    -2.3938 O.2     
  26 N26           -0.5550    -3.4610    -0.7740 N.am    
  27 C27            0.4476    -2.7557     1.1539 C.ar    
  28 C28           -0.6005    -3.4959     0.6206 C.ar    
  29 C29            0.6111    -2.6432     2.5162 C.ar    
  30 C30           -0.2762    -3.2728     3.3730 C.ar    
  31 C31           -1.3258    -4.0140     2.8539 C.ar    
  32 C32           -1.4903    -4.1272     1.4866 C.ar    
  33 Cl33          -0.0740    -3.1344     5.0916 Cl      
  34 F34           -2.1922    -4.6287     3.6885 F       
  35 C35           -1.0189    -5.8479    -2.0631 C.ar    
  36 C36            0.1598    -6.0087    -2.7773 C.ar    
  37 C37           -1.6980    -6.9547    -1.5901 C.ar    
  38 C38           -1.2052    -8.2235    -1.8265 C.ar    
  39 C39           -0.0266    -8.3896    -2.5404 C.ar    
  40 C40            0.6562    -7.2812    -3.0162 C.ar    
  41 O41            0.4574    -9.6380    -2.7730 O.3     
  42 O42            0.8270    -4.9201    -3.2426 O.3     
  43 C43           -0.2983   -10.7340    -2.2535 C.3     
  44 C44            2.0335    -5.1603    -3.9697 C.3     
  45 C45            2.6383    -3.8255    -4.4095 C.3     
  46 O46           -1.1672    -0.6942     0.0144 O.3     
  47 C47           -2.3713     0.0751     0.0335 C.3     
  48 C48           -3.5777    -0.8658     0.0340 C.3     
  49 F49           -3.5500    -1.6602    -1.1173 F       
  50 F50           -3.5297    -1.6851     1.1670 F       
  51 S51           -1.6465    -4.2310    -1.7528 S.o2    
  52 O52           -2.8277    -4.4003    -0.9813 O.2     
  53 O53           -1.6227    -3.5456    -2.9974 O.2     
  54 H54            3.3446    -0.4978    -0.0220 H       
  55 H55            3.2396     1.9862     0.0060 H       
  56 H56            1.0473     3.1007     0.0361 H       
  57 H57            2.9008    -3.2813     0.7074 H       
  58 H58            4.5060    -3.4302     1.0297 H       
  59 H59            5.5504    -4.4370    -0.0062 H       
  60 H60            6.1982    -1.6611     1.0892 H       
  61 H61            6.9560    -3.1979     1.5735 H       
  62 H62            7.7875    -3.5060    -0.7518 H       
  63 H63            6.5721    -0.7384    -1.1784 H       
  64 H64            7.6022    -1.6033    -2.3451 H       
  65 H65            5.9645    -3.4222    -2.5124 H       
  66 H66            5.1373    -1.8727    -2.8155 H       
  67 H67            8.4724    -0.7911     0.4641 H       
  68 H68            8.6837    -2.6375     2.0863 H       
  69 H69            9.6276    -3.5826     0.9088 H       
  70 H70           10.4178    -0.8722     2.0702 H       
  71 H71           11.1240    -2.4432     2.5184 H       
  72 H72           10.7849     0.0223    -0.1394 H       
  73 H73           11.7608    -0.8917    -1.3140 H       
  74 H74           10.0135    -2.6425    -1.4134 H       
  75 H75            9.3350    -1.0507    -1.8335 H       
  76 H76           13.3250    -1.8777     1.7801 H       
  77 H77           13.5662    -1.1624     0.1681 H       
  78 H78           12.7419    -0.2304     1.4410 H       
  79 H79            1.4307    -2.0648     2.9162 H       
  80 H80           -2.3106    -4.7061     1.0886 H       
  81 H81           -2.6153    -6.8275    -1.0344 H       
  82 H82           -1.7374    -9.0868    -1.4552 H       
  83 H83            1.5733    -7.4084    -3.5722 H       
  84 H84            0.1973   -11.6706    -2.5092 H       
  85 H85           -0.3696   -10.6448    -1.1695 H       
  86 H86           -1.2989   -10.7226    -2.6857 H       
  87 H87            2.7428    -5.6882    -3.3323 H       
  88 H88            1.8135    -5.7667    -4.8484 H       
  89 H89            1.9290    -3.2977    -5.0469 H       
  90 H90            2.8583    -3.2192    -3.5308 H       
  91 H91            3.5586    -4.0088    -4.9641 H       
  92 H92           -2.3928     0.6940     0.9305 H       
  93 H93           -2.4087     0.7134    -0.8493 H       
  94 H94           -4.4962    -0.2790     0.0485 H       
@<TRIPOS>BOND
   1    1    2 ar
   2    1    6 ar
   3    2    3 ar
   4    2   46 1
   5    3    4 ar
   6    3    7 1
   7    4    5 ar
   8    4   54 1
   9    5    6 ar
  10    5   55 1
  11    6   56 1
  12    7    8 1
  13    7    9 1
  14    7   27 1
  15    8   25 2
  16    8   26 am
  17    9   10 am
  18    9   57 1
  19   10   11 am
  20   10   12 2
  21   11   13 1
  22   11   17 1
  23   13   14 1
  24   13   58 1
  25   13   59 1
  26   14   15 1
  27   14   60 1
  28   14   61 1
  29   15   16 1
  30   15   18 1
  31   15   62 1
  32   16   17 1
  33   16   63 1
  34   16   64 1
  35   17   65 1
  36   17   66 1
  37   18   19 1
  38   18   23 1
  39   18   67 1
  40   19   20 1
  41   19   68 1
  42   19   69 1
  43   20   21 1
  44   20   70 1
  45   20   71 1
  46   21   22 1
  47   21   24 1
  48   22   23 1
  49   22   72 1
  50   22   73 1
  51   23   74 1
  52   23   75 1
  53   24   76 1
  54   24   77 1
  55   24   78 1
  56   26   51 am
  57   26   28 1
  58   27   28 ar
  59   27   29 ar
  60   28   32 ar
  61   29   30 ar
  62   29   79 1
  63   30   31 ar
  64   30   33 1
  65   31   32 ar
  66   31   34 1
  67   32   80 1
  68   35   36 ar
  69   35   37 ar
  70   35   51 1
  71   36   42 1
  72   36   40 ar
  73   37   38 ar
  74   37   81 1
  75   38   39 ar
  76   38   82 1
  77   39   40 ar
  78   39   41 1
  79   40   83 1
  80   41   43 1
  81   42   44 1
  82   43   84 1
  83   43   85 1
  84   43   86 1
  85   44   45 1
  86   44   87 1
  87   44   88 1
  88   45   89 1
  89   45   90 1
  90   45   91 1
  91   46   47 1
  92   47   48 1
  93   47   92 1
  94   47   93 1
  95   48   49 1
  96   48   50 1
  97   48   94 1
  98   51   52 2
  99   51   53 2

#	End of record

