#	Name: ASD03490096
#	Creating user name:	WinNT
#	Creation time:	15. 06. 2019 20:42

#	Modifying user name:	WinNT
#	Modification time:	15. 06. 2019 20:42

#	Program:	/corina/corina34_cracker 3.40 0067  02.08.2006

@<TRIPOS>MOLECULE
ASD03490096
  52   55    0    0    0
SMALL
NO_CHARGES


@<TRIPOS>ATOM
   1 Cl1            8.6915     6.5405     0.4000 Cl      
   2 C2            -0.0440     1.4272    -0.0238 C.ar    
   3 C3            -0.0528     0.0594     0.1877 C.ar    
   4 C4             1.1390    -0.6225     0.4023 C.ar    
   5 C5             2.3420     0.0669     0.4045 C.ar    
   6 C6             2.3520     1.4454     0.1910 C.ar    
   7 C7             1.1508     2.1229    -0.0232 C.ar    
   8 C8             3.6312     2.1865     0.1921 C.2     
   9 O9             4.6764     1.5947     0.3794 O.2     
  10 N10            3.6386     3.5184    -0.0144 N.am    
  11 C11            4.8362     4.2348     0.0836 C.ar    
  12 C12            6.0277     3.6586    -0.3366 C.ar    
  13 C13            7.2087     4.3682    -0.2387 C.ar    
  14 C14            7.2053     5.6518     0.2779 C.ar    
  15 C15            6.0192     6.2283     0.6978 C.ar    
  16 C16            6.0194     7.6263     1.2603 C.3     
  17 O17            4.6865     7.9953     1.6200 O.3     
  18 C18            4.5105     9.2356     2.1470 C.ar    
  19 C19            3.2433     9.6693     2.5223 C.ar    
  20 C20            3.1138    10.9421     3.0549 C.ar    
  21 C21            4.2387    11.7327     3.1948 C.ar    
  22 N22            5.4262    11.2914     2.8285 N.ar    
  23 C23            5.5931    10.0852     2.3236 C.ar    
  24 C24            4.8347     5.5258     0.5960 C.ar    
  25 N25            1.1249    -2.0030     0.6162 N.3     
  26 C26           -0.2473    -2.5288     0.5736 C.3     
  27 C27           -0.2114    -4.0489     0.7525 C.3     
  28 O28            0.4511    -4.3638     1.9802 O.3     
  29 C29            1.7902    -3.8673     2.0556 C.3     
  30 C30            1.7746    -2.3454     1.8898 C.3     
  31 F31           -1.2056     2.0834    -0.2370 F       
  32 H32           -0.9887    -0.4796     0.1863 H       
  33 H33            3.2688    -0.4619     0.5715 H       
  34 H34            1.1546     3.1901    -0.1889 H       
  35 H35            2.8135     3.9802    -0.2309 H       
  36 H36            6.0310     2.6565    -0.7392 H       
  37 H37            8.1357     3.9205    -0.5653 H       
  38 H38            6.6572     7.6625     2.1435 H       
  39 H39            6.3984     8.3199     0.5097 H       
  40 H40            2.3814     9.0299     2.4012 H       
  41 H41            2.1450    11.3120     3.3569 H       
  42 H42            4.1440    12.7255     3.6092 H       
  43 H43            6.5820     9.7569     2.0397 H       
  44 H44            3.9087     5.9779     0.9194 H       
  45 H45           -0.8336    -2.0815     1.3763 H       
  46 H46           -0.7003    -2.2861    -0.3877 H       
  47 H47           -1.2299    -4.4364     0.7787 H       
  48 H48            0.3293    -4.5006    -0.0792 H       
  49 H49            2.2194    -4.1236     3.0242 H       
  50 H50            2.3891    -4.3138     1.2618 H       
  51 H51            2.7975    -1.9689     1.8894 H       
  52 H52            1.2207    -1.8953     2.7136 H       
@<TRIPOS>BOND
   1    1   14 1
   2    2    3 ar
   3    2    7 ar
   4    2   31 1
   5    3    4 ar
   6    3   32 1
   7    4    5 ar
   8    4   25 1
   9    5    6 ar
  10    5   33 1
  11    6    7 ar
  12    6    8 1
  13    7   34 1
  14    8    9 2
  15    8   10 am
  16   10   11 1
  17   10   35 1
  18   11   12 ar
  19   11   24 ar
  20   12   13 ar
  21   12   36 1
  22   13   14 ar
  23   13   37 1
  24   14   15 ar
  25   15   16 1
  26   15   24 ar
  27   16   17 1
  28   16   38 1
  29   16   39 1
  30   17   18 1
  31   18   19 ar
  32   18   23 ar
  33   19   20 ar
  34   19   40 1
  35   20   21 ar
  36   20   41 1
  37   21   22 ar
  38   21   42 1
  39   22   23 ar
  40   23   43 1
  41   24   44 1
  42   25   26 1
  43   25   30 1
  44   26   27 1
  45   26   45 1
  46   26   46 1
  47   27   28 1
  48   27   47 1
  49   27   48 1
  50   28   29 1
  51   29   30 1
  52   29   49 1
  53   29   50 1
  54   30   51 1
  55   30   52 1

#	End of record

