#	Name: ASD03090381
#	Creating user name:	WinNT
#	Creation time:	15. 06. 2019 20:28

#	Modifying user name:	WinNT
#	Modification time:	15. 06. 2019 20:28

#	Program:	/corina/corina34_cracker 3.40 0067  02.08.2006

@<TRIPOS>MOLECULE
ASD03090381
  44   46    0    0    0
SMALL
NO_CHARGES


@<TRIPOS>ATOM
   1 C1            -0.0179     1.4719     0.0101 C.2     
   2 C2             0.0021    -0.0041     0.0020 C.ar    
   3 C3             1.2203    -0.6995    -0.0133 C.ar    
   4 C4             1.1875    -2.0786    -0.0205 C.ar    
   5 C5            -0.0424    -2.7299    -0.0123 C.ar    
   6 N6            -1.1755    -2.0450     0.0022 N.ar    
   7 C7            -1.1903    -0.7285     0.0153 C.ar    
   8 O8             1.0266     2.0941     0.0035 O.2     
   9 N9            -1.1942     2.1299     0.0193 N.am    
  10 O10           -0.0809    -4.0843    -0.0197 O.3     
  11 C11           -1.3719    -4.6967    -0.0107 C.3     
  12 C12           -1.2146    -6.2186    -0.0209 C.3     
  13 F13           -0.4996    -6.6211     1.1121 F       
  14 F14           -2.4786    -6.8181    -0.0121 F       
  15 F15           -0.5218    -6.6080    -1.1723 F       
  16 C16           -1.2140     3.5947     0.0273 C.3     
  17 N17           -6.5502     5.4000     0.3369 N.am    
  18 C18           -6.7025     5.4458     1.7028 C.2     
  19 C19           -5.5677     5.0593     2.3012 C.2     
  20 C20           -4.6062     4.7384     1.2405 C.ar    
  21 C21           -3.2845     4.2907     1.2357 C.ar    
  22 C22           -2.6415     4.0777     0.0367 C.ar    
  23 C23           -3.3007     4.3058    -1.1627 C.ar    
  24 C24           -4.6063     4.7481    -1.1734 C.ar    
  25 C25           -5.2730     4.9691     0.0250 C.ar    
  26 C26           -7.5023     5.7207    -0.5615 C.2     
  27 O27           -7.2658     5.6457    -1.7481 O.2     
  28 C28           -8.8608     6.1724    -0.0909 C.3     
  29 H29            2.1607    -0.1683    -0.0198 H       
  30 H30            2.1060    -2.6466    -0.0327 H       
  31 H31           -2.1344    -0.2043     0.0317 H       
  32 H32           -2.0275     1.6335     0.0205 H       
  33 H33           -1.9117    -4.3933     0.8863 H       
  34 H34           -1.9290    -4.3831    -0.8935 H       
  35 H35           -0.7010     3.9602     0.9169 H       
  36 H36           -0.7094     3.9698    -0.8630 H       
  37 H37           -7.6028     5.7487     2.2167 H       
  38 H38           -5.3934     4.9958     3.3651 H       
  39 H39           -2.7687     4.1117     2.1675 H       
  40 H40           -2.7859     4.1356    -2.0968 H       
  41 H41           -5.1101     4.9229    -2.1126 H       
  42 H42           -8.8631     7.2562     0.0258 H       
  43 H43           -9.6137     5.8844    -0.8246 H       
  44 H44           -9.0882     5.7034     0.8664 H       
@<TRIPOS>BOND
   1    1    2 1
   2    1    8 2
   3    1    9 am
   4    2    3 ar
   5    2    7 ar
   6    3    4 ar
   7    3   29 1
   8    4    5 ar
   9    4   30 1
  10    5    6 ar
  11    5   10 1
  12    6    7 ar
  13    7   31 1
  14    9   16 1
  15    9   32 1
  16   10   11 1
  17   11   12 1
  18   11   33 1
  19   11   34 1
  20   12   13 1
  21   12   14 1
  22   12   15 1
  23   16   22 1
  24   16   35 1
  25   16   36 1
  26   17   18 1
  27   17   25 1
  28   17   26 am
  29   18   19 2
  30   18   37 1
  31   19   20 1
  32   19   38 1
  33   20   21 ar
  34   20   25 ar
  35   21   22 ar
  36   21   39 1
  37   22   23 ar
  38   23   24 ar
  39   23   40 1
  40   24   25 ar
  41   24   41 1
  42   26   27 2
  43   26   28 1
  44   28   42 1
  45   28   43 1
  46   28   44 1

#	End of record

