#	Name: ASD01940492
#	Creating user name:	WinNT
#	Creation time:	15. 06. 2019 20:12

#	Modifying user name:	WinNT
#	Modification time:	15. 06. 2019 20:12

#	Program:	/corina/corina34_cracker 3.40 0067  02.08.2006

@<TRIPOS>MOLECULE
ASD01940492
  52   54    0    0    0
SMALL
NO_CHARGES


@<TRIPOS>ATOM
   1 C1             0.5223     1.5101     0.0900 C.ar    
   2 C2             0.3499     0.1566     0.1787 C.ar    
   3 C3             1.4007    -0.7082    -0.1131 C.ar    
   4 C4             2.6371    -0.2095    -0.4975 C.ar    
   5 C5             2.8246     1.1575    -0.5912 C.ar    
   6 C6             1.7590     2.0249    -0.2955 C.ar    
   7 C7             1.9910     3.4762    -0.4043 C.2     
   8 O8             4.0155     1.6823    -0.9632 O.3     
   9 C9             4.1929     3.0085    -1.0531 C.2     
  10 N10            3.2195     3.8937    -0.7841 N.am    
  11 O11            1.1053     4.2729    -0.1605 O.2     
  12 O12            5.2821     3.4275    -1.3912 O.2     
  13 C13            3.4917     5.3282    -0.9045 C.3     
  14 C14            3.9931     5.8568     0.4146 C.ar    
  15 C15            5.3164     5.6762     0.7732 C.ar    
  16 C16            3.1310     6.5271     1.2630 C.ar    
  17 C17            3.5873     7.0145     2.4739 C.ar    
  18 C18            4.9068     6.8337     2.8410 C.ar    
  19 C19            5.7773     6.1652     1.9908 C.ar    
  20 O20            1.2145    -2.0499    -0.0205 O.3     
  21 C21            1.7318    -2.6644     1.0558 C.2     
  22 O22            2.2490    -2.0135     1.9326 O.2     
  23 F23            6.1598     5.0255    -0.0576 F       
  24 N24            7.1148     5.9853     2.3574 N.am    
  25 S25            7.5112     5.7302     3.9448 S.o     
  26 O26            7.0725     4.3982     4.1738 O.2     
  27 O27            9.0260     5.5890     3.9011 O.3     
  28 N28            9.6395     5.3511     5.2078 N.3     
  29 C29           11.0983     5.2255     5.0894 C.3     
  30 C30            1.6672    -4.1657     1.1700 C.3     
  31 C31            2.4083    -4.7992    -0.0091 C.3     
  32 C32            2.3225    -4.6062     2.4804 C.3     
  33 H33           -0.2972     2.1772     0.3131 H       
  34 H34           -0.6076    -0.2439     0.4776 H       
  35 H35            3.4490    -0.8854    -0.7221 H       
  36 H36            4.2478     5.4913    -1.6724 H       
  37 H37            2.5753     5.8499    -1.1804 H       
  38 H38            2.0990     6.6705     0.9790 H       
  39 H39            2.9110     7.5378     3.1337 H       
  40 H40            5.2617     7.2153     3.7869 H       
  41 H41            7.8104     6.0098     1.6817 H       
  42 H42            9.3910     6.0783     5.8616 H       
  43 H43           11.3389     4.3893     4.4329 H       
  44 H44           11.5095     6.1448     4.6724 H       
  45 H45           11.5290     5.0492     6.0751 H       
  46 H46            0.6255    -4.4864     1.1589 H       
  47 H47            3.4500    -4.4785     0.0019 H       
  48 H48            2.3616    -5.8850     0.0735 H       
  49 H49            1.9414    -4.4853    -0.9427 H       
  50 H50            1.7945    -4.1548     3.3204 H       
  51 H51            2.2758    -5.6920     2.5630 H       
  52 H52            3.3642    -4.2855     2.4915 H       
@<TRIPOS>BOND
   1    1    2 ar
   2    1    6 ar
   3    1   33 1
   4    2    3 ar
   5    2   34 1
   6    3    4 ar
   7    3   20 1
   8    4    5 ar
   9    4   35 1
  10    5    6 ar
  11    5    8 1
  12    6    7 1
  13    7   10 am
  14    7   11 2
  15    8    9 1
  16    9   10 am
  17    9   12 2
  18   10   13 1
  19   13   14 1
  20   13   36 1
  21   13   37 1
  22   14   16 ar
  23   14   15 ar
  24   15   19 ar
  25   15   23 1
  26   16   17 ar
  27   16   38 1
  28   17   18 ar
  29   17   39 1
  30   18   19 ar
  31   18   40 1
  32   19   24 1
  33   20   21 1
  34   21   22 2
  35   21   30 1
  36   24   25 am
  37   24   41 1
  38   25   26 2
  39   25   27 1
  40   27   28 1
  41   28   29 1
  42   28   42 1
  43   29   43 1
  44   29   44 1
  45   29   45 1
  46   30   31 1
  47   30   32 1
  48   30   46 1
  49   31   47 1
  50   31   48 1
  51   31   49 1
  52   32   50 1
  53   32   51 1
  54   32   52 1

#	End of record

