#	Name: ASD03091763
#	Creating user name:	WinNT
#	Creation time:	15. 06. 2019 20:31

#	Modifying user name:	WinNT
#	Modification time:	15. 06. 2019 20:31

#	Program:	/corina/corina34_cracker 3.40 0067  02.08.2006

@<TRIPOS>MOLECULE
ASD03091763
  32   34    0    0    0
SMALL
NO_CHARGES


@<TRIPOS>ATOM
   1 C1            -0.0110     1.4660    -0.0346 C.3     
   2 C2             0.0623    -0.0607    -0.1053 C.3     
   3 N3             0.7602    -0.5740     1.0804 N.3     
   4 C4             0.0357    -0.2325     2.3112 C.3     
   5 C5            -0.0390     1.2889     2.4559 C.3     
   6 C6             1.3806     1.8615     2.5289 C.3     
   7 N7             2.0586     1.6068     1.2506 N.am    
   8 C8             1.4091     2.0405     0.0062 C.3     
   9 C9             3.2546     0.9861     1.2201 C.2     
  10 O10            3.7521     0.6756     0.1535 O.2     
  11 C11            3.9560     0.6852     2.4709 C.2     
  12 C12            5.0960    -0.0575     2.5931 C.2     
  13 C13           -0.7563     1.8792     1.2381 C.3     
  14 O14            3.5919     1.0982     3.7033 O.3     
  15 C15            4.4670     0.6327     4.6043 C.2     
  16 C16            5.4138    -0.0879     3.9588 C.2     
  17 Cl17           4.4004     0.9111     6.3165 Cl      
  18 H18           -0.5343     1.8476    -0.9114 H       
  19 H19           -0.9467    -0.4715    -0.1392 H       
  20 H20            0.6052    -0.3570    -1.0029 H       
  21 H21            0.9060    -1.5700     1.0112 H       
  22 H22           -0.9730    -0.6428     2.2646 H       
  23 H23            0.5594    -0.6536     3.1695 H       
  24 H24           -0.5826     1.5430     3.3659 H       
  25 H25            1.3327     2.9353     2.7096 H       
  26 H26            1.9291     1.3768     3.3366 H       
  27 H27            1.9764     1.6737    -0.8492 H       
  28 H28            1.3639     3.1292    -0.0223 H       
  29 H29            5.6460    -0.5302     1.7928 H       
  30 H30           -0.7701     2.9664     1.3153 H       
  31 H31           -1.7786     1.5030     1.1999 H       
  32 H32            6.2560    -0.5911     4.4104 H       
@<TRIPOS>BOND
   1    1    2 1
   2    1    8 1
   3    1   13 1
   4    1   18 1
   5    2    3 1
   6    2   19 1
   7    2   20 1
   8    3    4 1
   9    3   21 1
  10    4    5 1
  11    4   22 1
  12    4   23 1
  13    5    6 1
  14    5   13 1
  15    5   24 1
  16    6    7 1
  17    6   25 1
  18    6   26 1
  19    7    8 1
  20    7    9 am
  21    8   27 1
  22    8   28 1
  23    9   10 2
  24    9   11 1
  25   11   12 2
  26   11   14 1
  27   12   16 1
  28   12   29 1
  29   13   30 1
  30   13   31 1
  31   14   15 1
  32   15   16 2
  33   15   17 1
  34   16   32 1

#	End of record

