#	Name: ASD02480005
#	Creating user name:	WinNT
#	Creation time:	15. 06. 2019 20:22

#	Modifying user name:	WinNT
#	Modification time:	15. 06. 2019 20:22

#	Program:	/corina/corina34_cracker 3.40 0067  02.08.2006

@<TRIPOS>MOLECULE
ASD02480005
  37   38    0    0    0
SMALL
NO_CHARGES


@<TRIPOS>ATOM
   1 C1             0.5215     3.1909     0.6116 C.ar    
   2 C2             1.0904     3.3207     1.8694 C.ar    
   3 C3             0.3026     3.6402     2.9636 C.ar    
   4 C4            -1.0534     3.8307     2.8087 C.ar    
   5 C5            -1.6350     3.7015     1.5428 C.ar    
   6 C6            -0.8336     3.3845     0.4411 C.ar    
   7 C7            -3.0818     3.9031     1.3703 C.2     
   8 C8            -3.7047     3.7631     0.0052 C.3     
   9 O9            -3.7734     4.1819     2.3266 O.2     
  10 C10           -5.2213     3.9319     0.1169 C.3     
  11 C11           -5.5404     5.3468     0.5260 C.ar    
  12 S12           -5.9888     3.5790    -1.4884 S.3     
  13 C13           -5.7231     1.7952    -1.6843 C.3     
  14 C14           -6.2093     1.3612    -3.0431 C.2     
  15 O15           -6.1127     0.0739    -3.4109 O.3     
  16 O16           -6.6861     2.1720    -3.8015 O.2     
  17 C17           -6.2289     5.5878     1.7003 C.ar    
  18 C18           -6.5219     6.8853     2.0760 C.ar    
  19 C19           -6.1260     7.9428     1.2767 C.ar    
  20 C20           -5.4369     7.7009     0.1016 C.ar    
  21 C21           -5.1396     6.4034    -0.2703 C.ar    
  22 Cl22           1.5179     2.7910    -0.7526 Cl      
  23 Cl23           2.7975     3.0814     2.0744 Cl      
  24 Cl24          -6.4941     9.5726     1.7477 Cl      
  25 H25            0.7524     3.7397     3.9404 H       
  26 H26           -1.6660     4.0789     3.6629 H       
  27 H27           -1.2759     3.2836    -0.5390 H       
  28 H28           -3.3018     4.5283    -0.6582 H       
  29 H29           -3.4777     2.7763    -0.3982 H       
  30 H30           -5.6097     3.2410     0.8651 H       
  31 H31           -4.6599     1.5738    -1.5910 H       
  32 H32           -6.2751     1.2588    -0.9125 H       
  33 H33           -6.4378    -0.1566    -4.2919 H       
  34 H34           -6.5383     4.7622     2.3240 H       
  35 H35           -7.0601     7.0734     2.9933 H       
  36 H36           -5.1276     8.5261    -0.5228 H       
  37 H37           -4.6017     6.2144    -1.1875 H       
@<TRIPOS>BOND
   1    1    2 ar
   2    1   22 1
   3    1    6 ar
   4    2    3 ar
   5    2   23 1
   6    3    4 ar
   7    3   25 1
   8    4    5 ar
   9    4   26 1
  10    5    6 ar
  11    5    7 1
  12    6   27 1
  13    7    8 1
  14    7    9 2
  15    8   10 1
  16    8   28 1
  17    8   29 1
  18   10   11 1
  19   10   12 1
  20   10   30 1
  21   11   17 ar
  22   11   21 ar
  23   12   13 1
  24   13   14 1
  25   13   31 1
  26   13   32 1
  27   14   15 1
  28   14   16 2
  29   15   33 1
  30   17   18 ar
  31   17   34 1
  32   18   19 ar
  33   18   35 1
  34   19   20 ar
  35   19   24 1
  36   20   21 ar
  37   20   36 1
  38   21   37 1

#	End of record

