#	Name: ASD01028105
#	Creating user name:	WinNT
#	Creation time:	15. 06. 2019 18:56

#	Modifying user name:	WinNT
#	Modification time:	15. 06. 2019 18:56

#	Program:	/corina/corina34_cracker 3.40 0067  02.08.2006

@<TRIPOS>MOLECULE
ASD01028105
  25   26    0    0    0
SMALL
NO_CHARGES


@<TRIPOS>ATOM
   1 N1            -0.0180     1.4760     0.0102 N.pl3   
   2 C2             0.0021    -0.0041     0.0020 C.ar    
   3 C3             0.0229    -0.7017     1.1958 C.ar    
   4 C4             0.0251     0.0467     2.5038 C.3     
   5 C5            -0.0058    -0.6902    -1.2016 C.ar    
   6 C6             0.0127    -2.0817    -1.2061 C.ar    
   7 C7             0.0388    -2.7751    -0.0063 C.ar    
   8 C8             0.0412    -2.0836     1.1920 C.ar    
   9 O9            -0.0319    -0.0053    -2.3762 O.3     
  10 O10            0.0046    -2.7596    -2.3852 O.3     
  11 Br11           0.0639    -4.6660    -0.0072 Br      
  12 O12            1.0284     2.0993     0.0035 O.2     
  13 O13           -1.0810     2.0706     0.0184 O.2     
  14 O14           -0.3021    -0.8509     3.5728 O.3     
  15 C15            0.8083    -0.8448     4.4926 C.3     
  16 C16            1.5182     0.4953     4.1761 C.3     
  17 O17            1.3317     0.5959     2.7439 O.3     
  18 H18           -0.7073     0.8530     2.4656 H       
  19 H19            0.0620    -2.6248     2.1264 H       
  20 H20            0.8438     0.2049    -2.7285 H       
  21 H21            0.8855    -2.9439    -2.7390 H       
  22 H22            0.4547    -0.8593     5.5235 H       
  23 H23            1.4726    -1.6873     4.3002 H       
  24 H24            1.0341     1.3247     4.6919 H       
  25 H25            2.5772     0.4453     4.4292 H       
@<TRIPOS>BOND
   1    1    2 1
   2    1   12 2
   3    1   13 2
   4    2    3 ar
   5    2    5 ar
   6    3    4 1
   7    3    8 ar
   8    4   14 1
   9    4   17 1
  10    4   18 1
  11    5    6 ar
  12    5    9 1
  13    6    7 ar
  14    6   10 1
  15    7    8 ar
  16    7   11 1
  17    8   19 1
  18    9   20 1
  19   10   21 1
  20   14   15 1
  21   15   16 1
  22   15   22 1
  23   15   23 1
  24   16   17 1
  25   16   24 1
  26   16   25 1

#	End of record

