#	Name: ASD03430815
#	Creating user name:	WinNT
#	Creation time:	15. 06. 2019 20:41

#	Modifying user name:	WinNT
#	Modification time:	15. 06. 2019 20:41

#	Program:	/corina/corina34_cracker 3.40 0067  02.08.2006

@<TRIPOS>MOLECULE
ASD03430815
  57   63    0    0    0
SMALL
NO_CHARGES


@<TRIPOS>ATOM
   1 C1            -0.0178     1.4608     0.0101 C.3     
   2 O2            -0.5988    -4.2900     1.4259 O.3     
   3 C3             0.7435    -4.1794     1.6373 C.ar    
   4 C4             1.2233    -2.9500     1.1929 C.ar    
   5 C5             0.0375    -2.1929     0.6597 C.3     
   6 C6            -1.1587    -2.9803     1.2126 C.3     
   7 O7             3.9982    -5.5141     2.8515 O.3     
   8 C8             2.9798    -4.7784     2.3257 C.ar    
   9 C9             3.4364    -3.5516     1.8591 C.ar    
  10 C10            4.9322    -3.5108     2.1034 C.3     
  11 C11            5.2524    -5.0003     2.3726 C.3     
  12 C12            2.5636    -2.6444     1.3003 C.ar    
  13 C13            1.6298    -5.0862     2.2060 C.ar    
  14 N14            0.0021    -0.0041     0.0020 N.am    
  15 C15            0.0225    -0.7624     1.1162 C.2     
  16 C16            0.0226    -2.1324    -0.8387 C.ar    
  17 C17            0.0258    -3.0881    -1.8294 C.ar    
  18 C18            0.0082    -2.7077    -3.1598 C.ar    
  19 C19           -0.0130    -1.3656    -3.4915 C.ar    
  20 C20           -0.0171    -0.4038    -2.5024 C.ar    
  21 C21            0.0013    -0.7775    -1.1612 C.ar    
  22 O22            0.0277    -0.3668     2.2628 O.2     
  23 C23            1.3960     1.9824    -0.0006 C.ar    
  24 C24            2.0310     2.2273    -1.2048 C.ar    
  25 C25            3.3258     2.7051    -1.2205 C.ar    
  26 C26            3.9931     2.9411    -0.0203 C.ar    
  27 C27            3.3485     2.6930     1.1899 C.ar    
  28 C28            2.0519     2.2199     1.1938 C.ar    
  29 C29            5.3854     3.4542    -0.0308 C.ar    
  30 C30            6.0527     3.6902     1.1694 C.ar    
  31 C31            6.0322     3.6965    -1.2410 C.ar    
  32 C32            7.3272     4.1738    -1.2449 C.ar    
  33 C33            7.9831     4.4113    -0.0505 C.ar    
  34 C34            7.3476     4.1676     1.1537 C.ar    
  35 H35           -0.5450     1.8219    -0.8730 H       
  36 H36           -0.5280     1.8123     0.9069 H       
  37 H37           -1.9672    -3.0193     0.4825 H       
  38 H38           -1.5047    -2.5496     2.1522 H       
  39 H39            5.4614    -3.1519     1.2207 H       
  40 H40            5.1683    -2.8981     2.9734 H       
  41 H41            6.0257    -5.0973     3.1347 H       
  42 H42            5.5500    -5.5036     1.4528 H       
  43 H43            2.9295    -1.6922     0.9455 H       
  44 H44            1.2658    -6.0398     2.5589 H       
  45 H45            0.0424    -4.1359    -1.5681 H       
  46 H46            0.0107    -3.4574    -3.9372 H       
  47 H47           -0.0268    -1.0688    -4.5298 H       
  48 H48           -0.0333     0.6426    -2.7693 H       
  49 H49            1.5128     2.0441    -2.1345 H       
  50 H50            3.8209     2.8953    -2.1612 H       
  51 H51            3.8611     2.8742     2.1230 H       
  52 H52            1.5512     2.0276     2.1312 H       
  53 H53            5.5575     3.5003     2.1102 H       
  54 H54            5.5212     3.5107    -2.1741 H       
  55 H55            7.8295     4.3619    -2.1823 H       
  56 H56            8.9967     4.7841    -0.0582 H       
  57 H57            7.8644     4.3548     2.0834 H       
@<TRIPOS>BOND
   1    1   14 1
   2    1   23 1
   3    1   35 1
   4    1   36 1
   5    2    3 1
   6    2    6 1
   7    3    4 ar
   8    3   13 ar
   9    4    5 1
  10    4   12 ar
  11    5    6 1
  12    5   15 1
  13    5   16 1
  14    6   37 1
  15    6   38 1
  16    7    8 1
  17    7   11 1
  18    8    9 ar
  19    8   13 ar
  20    9   10 1
  21    9   12 ar
  22   10   11 1
  23   10   39 1
  24   10   40 1
  25   11   41 1
  26   11   42 1
  27   12   43 1
  28   13   44 1
  29   14   15 am
  30   14   21 1
  31   15   22 2
  32   16   17 ar
  33   16   21 ar
  34   17   18 ar
  35   17   45 1
  36   18   19 ar
  37   18   46 1
  38   19   20 ar
  39   19   47 1
  40   20   21 ar
  41   20   48 1
  42   23   24 ar
  43   23   28 ar
  44   24   25 ar
  45   24   49 1
  46   25   26 ar
  47   25   50 1
  48   26   27 ar
  49   26   29 1
  50   27   28 ar
  51   27   51 1
  52   28   52 1
  53   29   30 ar
  54   29   31 ar
  55   30   34 ar
  56   30   53 1
  57   31   32 ar
  58   31   54 1
  59   32   33 ar
  60   32   55 1
  61   33   34 ar
  62   33   56 1
  63   34   57 1

#	End of record

