#	Name: ASD09740104
#	Creating user name:	WinNT
#	Creation time:	15. 06. 2019 21:22

#	Modifying user name:	WinNT
#	Modification time:	15. 06. 2019 21:22

#	Program:	/corina/corina34_cracker 3.40 0067  02.08.2006

@<TRIPOS>MOLECULE
ASD09740104
  51   54    0    0    0
SMALL
NO_CHARGES


@<TRIPOS>ATOM
   1 N1            -0.0144     1.2085     0.0087 N.2     
   2 O2             0.0021    -0.0041     0.0020 O.3     
   3 C3             1.2057     1.6818    -0.0004 C.2     
   4 N4             2.0477     0.6286    -0.0141 N.2     
   5 C5             1.2718    -0.4438    -0.0125 C.2     
   6 C6             1.7135    -1.8444    -0.0242 C.2     
   7 C7             1.5920     3.1152     0.0036 C.ar    
   8 C8             0.6105     4.1035     0.0188 C.ar    
   9 C9             0.9752     5.4349     0.0229 C.ar    
  10 C10            2.3122     5.7882     0.0120 C.ar    
  11 C11            3.2911     4.8107    -0.0031 C.ar    
  12 C12            2.9376     3.4767    -0.0020 C.ar    
  13 C13            0.8940    -2.9185    -0.0222 C.2     
  14 C14            1.5678    -4.1306    -0.0351 C.2     
  15 C15            2.9215    -4.0180    -0.0474 C.2     
  16 S16            3.3879    -2.3770    -0.0507 S.3     
  17 C17            0.8691    -5.4400    -0.0350 C.ar    
  18 C18           -0.1348    -5.6967     0.8966 C.ar    
  19 C19            1.2106    -6.4148    -0.9701 C.ar    
  20 C20            0.5576    -7.6308    -0.9654 C.ar    
  21 C21           -0.4346    -7.8822    -0.0350 C.ar    
  22 C22           -0.7813    -6.9161     0.8922 C.ar    
  23 C23           -0.8468     3.7200     0.0302 C.3     
  24 C24           -0.0855     6.5053     0.0389 C.3     
  25 N25           -0.5883     6.6760     1.4085 N.3     
  26 C26            0.4585     7.2083     2.2911 C.3     
  27 C27           -1.7803     7.5343     1.4286 C.3     
  28 C28            3.8788    -5.1818    -0.0620 C.3     
  29 F29            4.1626    -5.5356    -1.3855 F       
  30 F30            5.0634    -4.8193     0.5880 F       
  31 F31            3.2992    -6.2707     0.5978 F       
  32 H32            2.5932     6.8310     0.0150 H       
  33 H33            4.3337     5.0921    -0.0119 H       
  34 H34            3.7025     2.7144    -0.0137 H       
  35 H35           -0.1831    -2.8406    -0.0111 H       
  36 H36           -0.4063    -4.9430     1.6209 H       
  37 H37            1.9846    -6.2193    -1.6974 H       
  38 H38            0.8215    -8.3871    -1.6898 H       
  39 H39           -0.9433    -8.8349    -0.0351 H       
  40 H40           -1.5567    -7.1176     1.6164 H       
  41 H41           -1.1885     3.6213     1.0605 H       
  42 H42           -1.4295     4.4913    -0.4735 H       
  43 H43           -0.9766     2.7700    -0.4882 H       
  44 H44            0.3414     7.4451    -0.3113 H       
  45 H45           -0.9065     6.2129    -0.6158 H       
  46 H46            0.7910     8.1768     1.9175 H       
  47 H47            0.0596     7.3249     3.2987 H       
  48 H48            1.3018     6.5179     2.3119 H       
  49 H49           -2.5646     7.0811     0.8223 H       
  50 H50           -2.1318     7.6441     2.4545 H       
  51 H51           -1.5290     8.5147     1.0238 H       
@<TRIPOS>BOND
   1    1    2 1
   2    1    3 2
   3    2    5 1
   4    3    4 1
   5    3    7 1
   6    4    5 2
   7    5    6 1
   8    6   13 2
   9    6   16 1
  10    7    8 ar
  11    7   12 ar
  12    8    9 ar
  13    8   23 1
  14    9   10 ar
  15    9   24 1
  16   10   11 ar
  17   10   32 1
  18   11   12 ar
  19   11   33 1
  20   12   34 1
  21   13   14 1
  22   13   35 1
  23   14   15 2
  24   14   17 1
  25   15   16 1
  26   15   28 1
  27   17   18 ar
  28   17   19 ar
  29   18   22 ar
  30   18   36 1
  31   19   20 ar
  32   19   37 1
  33   20   21 ar
  34   20   38 1
  35   21   22 ar
  36   21   39 1
  37   22   40 1
  38   23   41 1
  39   23   42 1
  40   23   43 1
  41   24   25 1
  42   24   44 1
  43   24   45 1
  44   25   26 1
  45   25   27 1
  46   26   46 1
  47   26   47 1
  48   26   48 1
  49   27   49 1
  50   27   50 1
  51   27   51 1
  52   28   29 1
  53   28   30 1
  54   28   31 1

#	End of record

