#	Name: ASD03092987
#	Creating user name:	WinNT
#	Creation time:	15. 06. 2019 20:33

#	Modifying user name:	WinNT
#	Modification time:	15. 06. 2019 20:33

#	Program:	/corina/corina34_cracker 3.40 0067  02.08.2006

@<TRIPOS>MOLECULE
ASD03092987
  42   45    0    0    0
SMALL
NO_CHARGES


@<TRIPOS>ATOM
   1 C1            -0.0187     1.5258     0.0104 C.3     
   2 C2             0.0021    -0.0041     0.0020 C.3     
   3 C3            -1.2387    -0.6776    -0.5878 C.3     
   4 C4             1.3513    -0.6911    -0.2180 C.3     
   5 H5             2.2242    -0.0532    -0.3568 H       
   6 C6             0.7014    -0.7075     1.1670 C.3     
   7 H7             0.2777    -1.6503     1.5129 H       
   8 C8             1.3170     0.1595     2.2348 C.ar    
   9 C9             2.3070     1.0656     1.9038 C.ar    
  10 C10            2.8717     1.8609     2.8833 C.ar    
  11 C11            2.4460     1.7504     4.1939 C.ar    
  12 C12            1.4554     0.8449     4.5248 C.ar    
  13 C13            0.8877     0.0526     3.5445 C.ar    
  14 S14            3.1666     2.7633     5.4426 S.o2    
  15 N15            2.2682     4.1518     5.5265 N.am    
  16 O16            2.9695     2.0828     6.6745 O.2     
  17 O17            4.4484     3.1432     4.9610 O.2     
  18 C18            1.3569    -1.9794    -0.9999 C.2     
  19 N19            0.7169    -3.0322    -0.6565 N.2     
  20 C20            0.8125    -4.1145    -1.4529 C.ar    
  21 C21            0.2218    -5.3866    -1.3165 C.ar    
  22 C22            0.4491    -6.3566    -2.2452 C.ar    
  23 C23            1.2651    -6.1121    -3.3428 C.ar    
  24 F24            1.4801    -7.0854    -4.2548 F       
  25 C25            1.8552    -4.8760    -3.5018 C.ar    
  26 C26            1.6335    -3.8736    -2.5603 C.ar    
  27 S27            2.2120    -2.2137    -2.4579 S.3     
  28 H28            1.0039     1.9031     0.0027 H       
  29 H29           -0.5459     1.8868    -0.8726 H       
  30 H30           -0.5289     1.8773     0.9072 H       
  31 H31           -1.6281    -0.0702    -1.4047 H       
  32 H32           -0.9716    -1.6650    -0.9644 H       
  33 H33           -2.0001    -0.7775     0.1857 H       
  34 H34            2.6396     1.1520     0.8799 H       
  35 H35            3.6457     2.5684     2.6248 H       
  36 H36            1.1230     0.7583     5.5487 H       
  37 H37            0.1110    -0.6522     3.8024 H       
  38 H38            2.1903     4.6291     6.3673 H       
  39 H39            1.8198     4.4879     4.7347 H       
  40 H40           -0.4153    -5.5940    -0.4694 H       
  41 H41           -0.0100    -7.3271    -2.1269 H       
  42 H42            2.4890    -4.6854    -4.3553 H       
@<TRIPOS>BOND
   1    1    2 1
   2    1   28 1
   3    1   29 1
   4    1   30 1
   5    2    6 1
   6    2    3 1
   7    2    4 1
   8    3   31 1
   9    3   32 1
  10    3   33 1
  11    4    5 1
  12    4    6 1
  13    4   18 1
  14    6    7 1
  15    6    8 1
  16    8   13 ar
  17    8    9 ar
  18    9   10 ar
  19    9   34 1
  20   10   11 ar
  21   10   35 1
  22   11   12 ar
  23   11   14 1
  24   12   13 ar
  25   12   36 1
  26   13   37 1
  27   14   15 am
  28   14   16 2
  29   14   17 2
  30   15   38 1
  31   15   39 1
  32   18   27 1
  33   18   19 2
  34   19   20 1
  35   20   26 ar
  36   20   21 ar
  37   21   22 ar
  38   21   40 1
  39   22   23 ar
  40   22   41 1
  41   23   24 1
  42   23   25 ar
  43   25   26 ar
  44   25   42 1
  45   26   27 1

#	End of record

