#	Name: ASD01028703
#	Creating user name:	WinNT
#	Creation time:	15. 06. 2019 18:58

#	Modifying user name:	WinNT
#	Modification time:	15. 06. 2019 18:58

#	Program:	/corina/corina34_cracker 3.40 0067  02.08.2006

@<TRIPOS>MOLECULE
ASD01028703
  40   44    0    0    0
SMALL
NO_CHARGES


@<TRIPOS>ATOM
   1 C1            -0.0164     1.3616     0.0095 C.ar    
   2 C2             0.0021    -0.0041     0.0020 C.ar    
   3 C3             1.2188    -0.6828    -0.0133 C.ar    
   4 N4             2.3642    -0.0454    -0.0208 N.ar    
   5 C5             2.4161     1.2904    -0.0140 C.ar    
   6 C6             3.6475     1.9688    -0.0216 C.ar    
   7 C7             3.6689     3.3294    -0.0140 C.ar    
   8 C8             2.4867     4.0671     0.0011 C.ar    
   9 C9             1.2756     3.4455     0.0088 C.ar    
  10 C10            1.2155     2.0425     0.0014 C.ar    
  11 C11            4.9924     4.0500    -0.0217 C.3     
  12 C12            6.5844     4.8826     3.2473 C.ar    
  13 C13            6.6751     4.9467     1.8404 C.ar    
  14 C14            7.7724     5.5504     1.2420 C.ar    
  15 C15            8.7586     6.0786     2.0767 C.ar    
  16 C16            8.6006     5.9780     3.4617 C.ar    
  17 N17            7.5463     5.3984     3.9942 N.ar    
  18 O18            5.4216     4.2529     3.4950 O.3     
  19 N19            4.8276     3.9436     2.4888 N.2     
  20 C20            5.4462     4.2822     1.3965 C.2     
  21 C21            9.9574     6.7367     1.5021 C.ar    
  22 F22            5.9423     3.2736    -0.6940 F       
  23 F23            4.8499     5.2799    -0.6730 F       
  24 N24           10.0925     6.8236     0.1853 N.ar    
  25 C25           11.1420     7.4002    -0.3648 C.ar    
  26 C26           12.1469     7.9387     0.4167 C.ar    
  27 C27           12.0453     7.8694     1.7992 C.ar    
  28 C28           10.9296     7.2637     2.3500 C.ar    
  29 H29           -0.9504     1.9039     0.0169 H       
  30 H30           -0.9255    -0.5573     0.0083 H       
  31 H31            1.2182    -1.7628    -0.0187 H       
  32 H32            4.5730     1.4122    -0.0329 H       
  33 H33            2.5320     5.1461     0.0071 H       
  34 H34            0.3662     4.0280     0.0205 H       
  35 H35            7.8603     5.6091     0.1671 H       
  36 H36            9.3621     6.3854     4.1103 H       
  37 H37           11.2180     7.4525    -1.4409 H       
  38 H38           13.0033     8.4085    -0.0441 H       
  39 H39           12.8175     8.2828     2.4310 H       
  40 H40           10.8181     7.1928     3.4219 H       
@<TRIPOS>BOND
   1    1    2 ar
   2    1   10 ar
   3    1   29 1
   4    2    3 ar
   5    2   30 1
   6    3    4 ar
   7    3   31 1
   8    4    5 ar
   9    5    6 ar
  10    5   10 ar
  11    6    7 ar
  12    6   32 1
  13    7    8 ar
  14    7   11 1
  15    8    9 ar
  16    8   33 1
  17    9   10 ar
  18    9   34 1
  19   11   22 1
  20   11   23 1
  21   11   20 1
  22   12   13 ar
  23   12   17 ar
  24   12   18 1
  25   13   14 ar
  26   13   20 1
  27   14   15 ar
  28   14   35 1
  29   15   16 ar
  30   15   21 1
  31   16   17 ar
  32   16   36 1
  33   18   19 1
  34   19   20 2
  35   21   24 ar
  36   21   28 ar
  37   24   25 ar
  38   25   26 ar
  39   25   37 1
  40   26   27 ar
  41   26   38 1
  42   27   28 ar
  43   27   39 1
  44   28   40 1

#	End of record

