#	Name: ASD00960153
#	Creating user name:	WinNT
#	Creation time:	15. 06. 2019 18:53

#	Modifying user name:	WinNT
#	Modification time:	15. 06. 2019 18:53

#	Program:	/corina/corina34_cracker 3.40 0067  02.08.2006

@<TRIPOS>MOLECULE
ASD00960153
  42   45    0    0    0
SMALL
NO_CHARGES


@<TRIPOS>ATOM
   1 C1            -0.2152     0.5123    -0.5071 C.3     
   2 C2            -0.5536     1.3676     0.7340 C.3     
   3 O3            -1.8461     1.9432     0.4442 O.3     
   4 C4            -1.7934     2.3141    -0.9506 C.3     
   5 C5            -3.2073     2.4540    -1.5183 C.3     
   6 C6            -0.6295     0.5002     1.9640 C.2     
   7 C7             0.4258     0.1357     2.7297 C.2     
   8 N8            -1.7648    -0.0306     2.4778 N.pl3   
   9 C9            -1.4438    -0.7616     3.6003 C.2     
  10 C10           -0.0612    -0.6707     3.7794 C.2     
  11 N11           -3.1109     0.0331     2.0890 N.2     
  12 C12           -4.0224    -0.5906     2.7852 C.2     
  13 N13           -3.7243    -1.2996     3.8711 N.2     
  14 C14           -2.4786    -1.4101     4.3050 C.2     
  15 N15           -2.1957    -2.1526     5.4348 N.pl3   
  16 C16           -1.0470     1.1482    -1.6433 C.3     
  17 O17           -0.1935     1.6438    -2.6767 O.3     
  18 C18           -0.6338    -0.9426    -0.2859 C.3     
  19 O19           -3.8622     3.5621    -0.8977 O.3     
  20 O20            1.1804     0.5909    -0.8040 O.3     
  21 C21            0.7314    -1.2944     4.8524 C.2     
  22 O22            0.6642    -2.5832     5.2318 O.3     
  23 C23            1.5427    -2.7599     6.2407 C.2     
  24 C24            2.1371    -1.5755     6.4661 C.2     
  25 N25            1.6283    -0.6867     5.5975 N.2     
  26 H26            0.1902     2.1530     0.8679 H       
  27 H27           -1.2397     3.2447    -1.0751 H       
  28 H28           -3.1520     2.6207    -2.5941 H       
  29 H29           -3.7702     1.5419    -1.3204 H       
  30 H30            1.4566     0.4130     2.5659 H       
  31 H31           -5.0533    -0.5287     2.4693 H       
  32 H32           -2.8891    -2.6909     5.8476 H       
  33 H33           -1.3037    -2.1357     5.8154 H       
  34 H34           -1.7571     0.4262    -2.0467 H       
  35 H35           -0.6614     2.1071    -3.3849 H       
  36 H36           -0.0789    -1.3563     0.5562 H       
  37 H37           -1.7020    -0.9851    -0.0732 H       
  38 H38           -0.4186    -1.5230    -1.1831 H       
  39 H39           -4.7652     3.7106    -1.2102 H       
  40 H40            1.4434     0.0956    -1.5917 H       
  41 H41            1.7327    -3.6821     6.7696 H       
  42 H42            2.8932    -1.3753     7.2109 H       
@<TRIPOS>BOND
   1    1   18 1
   2    1   20 1
   3    1    2 1
   4    1   16 1
   5    2    3 1
   6    2    6 1
   7    2   26 1
   8    3    4 1
   9    4   16 1
  10    4    5 1
  11    4   27 1
  12    5   19 1
  13    5   28 1
  14    5   29 1
  15    6    7 2
  16    6    8 1
  17    7   10 1
  18    7   30 1
  19    8    9 1
  20    8   11 1
  21    9   10 2
  22    9   14 1
  23   10   21 1
  24   11   12 2
  25   12   13 1
  26   12   31 1
  27   13   14 2
  28   14   15 1
  29   15   32 1
  30   15   33 1
  31   16   17 1
  32   16   34 1
  33   17   35 1
  34   18   36 1
  35   18   37 1
  36   18   38 1
  37   19   39 1
  38   20   40 1
  39   21   22 1
  40   21   25 2
  41   22   23 1
  42   23   24 2
  43   23   41 1
  44   24   25 1
  45   24   42 1

#	End of record

