#	Name: ASD03910066
#	Creating user name:	WinNT
#	Creation time:	15. 06. 2019 20:47

#	Modifying user name:	WinNT
#	Modification time:	15. 06. 2019 20:47

#	Program:	/corina/corina34_cracker 3.40 0067  02.08.2006

@<TRIPOS>MOLECULE
ASD03910066
  68   70    0    0    0
SMALL
NO_CHARGES


@<TRIPOS>ATOM
   1 C1             1.2182     1.7377     0.7389 C.ar    
   2 C2             1.4783     0.5998     1.4804 C.ar    
   3 C3             0.4472    -0.0616     2.1219 C.ar    
   4 C4            -0.8463     0.4124     2.0234 C.ar    
   5 C5            -1.1108     1.5548     1.2794 C.ar    
   6 C6            -0.0722     2.2203     0.6414 C.ar    
   7 N7            -2.4201     2.0376     1.1776 N.am    
   8 C8            -2.6452     3.3643     1.1019 C.2     
   9 O9            -1.7224     4.1433     1.2143 O.2     
  10 C10           -4.0224     5.3860     0.8327 C.ar    
  11 C11           -3.8366     6.0380    -0.3723 C.ar    
  12 C12           -3.8226     7.4187    -0.4169 C.ar    
  13 C13           -3.9951     8.1510     0.7487 C.ar    
  14 C14           -4.1813     7.4944     1.9565 C.ar    
  15 C15           -4.1945     6.1135     1.9958 C.ar    
  16 O16           -3.9812     9.5093     0.7074 O.3     
  17 C17           -4.2071    10.1981     1.9390 C.3     
  18 C18           -5.5760     9.8640     2.4733 C.2     
  19 C19            2.3449     2.4554     0.0414 C.3     
  20 C20            0.7351    -1.3013     2.9290 C.3     
  21 O21           -5.7476     9.7423     3.6677 O.2     
  22 N22           -6.6095     9.7005     1.6239 N.am    
  23 C23           -4.0434     3.8798     0.8776 C.3     
  24 C24           -7.9157     9.2751     2.1329 C.3     
  25 C25           -7.9497     7.7719     2.2353 C.2     
  26 O26           -6.9821     7.1226     1.9158 O.2     
  27 O27           -9.0549     7.1544     2.6813 O.3     
  28 C28           -9.0136     9.7461     1.1770 C.3     
  29 C29           -3.1304     9.8074     2.9665 C.3     
  30 C30           -2.3861    11.1060     3.3402 C.3     
  31 C31           -3.4010    12.2312     3.0194 C.3     
  32 C32           -4.0808    11.7204     1.7239 C.3     
  33 C33           -9.0602    11.2524     1.1687 C.2     
  34 O34           -9.9530    11.8920     0.3970 O.3     
  35 O35           -8.2940    11.8843     1.8568 O.2     
  36 C36           -9.0163     5.7048     2.7536 C.3     
  37 H37            2.4888     0.2268     1.5584 H       
  38 H38           -1.6513    -0.1050     2.5241 H       
  39 H39           -0.2746     3.1092     0.0624 H       
  40 H40           -3.1659     1.4175     1.1615 H       
  41 H41           -3.7020     5.4675    -1.2794 H       
  42 H42           -3.6771     7.9275    -1.3584 H       
  43 H43           -4.3154     8.0622     2.8653 H       
  44 H44           -4.3394     5.6019     2.9358 H       
  45 H45            2.4678     2.0496    -0.9628 H       
  46 H46            2.1141     3.5188    -0.0222 H       
  47 H47            3.2678     2.3169     0.6046 H       
  48 H48            0.9533    -1.0213     3.9596 H       
  49 H49           -0.1339    -1.9589     2.9074 H       
  50 H50            1.5942    -1.8202     2.5038 H       
  51 H51           -6.4885     9.8644     0.6755 H       
  52 H52           -4.4259     3.4935    -0.0672 H       
  53 H53           -4.6875     3.5495     1.6925 H       
  54 H54           -8.0809     9.7102     3.1185 H       
  55 H55           -8.7999     9.3837     0.1715 H       
  56 H56           -9.9757     9.3546     1.5075 H       
  57 H57           -3.5980     9.3770     3.8520 H       
  58 H58           -2.4356     9.0925     2.5258 H       
  59 H59           -2.1349    11.1099     4.4009 H       
  60 H60           -1.4873    11.2186     2.7339 H       
  61 H61           -4.1303    12.3342     3.8228 H       
  62 H62           -2.8868    13.1754     2.8395 H       
  63 H63           -3.4559    11.9320     0.8562 H       
  64 H64           -5.0653    12.1731     1.6057 H       
  65 H65           -9.9449    12.8585     0.4251 H       
  66 H66           -8.2164     5.3957     3.4265 H       
  67 H67           -9.9703     5.3342     3.1289 H       
  68 H68           -8.8334     5.2961     1.7598 H       
@<TRIPOS>BOND
   1    1    2 ar
   2    1   19 1
   3    1    6 ar
   4    2    3 ar
   5    2   37 1
   6    3    4 ar
   7    3   20 1
   8    4    5 ar
   9    4   38 1
  10    5    6 ar
  11    5    7 1
  12    6   39 1
  13    7    8 am
  14    7   40 1
  15    8    9 2
  16    8   23 1
  17   10   11 ar
  18   10   15 ar
  19   10   23 1
  20   11   12 ar
  21   11   41 1
  22   12   13 ar
  23   12   42 1
  24   13   14 ar
  25   13   16 1
  26   14   15 ar
  27   14   43 1
  28   15   44 1
  29   16   17 1
  30   17   18 1
  31   17   29 1
  32   17   32 1
  33   18   21 2
  34   18   22 am
  35   19   45 1
  36   19   46 1
  37   19   47 1
  38   20   48 1
  39   20   49 1
  40   20   50 1
  41   22   24 1
  42   22   51 1
  43   23   52 1
  44   23   53 1
  45   24   25 1
  46   24   28 1
  47   24   54 1
  48   25   26 2
  49   25   27 1
  50   27   36 1
  51   28   33 1
  52   28   55 1
  53   28   56 1
  54   29   30 1
  55   29   57 1
  56   29   58 1
  57   30   31 1
  58   30   59 1
  59   30   60 1
  60   31   32 1
  61   31   61 1
  62   31   62 1
  63   32   63 1
  64   32   64 1
  65   33   34 1
  66   33   35 2
  67   34   65 1
  68   36   66 1
  69   36   67 1
  70   36   68 1

#	End of record

