#	Name: ASD04590589
#	Creating user name:	WinNT
#	Creation time:	15. 06. 2019 20:51

#	Modifying user name:	WinNT
#	Modification time:	15. 06. 2019 20:51

#	Program:	/corina/corina34_cracker 3.40 0067  02.08.2006

@<TRIPOS>MOLECULE
ASD04590589
  69   74    0    0    0
SMALL
NO_CHARGES


@<TRIPOS>ATOM
   1 C1            -1.7441     5.5618    -5.0414 C.2     
   2 C2            -1.3858     5.4132    -6.4976 C.3     
   3 O3            -2.8728     5.3402    -4.6713 O.2     
   4 O4            -0.8081     5.9349    -4.1546 O.3     
   5 C5            -1.2245     6.0578    -2.7691 C.3     
   6 C6            -0.0489     6.4824    -1.9271 C.2     
   7 O7             1.0332     6.6635    -2.4439 O.2     
   8 N8            -1.0803     9.4359     2.2691 N.ar    
   9 C9            -2.2788     9.5680     2.8064 C.ar    
  10 C10           -3.3038     8.6898     2.4696 C.ar    
  11 C11           -3.0407     7.6770     1.5682 C.ar    
  12 C12           -1.7615     7.5723     1.0259 C.ar    
  13 C13           -1.4955     6.4500     0.0561 C.3     
  14 N14           -0.2002     6.6608    -0.5997 N.am    
  15 C15            0.9279     7.0746     0.2510 C.3     
  16 C16            0.6020     8.4509     0.8284 C.3     
  17 C17           -0.7949     8.4785     1.3934 C.ar    
  18 N18           -2.5186    10.5931     3.7171 N.pl3   
  19 C19           -1.4761    11.4014     4.1406 C.ar    
  20 N20           -1.7462    12.4345     4.9219 N.ar    
  21 C21           -0.7726    13.2332     5.3488 C.ar    
  22 C22            0.5498    12.9528     4.9497 C.ar    
  23 C23            0.7847    11.8555     4.1272 C.ar    
  24 N24           -0.2414    11.1092     3.7529 N.ar    
  25 N25           -0.7572    14.3500     6.1473 N.pl3   
  26 C26            1.3968    13.9841     5.5623 C.ar    
  27 C27            0.5356    14.8229     6.2927 C.ar    
  28 C28            1.0840    15.8969     6.9807 C.ar    
  29 C29            2.7623    14.2647     5.5585 C.ar    
  30 C30            3.2175    15.3542     6.2711 C.ar    
  31 N31            2.3819    16.1220     6.9477 N.ar    
  32 C32           -1.9424    14.9562     6.7589 C.3     
  33 C33           -2.9207    15.3823     5.6624 C.3     
  34 C34           -4.1585    16.0154     6.3012 C.3     
  35 C35           -4.8352    14.9970     7.2209 C.3     
  36 C36           -3.8569    14.5708     8.3173 C.3     
  37 C37           -2.6191    13.9377     7.6785 C.3     
  38 C38           -6.0730    15.6300     7.8596 C.3     
  39 H39           -2.2668     5.1012    -7.0586 H       
  40 H40           -1.0289     6.3682    -6.8833 H       
  41 H41           -0.6026     4.6627    -6.6043 H       
  42 H42           -2.0150     6.8043    -2.6921 H       
  43 H43           -1.5968     5.0965    -2.4149 H       
  44 H44           -4.2864     8.7978     2.9048 H       
  45 H45           -3.8141     6.9770     1.2884 H       
  46 H46           -1.4794     5.5020     0.5938 H       
  47 H47           -2.2838     6.4262    -0.6964 H       
  48 H48            1.0614     6.3573     1.0608 H       
  49 H49            1.8382     7.1314    -0.3458 H       
  50 H50            1.3136     8.6853     1.6201 H       
  51 H51            0.6847     9.1991     0.0401 H       
  52 H52           -3.4156    10.7416     4.0552 H       
  53 H53            1.7868    11.6147     3.8045 H       
  54 H54            0.4411    16.5540     7.5476 H       
  55 H55            3.4507    13.6405     5.0083 H       
  56 H56            4.2730    15.5829     6.2766 H       
  57 H57           -1.6451    15.8292     7.3399 H       
  58 H58           -2.4386    16.1079     5.0073 H       
  59 H59           -3.2180    14.5093     5.0814 H       
  60 H60           -3.8612    16.8884     6.8823 H       
  61 H61           -4.8554    16.3190     5.5201 H       
  62 H62           -5.1325    14.1240     6.6398 H       
  63 H63           -3.5596    15.4438     8.8984 H       
  64 H64           -4.3390    13.8453     8.9725 H       
  65 H65           -2.9164    13.0647     7.0975 H       
  66 H66           -1.9222    13.6341     8.4597 H       
  67 H67           -6.7699    15.9336     7.0785 H       
  68 H68           -6.5551    14.9045     8.5148 H       
  69 H69           -5.7757    16.5030     8.4407 H       
@<TRIPOS>BOND
   1    1    2 1
   2    1    3 2
   3    1    4 1
   4    2   39 1
   5    2   40 1
   6    2   41 1
   7    4    5 1
   8    5    6 1
   9    5   42 1
  10    5   43 1
  11    6    7 2
  12    6   14 am
  13    8    9 ar
  14    8   17 ar
  15    9   10 ar
  16    9   18 1
  17   10   11 ar
  18   10   44 1
  19   11   12 ar
  20   11   45 1
  21   12   13 1
  22   12   17 ar
  23   13   14 1
  24   13   46 1
  25   13   47 1
  26   14   15 1
  27   15   16 1
  28   15   48 1
  29   15   49 1
  30   16   17 1
  31   16   50 1
  32   16   51 1
  33   18   19 1
  34   18   52 1
  35   19   20 ar
  36   19   24 ar
  37   20   21 ar
  38   21   22 ar
  39   21   25 1
  40   22   23 ar
  41   22   26 1
  42   23   24 ar
  43   23   53 1
  44   25   27 1
  45   25   32 1
  46   26   27 ar
  47   26   29 ar
  48   27   28 ar
  49   28   31 ar
  50   28   54 1
  51   29   30 ar
  52   29   55 1
  53   30   31 ar
  54   30   56 1
  55   32   33 1
  56   32   37 1
  57   32   57 1
  58   33   34 1
  59   33   58 1
  60   33   59 1
  61   34   35 1
  62   34   60 1
  63   34   61 1
  64   35   36 1
  65   35   38 1
  66   35   62 1
  67   36   37 1
  68   36   63 1
  69   36   64 1
  70   37   65 1
  71   37   66 1
  72   38   67 1
  73   38   68 1
  74   38   69 1

#	End of record

