#	Name: ASD08070115
#	Creating user name:	WinNT
#	Creation time:	15. 06. 2019 21:14

#	Modifying user name:	WinNT
#	Modification time:	15. 06. 2019 21:14

#	Program:	/corina/corina34_cracker 3.40 0067  02.08.2006

@<TRIPOS>MOLECULE
ASD08070115
  37   38    0    0    0
SMALL
NO_CHARGES


@<TRIPOS>ATOM
   1 N1            -0.0162     1.3436     0.0094 N.am    
   2 C2            -0.1397     0.0017     0.0372 C.2     
   3 N3            -1.3588    -0.5605     0.1554 N.am    
   4 C4            -1.4931    -2.0190     0.1855 C.3     
   5 C5            -2.7614    -2.3919     0.9089 C.ar    
   6 C6            -2.7735    -3.4729     1.7704 C.ar    
   7 C7            -3.9369    -3.8150     2.4340 C.ar    
   8 C8             1.2557     1.9299     0.0088 C.ar    
   9 C9             1.4748     3.1170    -0.6799 C.ar    
  10 C10            2.7307     3.6932    -0.6782 C.ar    
  11 O11            0.8488    -0.7016    -0.0445 O.2     
  12 C12            2.2984     1.3295     0.7008 C.ar    
  13 C13            3.5521     1.9101     0.6991 C.ar    
  14 C14            3.7694     3.0890     0.0085 C.ar    
  15 Cl15           0.1722     3.8747    -1.5418 Cl      
  16 C16           -1.5458    -2.5560    -1.2462 C.3     
  17 C17           -0.2097    -2.2868    -1.9414 C.3     
  18 C18           -5.0882    -3.0758     2.2363 C.ar    
  19 C19           -5.0759    -1.9943     1.3754 C.ar    
  20 C20           -3.9113    -1.6496     0.7152 C.ar    
  21 Cl21           5.3463     3.8151     0.0084 Cl      
  22 H22           -0.8082     1.9031    -0.0141 H       
  23 H23           -2.1474     0.0006     0.2205 H       
  24 H24           -0.6380    -2.4519     0.7047 H       
  25 H25           -1.8740    -4.0504     1.9249 H       
  26 H26           -3.9465    -4.6599     3.1065 H       
  27 H27            2.9020     4.6155    -1.2134 H       
  28 H28            2.1297     0.4094     1.2405 H       
  29 H29            4.3635     1.4430     1.2375 H       
  30 H30           -1.7345    -3.6294    -1.2249 H       
  31 H31           -2.3464    -2.0571    -1.7921 H       
  32 H32           -0.0210    -1.2135    -1.9626 H       
  33 H33            0.5910    -2.7857    -1.3954 H       
  34 H34           -0.2472    -2.6694    -2.9613 H       
  35 H35           -5.9974    -3.3435     2.7541 H       
  36 H36           -5.9755    -1.4170     1.2207 H       
  37 H37           -3.9017    -0.8046     0.0426 H       
@<TRIPOS>BOND
   1    1    2 am
   2    1    8 1
   3    1   22 1
   4    2    3 am
   5    2   11 2
   6    3    4 1
   7    3   23 1
   8    4    5 1
   9    4   16 1
  10    4   24 1
  11    5    6 ar
  12    5   20 ar
  13    6    7 ar
  14    6   25 1
  15    7   18 ar
  16    7   26 1
  17    8    9 ar
  18    8   12 ar
  19    9   10 ar
  20    9   15 1
  21   10   14 ar
  22   10   27 1
  23   12   13 ar
  24   12   28 1
  25   13   14 ar
  26   13   29 1
  27   14   21 1
  28   16   17 1
  29   16   30 1
  30   16   31 1
  31   17   32 1
  32   17   33 1
  33   17   34 1
  34   18   19 ar
  35   18   35 1
  36   19   20 ar
  37   19   36 1
  38   20   37 1

#	End of record

