#	Name: ASD02408134
#	Creating user name:	WinNT
#	Creation time:	15. 06. 2019 20:21

#	Modifying user name:	WinNT
#	Modification time:	15. 06. 2019 20:21

#	Program:	/corina/corina34_cracker 3.40 0067  02.08.2006

@<TRIPOS>MOLECULE
ASD02408134
  46   49    0    0    0
SMALL
NO_CHARGES


@<TRIPOS>ATOM
   1 C1            -1.0518     1.7005     0.3259 C.ar    
   2 C2            -1.2977     0.3391     0.3429 C.ar    
   3 C3             0.2289     2.1689     0.0932 C.ar    
   4 C4             1.2630     1.2757    -0.1222 C.ar    
   5 C5             1.0158    -0.0855    -0.1050 C.ar    
   6 C6            -0.2640    -0.5529     0.1275 C.ar    
   7 C7             0.4973     3.6517     0.0741 C.3     
   8 C8             0.8512     4.1162     1.4634 C.2     
   9 N9             1.1290     5.4190     1.6634 N.am    
  10 N10            0.8732     3.2435     2.4339 N.2     
  11 C11            1.1801     3.5989     3.6880 C.2     
  12 C12            1.4857     4.9413     3.9666 C.2     
  13 C13            1.4493     5.8697     2.8945 C.2     
  14 N14            1.1956     2.6610     4.6911 N.pl3   
  15 C15            0.6679     2.9819     6.0243 C.3     
  16 O16            1.7057     7.0467     3.0803 O.2     
  17 Cl17          -2.3515     2.8208     0.5893 Cl      
  18 C18           -0.3769     1.9291     6.4076 C.3     
  19 C19            0.2423     0.5350     6.2913 C.3     
  20 C20            0.6848     0.2801     4.8491 C.3     
  21 C21            1.7346     1.3156     4.4498 C.3     
  22 Cl22           2.8703     1.8626    -0.4148 Cl      
  23 O23            1.3725     0.4351     7.1666 O.3     
  24 C24            1.1038    -0.6379     8.0919 C.3     
  25 C25            0.0332    -1.4786     7.3525 C.3     
  26 O26           -0.7296    -0.4522     6.6735 O.3     
  27 C27            1.8189     5.3613     5.2944 C.1     
  28 N28            2.0832     5.6945     6.3478 N.1     
  29 H29           -2.2974    -0.0268     0.5249 H       
  30 H30            1.8230    -0.7829    -0.2735 H       
  31 H31           -0.4564    -1.6156     0.1413 H       
  32 H32            1.3263     3.8622    -0.6016 H       
  33 H33           -0.3936     4.1778    -0.2690 H       
  34 H34            1.0988     6.0378     0.9170 H       
  35 H35            1.4803     2.9719     6.7509 H       
  36 H36            0.2035     3.9678     6.0058 H       
  37 H37           -0.7035     2.0976     7.4338 H       
  38 H38           -1.2324     2.0043     5.7363 H       
  39 H39            1.1106    -0.7202     4.7707 H       
  40 H40           -0.1753     0.3629     4.1847 H       
  41 H41            1.9768     1.2017     3.3932 H       
  42 H42            2.6335     1.1749     5.0501 H       
  43 H43            2.0029    -1.2283     8.2686 H       
  44 H44            0.7075    -0.2478     9.0294 H       
  45 H45            0.4963    -2.1582     6.6371 H       
  46 H46           -0.5908    -2.0250     8.0598 H       
@<TRIPOS>BOND
   1    1    2 ar
   2    1    3 ar
   3    1   17 1
   4    2    6 ar
   5    2   29 1
   6    3    4 ar
   7    3    7 1
   8    4    5 ar
   9    4   22 1
  10    5    6 ar
  11    5   30 1
  12    6   31 1
  13    7    8 1
  14    7   32 1
  15    7   33 1
  16    8    9 1
  17    8   10 2
  18    9   13 am
  19    9   34 1
  20   10   11 1
  21   11   12 2
  22   11   14 1
  23   12   13 1
  24   12   27 1
  25   13   16 2
  26   14   15 1
  27   14   21 1
  28   15   18 1
  29   15   35 1
  30   15   36 1
  31   18   19 1
  32   18   37 1
  33   18   38 1
  34   19   20 1
  35   19   23 1
  36   19   26 1
  37   20   21 1
  38   20   39 1
  39   20   40 1
  40   21   41 1
  41   21   42 1
  42   23   24 1
  43   24   25 1
  44   24   43 1
  45   24   44 1
  46   25   26 1
  47   25   45 1
  48   25   46 1
  49   27   28 3

#	End of record

