#	Name: ASD06660068
#	Creating user name:	WinNT
#	Creation time:	15. 06. 2019 21:07

#	Modifying user name:	WinNT
#	Modification time:	15. 06. 2019 21:07

#	Program:	/corina/corina34_cracker 3.40 0067  02.08.2006

@<TRIPOS>MOLECULE
ASD06660068
  76   79    0    0    0
SMALL
NO_CHARGES


@<TRIPOS>ATOM
   1 C1             0.2627     1.9373     1.0525 C.2     
   2 C2             0.0327     0.5417     0.5326 C.3     
   3 C3            -1.1007     0.5607    -0.4951 C.3     
   4 O4             1.3397     2.4657     0.9087 O.2     
   5 O5            -0.7306     2.5955     1.6705 O.3     
   6 C6            -1.4197    -0.8504    -0.9172 C.ar    
   7 C7            -2.3422    -1.5924    -0.2026 C.ar    
   8 C8            -2.6369    -2.8858    -0.5867 C.ar    
   9 C9            -2.0054    -3.4412    -1.6923 C.ar    
  10 C10           -1.0792    -2.6931    -2.4079 C.ar    
  11 C11           -0.7934    -1.3983    -2.0217 C.ar    
  12 N12           -2.3007    -4.7492    -2.0833 N.3     
  13 C13           -1.5239    -5.1321    -3.2692 C.3     
  14 C14           -1.9771    -6.5110    -3.7542 C.3     
  15 C15           -1.7707    -7.5340    -2.6337 C.3     
  16 C16           -2.5513    -7.0867    -1.3947 C.3     
  17 C17           -2.0815    -5.6910    -0.9781 C.3     
  18 C18           -2.2784    -8.9029    -3.0912 C.3     
  19 N19           -1.9726    -9.9045    -2.0667 N.pl3   
  20 C20           -2.3327   -11.2046    -2.2563 C.2     
  21 N21           -2.9586   -11.5607    -3.3664 N.2     
  22 C22           -3.3142   -12.8141    -3.6110 C.2     
  23 C23           -2.9957   -13.9229    -2.6412 C.3     
  24 C24           -2.9024   -13.3335    -1.2270 C.3     
  25 N25           -2.0416   -12.1381    -1.3021 N.pl3   
  26 O26           -3.9097   -13.0743    -4.6382 O.2     
  27 C27            2.2801    -0.3909     0.6599 C.2     
  28 C28            3.5507    -0.8035     0.0249 C.ar    
  29 C29            3.7937    -2.1533    -0.2380 C.ar    
  30 C30            4.9765    -2.5377    -0.8291 C.ar    
  31 C31            5.9334    -1.5772    -1.1659 C.ar    
  32 C32            5.6901    -0.2274    -0.9030 C.ar    
  33 C33            4.5043     0.1571    -0.3168 C.ar    
  34 O34            2.1578    -0.4481     1.8678 O.2     
  35 N35            1.2581     0.0484    -0.1009 N.am    
  36 C36            4.2389     1.6144    -0.0390 C.3     
  37 C37            2.7617    -3.1894     0.1259 C.3     
  38 C38            1.7526    -3.3270    -1.0159 C.3     
  39 C39            7.1636    -1.9767    -1.7803 C.1     
  40 N40            8.1396    -2.2936    -2.2677 N.1     
  41 H41           -0.2381    -0.1143     1.3599 H       
  42 H42           -1.9860     1.0161    -0.0513 H       
  43 H43           -0.7920     1.1394    -1.3657 H       
  44 H44           -0.5355     3.4882     1.9869 H       
  45 H45           -2.8326    -1.1600     0.6571 H       
  46 H46           -3.3572    -3.4648    -0.0280 H       
  47 H47           -0.5864    -3.1220    -3.2679 H       
  48 H48           -0.0769    -0.8145    -2.5804 H       
  49 H49           -1.6829    -4.3987    -4.0598 H       
  50 H50           -0.4648    -5.1669    -3.0139 H       
  51 H51           -3.0329    -6.4735    -4.0227 H       
  52 H52           -1.3896    -6.8017    -4.6251 H       
  53 H53           -0.7100    -7.6001    -2.3917 H       
  54 H54           -3.6161    -7.0582    -1.6261 H       
  55 H55           -2.3741    -7.7886    -0.5799 H       
  56 H56           -1.0197    -5.7232    -0.7336 H       
  57 H57           -2.6454    -5.3637    -0.1047 H       
  58 H58           -3.3565    -8.8578    -3.2448 H       
  59 H59           -1.7894    -9.1780    -4.0257 H       
  60 H60           -1.5137    -9.6420    -1.2535 H       
  61 H61           -3.7855   -14.6735    -2.6725 H       
  62 H62           -2.0436   -14.3806    -2.9097 H       
  63 H63           -3.8962   -13.0565    -0.8753 H       
  64 H64           -2.4599   -14.0643    -0.5501 H       
  65 H65           -1.2960   -12.0164    -0.6937 H       
  66 H66            5.1646    -3.5816    -1.0321 H       
  67 H67            6.4298     0.5153    -1.1629 H       
  68 H68            1.3338     0.0380    -1.0679 H       
  69 H69            4.6062     1.8674     0.9555 H       
  70 H70            4.7517     2.2251    -0.7821 H       
  71 H71            3.1668     1.8045    -0.0897 H       
  72 H72            3.2527    -4.1479     0.2942 H       
  73 H73            2.2430    -2.8824     1.0341 H       
  74 H74            1.3338    -2.3484    -1.2506 H       
  75 H75            2.2532    -3.7287    -1.8969 H       
  76 H76            0.9518    -4.0019    -0.7138 H       
@<TRIPOS>BOND
   1    1    2 1
   2    1    4 2
   3    1    5 1
   4    2    3 1
   5    2   35 1
   6    2   41 1
   7    3    6 1
   8    3   42 1
   9    3   43 1
  10    5   44 1
  11    6    7 ar
  12    6   11 ar
  13    7    8 ar
  14    7   45 1
  15    8    9 ar
  16    8   46 1
  17    9   10 ar
  18    9   12 1
  19   10   11 ar
  20   10   47 1
  21   11   48 1
  22   12   13 1
  23   12   17 1
  24   13   14 1
  25   13   49 1
  26   13   50 1
  27   14   15 1
  28   14   51 1
  29   14   52 1
  30   15   16 1
  31   15   18 1
  32   15   53 1
  33   16   17 1
  34   16   54 1
  35   16   55 1
  36   17   56 1
  37   17   57 1
  38   18   19 1
  39   18   58 1
  40   18   59 1
  41   19   20 1
  42   19   60 1
  43   20   21 2
  44   20   25 1
  45   21   22 1
  46   22   23 1
  47   22   26 2
  48   23   24 1
  49   23   61 1
  50   23   62 1
  51   24   25 1
  52   24   63 1
  53   24   64 1
  54   25   65 1
  55   27   28 1
  56   27   34 2
  57   27   35 am
  58   28   29 ar
  59   28   33 ar
  60   29   30 ar
  61   29   37 1
  62   30   31 ar
  63   30   66 1
  64   31   32 ar
  65   31   39 1
  66   32   33 ar
  67   32   67 1
  68   33   36 1
  69   35   68 1
  70   36   69 1
  71   36   70 1
  72   36   71 1
  73   37   38 1
  74   37   72 1
  75   37   73 1
  76   38   74 1
  77   38   75 1
  78   38   76 1
  79   39   40 3

#	End of record

