#	Name: ASD01915163
#	Creating user name:	WinNT
#	Creation time:	15. 06. 2019 20:04

#	Modifying user name:	WinNT
#	Modification time:	15. 06. 2019 20:04

#	Program:	/corina/corina34_cracker 3.40 0067  02.08.2006

@<TRIPOS>MOLECULE
ASD01915163
  38   41    0    0    0
SMALL
NO_CHARGES


@<TRIPOS>ATOM
   1 C1             0.1084     1.5989     0.0318 C.ar    
   2 C2             0.1604     0.2160     0.0598 C.ar    
   3 C3            -1.0074    -0.5241     0.1013 C.ar    
   4 C4            -2.2314     0.1132     0.1146 C.ar    
   5 C5            -2.2903     1.5051     0.0866 C.ar    
   6 C6            -1.1118     2.2467     0.0505 C.ar    
   7 C7            -3.6042     2.1953     0.1008 C.2     
   8 N8            -3.8093     3.5316     0.0771 N.2     
   9 C9            -5.1093     3.6885     0.1014 C.2     
  10 O10           -5.6525     2.4677     0.1385 O.3     
  11 N11           -4.7804     1.6248     0.1327 N.2     
  12 C12           -5.8531     4.9992     0.0905 C.3     
  13 C13           -6.7974     5.1659    -1.1138 C.3     
  14 N14           -7.7628     5.7306    -0.1509 N.am    
  15 C15           -7.1239     4.9979     0.9594 C.3     
  16 C16           -8.8081     6.5760    -0.2470 C.2     
  17 C17           -9.6557     6.8409     0.9351 C.ar    
  18 O18           -9.0538     7.1207    -1.3055 O.2     
  19 C19           -9.4653     6.1137     2.1108 C.ar    
  20 C20          -10.2591     6.3647     3.2112 C.ar    
  21 C21          -11.2429     7.3349     3.1519 C.ar    
  22 C22          -11.4385     8.0611     1.9877 C.ar    
  23 C23          -10.6458     7.8231     0.8813 C.ar    
  24 Cl24           1.5785     2.5207    -0.0197 Cl      
  25 F25          -12.4016     9.0071     1.9366 F       
  26 H26            1.1161    -0.2869     0.0488 H       
  27 H27           -0.9612    -1.6029     0.1230 H       
  28 H28           -3.1424    -0.4661     0.1463 H       
  29 H29           -1.1519     3.3257     0.0287 H       
  30 H30           -5.2037     5.8578     0.2611 H       
  31 H31           -6.4435     5.8840    -1.8535 H       
  32 H32           -7.1179     4.2220    -1.5548 H       
  33 H33           -7.5403     4.0047     1.1275 H       
  34 H34           -7.0306     5.5819     1.8750 H       
  35 H35           -8.6979     5.3553     2.1593 H       
  36 H36          -10.1121     5.8017     4.1211 H       
  37 H37          -11.8613     7.5273     4.0161 H       
  38 H38          -10.7982     8.3892    -0.0257 H       
@<TRIPOS>BOND
   1    1    2 ar
   2    1   24 1
   3    1    6 ar
   4    2    3 ar
   5    2   26 1
   6    3    4 ar
   7    3   27 1
   8    4    5 ar
   9    4   28 1
  10    5    6 ar
  11    5    7 1
  12    6   29 1
  13    7    8 1
  14    7   11 2
  15    8    9 2
  16    9   10 1
  17    9   12 1
  18   10   11 1
  19   12   13 1
  20   12   15 1
  21   12   30 1
  22   13   14 1
  23   13   31 1
  24   13   32 1
  25   14   15 1
  26   14   16 am
  27   15   33 1
  28   15   34 1
  29   16   17 1
  30   16   18 2
  31   17   19 ar
  32   17   23 ar
  33   19   20 ar
  34   19   35 1
  35   20   21 ar
  36   20   36 1
  37   21   22 ar
  38   21   37 1
  39   22   23 ar
  40   22   25 1
  41   23   38 1

#	End of record

