#	Name: ASD01917587
#	Creating user name:	WinNT
#	Creation time:	15. 06. 2019 20:09

#	Modifying user name:	WinNT
#	Modification time:	15. 06. 2019 20:09

#	Program:	/corina/corina34_cracker 3.40 0067  02.08.2006

@<TRIPOS>MOLECULE
ASD01917587
  49   52    0    0    0
SMALL
NO_CHARGES


@<TRIPOS>ATOM
   1 C1             0.4643     1.9762    -0.3628 C.ar    
   2 C2             0.7425     0.6281    -0.6270 C.ar    
   3 C3             2.0368     0.2149    -0.7296 C.ar    
   4 C4             3.0876     1.1157    -0.5750 C.ar    
   5 C5             2.8519     2.4315    -0.3172 C.ar    
   6 C6             1.5294     2.8943    -0.2052 C.ar    
   7 N7             1.2694     4.1826     0.0462 N.ar    
   8 C8             0.0398     4.6295     0.1530 C.ar    
   9 C9            -1.0589     3.7926     0.0121 C.ar    
  10 C10           -0.8667     2.4463    -0.2546 C.ar    
  11 N11           -1.9435     1.5864    -0.4067 N.3     
  12 C12           -1.9390     0.5472     0.6332 C.3     
  13 C13           -3.1739    -0.3418     0.4641 C.3     
  14 O14           -3.1796    -0.8954    -0.8545 O.3     
  15 C15           -3.1848     0.0888    -1.8921 C.3     
  16 C16           -1.9500     0.9821    -1.7470 C.3     
  17 S17           -2.6904     4.4403     0.1657 S.o2    
  18 O18           -3.3955     3.5526     1.0224 O.2     
  19 O19           -2.5474     5.8286     0.4327 O.2     
  20 C20           -3.4528     4.3142    -1.4178 C.ar    
  21 C21           -4.2617     3.2321    -1.7113 C.ar    
  22 C22           -4.8597     3.1331    -2.9535 C.ar    
  23 C23           -4.6494     4.1164    -3.9023 C.ar    
  24 C24           -3.8414     5.1986    -3.6086 C.ar    
  25 C25           -3.2467     5.2998    -2.3646 C.ar    
  26 C26           -3.6117     6.2702    -4.6430 C.3     
  27 C27           -5.3006     4.0080    -5.2570 C.3     
  28 H28           -0.0646    -0.0793    -0.7484 H       
  29 H29            2.2505    -0.8241    -0.9329 H       
  30 H30            4.1055     0.7649    -0.6605 H       
  31 H31            3.6779     3.1171    -0.1993 H       
  32 H32           -0.1217     5.6777     0.3567 H       
  33 H33           -1.0382    -0.0591     0.5379 H       
  34 H34           -1.9602     1.0165     1.6168 H       
  35 H35           -3.1452    -1.1479     1.1972 H       
  36 H36           -4.0744     0.2541     0.6126 H       
  37 H37           -3.1640    -0.4059    -2.8632 H       
  38 H38           -4.0857     0.6972    -1.8122 H       
  39 H39           -1.9793     1.7689    -2.5008 H       
  40 H40           -1.0494     0.3827    -1.8803 H       
  41 H41           -4.4261     2.4639    -0.9701 H       
  42 H42           -5.4911     2.2874    -3.1830 H       
  43 H43           -2.6184     6.1474    -2.1337 H       
  44 H44           -4.3734     7.0432    -4.5407 H       
  45 H45           -2.6254     6.7106    -4.4971 H       
  46 H46           -3.6702     5.8320    -5.6393 H       
  47 H47           -6.2749     4.4961    -5.2319 H       
  48 H48           -4.6706     4.4926    -6.0028 H       
  49 H49           -5.4274     2.9569    -5.5161 H       
@<TRIPOS>BOND
   1    1    2 ar
   2    1    6 ar
   3    1   10 ar
   4    2    3 ar
   5    2   28 1
   6    3    4 ar
   7    3   29 1
   8    4    5 ar
   9    4   30 1
  10    5    6 ar
  11    5   31 1
  12    6    7 ar
  13    7    8 ar
  14    8    9 ar
  15    8   32 1
  16    9   10 ar
  17    9   17 1
  18   10   11 1
  19   11   12 1
  20   11   16 1
  21   12   13 1
  22   12   33 1
  23   12   34 1
  24   13   14 1
  25   13   35 1
  26   13   36 1
  27   14   15 1
  28   15   16 1
  29   15   37 1
  30   15   38 1
  31   16   39 1
  32   16   40 1
  33   17   18 2
  34   17   19 2
  35   17   20 1
  36   20   21 ar
  37   20   25 ar
  38   21   22 ar
  39   21   41 1
  40   22   23 ar
  41   22   42 1
  42   23   24 ar
  43   23   27 1
  44   24   25 ar
  45   24   26 1
  46   25   43 1
  47   26   44 1
  48   26   45 1
  49   26   46 1
  50   27   47 1
  51   27   48 1
  52   27   49 1

#	End of record

