#	Name: ASD01370003
#	Creating user name:	WinNT
#	Creation time:	15. 06. 2019 19:16

#	Modifying user name:	WinNT
#	Modification time:	15. 06. 2019 19:16

#	Program:	/corina/corina34_cracker 3.40 0067  02.08.2006

@<TRIPOS>MOLECULE
ASD01370003
  17   17    0    0    0
SMALL
NO_CHARGES


@<TRIPOS>ATOM
   1 O1             0.0021    -0.0041     0.0020 O.2     
   2 C2            -0.0144     1.2112     0.0087 C.2     
   3 N3             1.0875     1.9700     0.0023 N.am    
   4 N4            -1.1427     1.9437     0.0176 N.am    
   5 C5            -0.7274     3.3571     0.0235 C.3     
   6 N6            -1.2052     4.0296     1.2341 N.am    
   7 C7            -2.2497     4.8787     1.1657 C.2     
   8 N8            -2.6892     5.4974     2.2795 N.am    
   9 O9            -2.7954     5.0864     0.0993 O.2     
  10 C10            0.7866     3.2836     0.0122 C.2     
  11 O11            1.5648     4.2131     0.0104 O.2     
  12 H12            1.9914     1.6181    -0.0078 H       
  13 H13           -2.0524     1.6069     0.0193 H       
  14 H14           -1.0930     3.8679    -0.8673 H       
  15 H15           -0.7698     3.8639     2.0849 H       
  16 H16           -2.2538     5.3316     3.1303 H       
  17 H17           -3.4409     6.1085     2.2303 H       
@<TRIPOS>BOND
   1    1    2 2
   2    2    3 am
   3    2    4 am
   4    3   10 am
   5    3   12 1
   6    4    5 1
   7    4   13 1
   8    5    6 1
   9    5   10 1
  10    5   14 1
  11    6    7 am
  12    6   15 1
  13    7    8 am
  14    7    9 2
  15    8   16 1
  16    8   17 1
  17   10   11 2

#	End of record

