#	Name: ASD04882544
#	Creating user name:	WinNT
#	Creation time:	15. 06. 2019 20:55

#	Modifying user name:	WinNT
#	Modification time:	15. 06. 2019 20:55

#	Program:	/corina/corina34_cracker 3.40 0067  02.08.2006

@<TRIPOS>MOLECULE
ASD04882544
  82   87    0    0    0
SMALL
NO_CHARGES


@<TRIPOS>ATOM
   1 C1             0.5398     1.6818     0.0970 C.ar    
   2 C2             0.4097     0.2912     0.0465 C.ar    
   3 C3            -0.8528    -0.2909     0.0398 C.ar    
   4 C4            -1.9794     0.5001     0.0823 C.ar    
   5 C5            -1.8563     1.8914     0.1329 C.ar    
   6 C6            -0.5882     2.4790     0.1455 C.ar    
   7 N7             1.5461    -0.5123     0.0025 N.3     
   8 C8             1.5941    -1.4196     1.1562 C.3     
   9 C9             1.6158    -1.2565    -1.2615 C.3     
  10 C10            2.9438    -2.0133    -1.3369 C.3     
  11 C11            3.0454    -2.9756    -0.1502 C.3     
  12 C12            2.9214    -2.1813     1.1529 C.3     
  13 C13           -3.0634     2.7385     0.1779 C.2     
  14 O14           -2.9554     3.9489     0.2219 O.2     
  15 N15           -4.2857     2.1709     0.1704 N.am    
  16 N16            1.8129     2.2671     0.1042 N.am    
  17 C17            4.3770    -3.6803    -0.1858 C.ar    
  18 C18            1.9928     3.4823     0.6586 C.2     
  19 C19            3.3452     4.0629     0.7389 C.2     
  20 C20            4.7107    -4.4729    -1.2678 C.ar    
  21 O21            1.0391     4.0999     1.0928 O.2     
  22 N22            4.4981     3.4907     0.2975 N.2     
  23 C23            5.4815     4.3041     0.5419 C.2     
  24 O24            5.0054     5.4066     1.1376 O.3     
  25 C25            3.6751     5.2748     1.2633 C.2     
  26 C26            6.9288     4.0482     0.2089 C.3     
  27 C27            7.6210     5.0326    -0.7360 C.3     
  28 C28            7.9642     5.0333     0.7550 C.3     
  29 C29            5.9323    -5.1194    -1.3004 C.ar    
  30 C30            6.8200    -4.9728    -0.2513 C.ar    
  31 C31            6.4866    -4.1792     0.8306 C.ar    
  32 C32            5.2671    -3.5294     0.8612 C.ar    
  33 C33            3.7427    -4.6328    -2.4117 C.3     
  34 O34            1.9920    -3.9384    -0.2246 O.3     
  35 C35           -5.4843     3.0121     0.2152 C.3     
  36 C36           -6.7308     2.1251     0.1960 C.3     
  37 C37           -7.9826     3.0037     0.2428 C.3     
  38 N38           -9.1762     2.1544     0.2244 N.am    
  39 C39           -9.8374     1.6292     1.4248 C.3     
  40 C40          -10.7370     0.4756     0.9285 C.3     
  41 C41          -10.9912     0.8840    -0.5411 C.3     
  42 C42           -9.8099     1.7608    -0.8938 C.2     
  43 O43           -9.4785     2.0591    -2.0217 O.2     
  44 H44           -0.9503    -1.3658     0.0008 H       
  45 H45           -2.9587     0.0449     0.0763 H       
  46 H46           -0.4900     3.5538     0.1848 H       
  47 H47            1.5092    -0.8417     2.0765 H       
  48 H48            0.7684    -2.1286     1.0952 H       
  49 H49            0.7900    -1.9662    -1.3111 H       
  50 H50            1.5466    -0.5601    -2.0972 H       
  51 H51            2.9885    -2.5779    -2.2682 H       
  52 H52            3.7699    -1.3031    -1.3013 H       
  53 H53            3.7472    -1.4737     1.2278 H       
  54 H54            2.9502    -2.8660     2.0006 H       
  55 H55           -4.3718     1.2053     0.1354 H       
  56 H56            2.5647     1.7977    -0.2899 H       
  57 H57            2.9969     5.9912     1.7027 H       
  58 H58            7.2176     2.9992     0.1426 H       
  59 H59            8.3654     4.6313    -1.4236 H       
  60 H60            7.0295     5.8652    -1.1167 H       
  61 H61            7.5986     5.8665     1.3552 H       
  62 H62            8.9345     4.6325     1.0483 H       
  63 H63            6.1928    -5.7394    -2.1456 H       
  64 H64            7.7740    -5.4784    -0.2765 H       
  65 H65            7.1802    -4.0649     1.6506 H       
  66 H66            5.0067    -2.9095     1.7064 H       
  67 H67            3.9819    -3.9119    -3.1936 H       
  68 H68            3.8187    -5.6432    -2.8135 H       
  69 H69            2.7273    -4.4589    -2.0555 H       
  70 H70            1.9952    -4.5814     0.4976 H       
  71 H71           -5.4762     3.6078     1.1280 H       
  72 H72           -5.4961     3.6741    -0.6507 H       
  73 H73           -6.7389     1.5294    -0.7168 H       
  74 H74           -6.7191     1.4631     1.0618 H       
  75 H75           -7.9745     3.5994     1.1555 H       
  76 H76           -7.9944     3.6657    -0.6231 H       
  77 H77           -9.0960     1.2528     2.1297 H       
  78 H78          -10.4431     2.4056     1.8921 H       
  79 H79          -10.2133    -0.4787     0.9832 H       
  80 H80          -11.6704     0.4395     1.4903 H       
  81 H81          -11.0207     0.0029    -1.1822 H       
  82 H82          -11.9194     1.4492    -0.6249 H       
@<TRIPOS>BOND
   1    1    2 ar
   2    1   16 1
   3    1    6 ar
   4    2    3 ar
   5    2    7 1
   6    3    4 ar
   7    3   44 1
   8    4    5 ar
   9    4   45 1
  10    5    6 ar
  11    5   13 1
  12    6   46 1
  13    7    8 1
  14    7    9 1
  15    8   12 1
  16    8   47 1
  17    8   48 1
  18    9   10 1
  19    9   49 1
  20    9   50 1
  21   10   11 1
  22   10   51 1
  23   10   52 1
  24   11   12 1
  25   11   17 1
  26   11   34 1
  27   12   53 1
  28   12   54 1
  29   13   14 2
  30   13   15 am
  31   15   35 1
  32   15   55 1
  33   16   18 am
  34   16   56 1
  35   17   20 ar
  36   17   32 ar
  37   18   19 1
  38   18   21 2
  39   19   22 1
  40   19   25 2
  41   20   29 ar
  42   20   33 1
  43   22   23 2
  44   23   24 1
  45   23   26 1
  46   24   25 1
  47   25   57 1
  48   26   27 1
  49   26   28 1
  50   26   58 1
  51   27   28 1
  52   27   59 1
  53   27   60 1
  54   28   61 1
  55   28   62 1
  56   29   30 ar
  57   29   63 1
  58   30   31 ar
  59   30   64 1
  60   31   32 ar
  61   31   65 1
  62   32   66 1
  63   33   67 1
  64   33   68 1
  65   33   69 1
  66   34   70 1
  67   35   36 1
  68   35   71 1
  69   35   72 1
  70   36   37 1
  71   36   73 1
  72   36   74 1
  73   37   38 1
  74   37   75 1
  75   37   76 1
  76   38   39 1
  77   38   42 am
  78   39   40 1
  79   39   77 1
  80   39   78 1
  81   40   41 1
  82   40   79 1
  83   40   80 1
  84   41   42 1
  85   41   81 1
  86   41   82 1
  87   42   43 2

#	End of record

