#	Name: ASD08150464
#	Creating user name:	WinNT
#	Creation time:	15. 06. 2019 21:16

#	Modifying user name:	WinNT
#	Modification time:	15. 06. 2019 21:16

#	Program:	/corina/corina34_cracker 3.40 0067  02.08.2006

@<TRIPOS>MOLECULE
ASD08150464
  46   49    0    0    0
SMALL
NO_CHARGES


@<TRIPOS>ATOM
   1 C1            -0.0157     1.3062     0.0092 C.ar    
   2 N2             0.0021    -0.0041     0.0020 N.ar    
   3 C3             1.1697    -0.6876    -0.0128 C.ar    
   4 C4             2.3559     0.0496    -0.0201 C.ar    
   5 C5             2.2830     1.4519    -0.0123 C.ar    
   6 N6             1.0893     2.0324     0.0026 N.ar    
   7 C7             1.3977    -2.0727    -0.0224 C.2     
   8 C8             2.6673    -2.4470    -0.0365 C.2     
   9 S9             3.7283    -1.0481    -0.0391 S.3     
  10 C10            3.1379    -3.8786    -0.0491 C.3     
  11 N11            3.2777    -4.3358    -1.4382 N.3     
  12 C12            3.9561    -5.6381    -1.4982 C.3     
  13 C13            4.0109    -6.1152    -2.9514 C.3     
  14 N14            4.7192    -5.1176    -3.7654 N.3     
  15 C15            4.0408    -3.8154    -3.7054 C.3     
  16 C16            3.9860    -3.3382    -2.2522 C.3     
  17 O17            5.2454     4.0945    -1.0656 O.3     
  18 C18            4.4199     4.4579     0.0443 C.3     
  19 C19            3.1192     3.6522    -0.0085 C.3     
  20 N20            3.4379     2.2170    -0.0187 N.3     
  21 C21            4.2868     1.8801    -1.1708 C.3     
  22 C22            5.5758     2.7036    -1.1063 C.3     
  23 C23            0.2684    -3.0705    -0.0165 C.3     
  24 Cl24          -1.5491     2.1200     0.0208 Cl      
  25 H25            4.1016    -3.9488     0.4552 H       
  26 H26            2.4107    -4.5046     0.4680 H       
  27 H27            4.9697    -5.5383    -1.1097 H       
  28 H28            3.4060    -6.3627    -0.8980 H       
  29 H29            4.5393    -7.0673    -3.0018 H       
  30 H30            2.9971    -6.2411    -3.3313 H       
  31 H31            5.6835    -5.0365    -3.4797 H       
  32 H32            4.5909    -3.0907    -4.3056 H       
  33 H33            3.0273    -3.9152    -4.0939 H       
  34 H34            3.4576    -2.3862    -2.2018 H       
  35 H35            4.9999    -3.2124    -1.8723 H       
  36 H36            4.9449     4.2411     0.9747 H       
  37 H37            4.1909     5.5224    -0.0056 H       
  38 H38            2.5117     3.8839     0.8663 H       
  39 H39            2.5684     3.9091    -0.9134 H       
  40 H40            4.5315     0.8183    -1.1443 H       
  41 H41            3.7546     2.1087    -2.0942 H       
  42 H42            6.1827     2.4993    -1.9883 H       
  43 H43            6.1343     2.4358    -0.2094 H       
  44 H44           -0.0138    -3.3059    -1.0427 H       
  45 H45            0.5903    -3.9805     0.4898 H       
  46 H46           -0.5882    -2.6467     0.5077 H       
@<TRIPOS>BOND
   1    1    2 ar
   2    1    6 ar
   3    1   24 1
   4    2    3 ar
   5    3    4 ar
   6    3    7 1
   7    4    5 ar
   8    4    9 1
   9    5    6 ar
  10    5   20 1
  11    7    8 2
  12    7   23 1
  13    8    9 1
  14    8   10 1
  15   10   11 1
  16   10   25 1
  17   10   26 1
  18   11   12 1
  19   11   16 1
  20   12   13 1
  21   12   27 1
  22   12   28 1
  23   13   14 1
  24   13   29 1
  25   13   30 1
  26   14   15 1
  27   14   31 1
  28   15   16 1
  29   15   32 1
  30   15   33 1
  31   16   34 1
  32   16   35 1
  33   17   18 1
  34   17   22 1
  35   18   19 1
  36   18   36 1
  37   18   37 1
  38   19   20 1
  39   19   38 1
  40   19   39 1
  41   20   21 1
  42   21   22 1
  43   21   40 1
  44   21   41 1
  45   22   42 1
  46   22   43 1
  47   23   44 1
  48   23   45 1
  49   23   46 1

#	End of record

