#	Name: ASD03090600
#	Creating user name:	WinNT
#	Creation time:	15. 06. 2019 20:29

#	Modifying user name:	WinNT
#	Modification time:	15. 06. 2019 20:29

#	Program:	/corina/corina34_cracker 3.40 0067  02.08.2006

@<TRIPOS>MOLECULE
ASD03090600
  29   30    0    0    0
SMALL
NO_CHARGES


@<TRIPOS>ATOM
   1 N1            -0.1196     1.5245    -0.3672 N.am    
   2 C2            -0.1085     0.1827    -0.2414 C.2     
   3 O3             0.9410    -0.4016    -0.0528 O.2     
   4 N4            -1.2607    -0.5116    -0.3246 N.am    
   5 S5            -2.6217    -2.9181    -0.2759 S.3     
   6 C6            -1.2492    -1.8961    -0.1948 C.2     
   7 N7            -0.1960    -2.6289     0.0075 N.2     
   8 N8            -0.3598    -3.8771     0.1019 N.2     
   9 C9            -1.5740    -4.3126    -0.0131 C.2     
  10 C10           -2.0129    -5.7523     0.0633 C.3     
  11 F11           -0.9173    -6.5569     0.3942 F       
  12 F12           -3.0028    -5.8866     1.0426 F       
  13 F13           -2.5259    -6.1498    -1.1761 F       
  14 C14            1.0566     2.2575    -0.1597 C.ar    
  15 C15            1.0151     3.4522     0.5469 C.ar    
  16 C16            2.1744     4.1736     0.7513 C.ar    
  17 C17            3.3806     3.7054     0.2506 C.ar    
  18 C18            3.4228     2.5123    -0.4552 C.ar    
  19 C19            2.2647     1.7867    -0.6555 C.ar    
  20 N20           -0.2719     3.9523     1.0803 N.pl3   
  21 O21           -0.3255     5.0444     1.6169 O.2     
  22 O22           -1.2773     3.2718     0.9827 O.2     
  23 O23            4.5218     4.4169     0.4515 O.3     
  24 H24           -0.9409     1.9825    -0.6052 H       
  25 H25           -2.0980    -0.0455    -0.4751 H       
  26 H26            2.1422     5.1028     1.3008 H       
  27 H27            4.3621     2.1484    -0.8448 H       
  28 H28            2.2984     0.8554    -1.2014 H       
  29 H29            4.9937     4.1827     1.2624 H       
@<TRIPOS>BOND
   1    1    2 am
   2    1   14 1
   3    1   24 1
   4    2    3 2
   5    2    4 am
   6    4    6 1
   7    4   25 1
   8    5    6 1
   9    5    9 1
  10    6    7 2
  11    7    8 1
  12    8    9 2
  13    9   10 1
  14   10   11 1
  15   10   12 1
  16   10   13 1
  17   14   15 ar
  18   14   19 ar
  19   15   16 ar
  20   15   20 1
  21   16   17 ar
  22   16   26 1
  23   17   18 ar
  24   17   23 1
  25   18   19 ar
  26   18   27 1
  27   19   28 1
  28   20   21 2
  29   20   22 2
  30   23   29 1

#	End of record

