#	Name: ASD01230163
#	Creating user name:	WinNT
#	Creation time:	15. 06. 2019 19:11

#	Modifying user name:	WinNT
#	Modification time:	15. 06. 2019 19:11

#	Program:	/corina/corina34_cracker 3.40 0067  02.08.2006

@<TRIPOS>MOLECULE
ASD01230163
  25   25    0    0    0
SMALL
NO_CHARGES


@<TRIPOS>ATOM
   1 C1            -0.0933     1.2409    -0.0237 C.ar    
   2 C2             0.1203    -0.0967     0.3536 C.ar    
   3 C3             1.4293    -0.5930     0.3639 C.ar    
   4 C4             2.4579     0.2582     0.0010 C.ar    
   5 C5             2.1685     1.5625    -0.3583 C.ar    
   6 N6             0.9287     2.0118    -0.3619 N.ar    
   7 C7            -1.0120    -0.9595     0.7314 C.2     
   8 O8            -2.1293    -0.4904     0.8228 O.2     
   9 O9            -0.8090    -2.2692     0.9757 O.3     
  10 C10            3.8830    -0.2317    -0.0023 C.3     
  11 N11           -1.3774     1.7521    -0.0471 N.pl3   
  12 C12           -1.9708    -3.0591     1.3430 C.3     
  13 C13           -1.5469    -4.5100     1.5796 C.3     
  14 H14            1.6313    -1.6151     0.6485 H       
  15 H15            2.9731     2.2252    -0.6409 H       
  16 H16            4.1236    -0.6429    -0.9827 H       
  17 H17            4.5533     0.5992     0.2176 H       
  18 H18            4.0030    -1.0057     0.7557 H       
  19 H19           -2.1363     1.1533    -0.1269 H       
  20 H20           -1.5195     2.7095     0.0163 H       
  21 H21           -2.4107    -2.6558     2.2551 H       
  22 H22           -2.7048    -3.0216     0.5381 H       
  23 H23           -2.4190    -5.1029     1.8553 H       
  24 H24           -1.1069    -4.9133     0.6675 H       
  25 H25           -0.8128    -4.5475     2.3845 H       
@<TRIPOS>BOND
   1    1    2 ar
   2    1    6 ar
   3    1   11 1
   4    2    3 ar
   5    2    7 1
   6    3    4 ar
   7    3   14 1
   8    4    5 ar
   9    4   10 1
  10    5    6 ar
  11    5   15 1
  12    7    8 2
  13    7    9 1
  14    9   12 1
  15   10   16 1
  16   10   17 1
  17   10   18 1
  18   11   19 1
  19   11   20 1
  20   12   13 1
  21   12   21 1
  22   12   22 1
  23   13   23 1
  24   13   24 1
  25   13   25 1

#	End of record

