#	Name: ASD01100084
#	Creating user name:	WinNT
#	Creation time:	15. 06. 2019 18:58

#	Modifying user name:	WinNT
#	Modification time:	15. 06. 2019 18:58

#	Program:	/corina/corina34_cracker 3.40 0067  02.08.2006

@<TRIPOS>MOLECULE
ASD01100084
  31   33    0    0    0
SMALL
NO_CHARGES


@<TRIPOS>ATOM
   1 C1            -0.0158     1.3153     0.0093 C.ar    
   2 N2             0.0021    -0.0041     0.0020 N.ar    
   3 C3            -1.1106    -0.7125     0.0093 C.ar    
   4 C4            -2.3443    -0.0912     0.0244 C.ar    
   5 C5            -2.4038     1.2946     0.0324 C.ar    
   6 C6            -1.2148     2.0062     0.0302 C.ar    
   7 C7            -3.7304     2.0095     0.0489 C.3     
   8 C8            -3.8238     2.8665     1.2850 C.2     
   9 N9            -4.9298     3.6024     1.5128 N.am    
  10 O10           -2.9038     2.8941     2.0748 O.2     
  11 C11           -5.0160     4.3934     2.6537 C.2     
  12 N12           -6.0267     5.1407     2.9764 N.2     
  13 C13           -5.9314     5.8244     4.1014 C.2     
  14 C14           -4.7943     5.6651     4.7822 C.2     
  15 S15           -3.7739     4.5348     3.8947 S.3     
  16 C16           -3.8491     2.8931    -1.1945 C.3     
  17 C17           -3.7774     2.2053    -2.5593 C.3     
  18 C18           -5.1122     2.7488    -2.0457 C.3     
  19 F19           -4.4815     6.2633     5.9524 F       
  20 Cl20           1.4813     2.1941    -0.0003 Cl      
  21 H21           -1.0564    -1.7912     0.0029 H       
  22 H22           -3.2514    -0.6773     0.0296 H       
  23 H23           -1.2237     3.0861     0.0363 H       
  24 H24           -4.5377     1.2772     0.0527 H       
  25 H25           -5.6656     3.5803     0.8811 H       
  26 H26           -6.7229     6.4719     4.4489 H       
  27 H27           -3.4107     3.8873    -1.1083 H       
  28 H28           -3.2922     2.7472    -3.3711 H       
  29 H29           -3.6457     1.1234    -2.5714 H       
  30 H30           -5.8587     2.0244    -1.7199 H       
  31 H31           -5.5052     3.6483    -2.5196 H       
@<TRIPOS>BOND
   1    1    2 ar
   2    1   20 1
   3    1    6 ar
   4    2    3 ar
   5    3    4 ar
   6    3   21 1
   7    4    5 ar
   8    4   22 1
   9    5    6 ar
  10    5    7 1
  11    6   23 1
  12    7    8 1
  13    7   16 1
  14    7   24 1
  15    8    9 am
  16    8   10 2
  17    9   11 1
  18    9   25 1
  19   11   12 2
  20   11   15 1
  21   12   13 1
  22   13   14 2
  23   13   26 1
  24   14   15 1
  25   14   19 1
  26   16   17 1
  27   16   18 1
  28   16   27 1
  29   17   18 1
  30   17   28 1
  31   17   29 1
  32   18   30 1
  33   18   31 1

#	End of record

