#	Name: ASD03730273
#	Creating user name:	WinNT
#	Creation time:	15. 06. 2019 20:44

#	Modifying user name:	WinNT
#	Modification time:	15. 06. 2019 20:44

#	Program:	/corina/corina34_cracker 3.40 0067  02.08.2006

@<TRIPOS>MOLECULE
ASD03730273
  61   66    0    0    0
SMALL
NO_CHARGES


@<TRIPOS>ATOM
   1 O1            -0.0175     1.4356     0.0099 O.3     
   2 C2             0.0021    -0.0041     0.0020 C.3     
   3 O3             1.2457    -0.3259    -0.6481 O.3     
   4 C4             2.0711     0.7341    -0.4031 C.ar    
   5 C5             1.2936     1.8175    -0.0005 C.ar    
   6 C6             3.4456     0.8637    -0.4910 C.ar    
   7 C7             4.0609     2.0731    -0.1821 C.ar    
   8 C8             3.2728     3.1513     0.2093 C.ar    
   9 C9             1.9028     3.0232     0.3038 C.ar    
  10 O10            5.3839     2.4043    -0.1862 O.3     
  11 C11            4.2104     4.3057     0.4415 C.3     
  12 C12            5.5144     3.8386    -0.2197 C.3     
  13 N13            3.6175     6.4761     0.8413 N.am    
  14 C14            3.7022     5.5824    -0.1643 C.2     
  15 C15            4.3982     4.6053     1.8989 C.ar    
  16 C16            4.8402     3.8565     2.9857 C.ar    
  17 C17            4.9024     4.4435     4.2535 C.ar    
  18 C18            4.5245     5.7608     4.4142 C.ar    
  19 C19            4.0868     6.5019     3.3349 C.ar    
  20 C20            4.0199     5.9320     2.0640 C.ar    
  21 O21            3.4233     5.7722    -1.3293 O.2     
  22 C22            3.1574     7.8566     0.6722 C.3     
  23 C23            1.6418     7.9172     0.8730 C.3     
  24 C24            1.1612     9.3590     0.6964 C.3     
  25 C25           -0.3543     9.4196     0.8973 C.3     
  26 C26           -0.8349    10.8614     0.7206 C.3     
  27 C27            5.2407     2.4500     2.8013 C.2     
  28 C28            5.6666     1.7301     3.8513 C.2     
  29 C29            6.0670     0.3239     3.6669 C.ar    
  30 C30            6.5107    -0.4281     4.7580 C.ar    
  31 C31            6.8835    -1.7434     4.5791 C.ar    
  32 C32            6.8192    -2.3199     3.3202 C.ar    
  33 C33            6.3799    -1.5792     2.2341 C.ar    
  34 C34            5.9989    -0.2647     2.4012 C.ar    
  35 F35            7.1867    -3.6089     3.1511 F       
  36 H36           -0.0096    -0.3928     1.0203 H       
  37 H37           -0.8406    -0.3954    -0.5680 H       
  38 H38            4.0451     0.0206    -0.8012 H       
  39 H39            1.3035     3.8657     0.6159 H       
  40 H40            6.3795     4.1623     0.3590 H       
  41 H41            5.5779     4.1977    -1.2469 H       
  42 H42            5.2439     3.8690     5.1019 H       
  43 H43            4.5712     6.2158     5.3926 H       
  44 H44            3.7941     7.5319     3.4759 H       
  45 H45            3.6471     8.4955     1.4070 H       
  46 H46            3.4049     8.2017    -0.3317 H       
  47 H47            1.1520     7.2784     0.1382 H       
  48 H48            1.3943     7.5722     1.8769 H       
  49 H49            1.6510     9.9979     1.4313 H       
  50 H50            1.4088     9.7041    -0.3075 H       
  51 H51           -0.8441     8.7808     0.1624 H       
  52 H52           -0.6019     9.0746     1.9011 H       
  53 H53           -1.9146    10.9046     0.8637 H       
  54 H54           -0.3452    11.5003     1.4555 H       
  55 H55           -0.5874    11.2065    -0.2833 H       
  56 H56            5.1915     1.9987     1.8214 H       
  57 H57            5.7157     2.1815     4.8312 H       
  58 H58            6.5619     0.0202     5.7392 H       
  59 H59            7.2266    -2.3256     5.4216 H       
  60 H60            6.3320    -2.0339     1.2556 H       
  61 H61            5.6526     0.3101     1.5550 H       
@<TRIPOS>BOND
   1    1    2 1
   2    1    5 1
   3    2    3 1
   4    2   36 1
   5    2   37 1
   6    3    4 1
   7    4    5 ar
   8    4    6 ar
   9    5    9 ar
  10    6    7 ar
  11    6   38 1
  12    7    8 ar
  13    7   10 1
  14    8    9 ar
  15    8   11 1
  16    9   39 1
  17   10   12 1
  18   11   12 1
  19   11   14 1
  20   11   15 1
  21   12   40 1
  22   12   41 1
  23   13   14 am
  24   13   20 1
  25   13   22 1
  26   14   21 2
  27   15   16 ar
  28   15   20 ar
  29   16   17 ar
  30   16   27 1
  31   17   18 ar
  32   17   42 1
  33   18   19 ar
  34   18   43 1
  35   19   20 ar
  36   19   44 1
  37   22   23 1
  38   22   45 1
  39   22   46 1
  40   23   24 1
  41   23   47 1
  42   23   48 1
  43   24   25 1
  44   24   49 1
  45   24   50 1
  46   25   26 1
  47   25   51 1
  48   25   52 1
  49   26   53 1
  50   26   54 1
  51   26   55 1
  52   27   28 2
  53   27   56 1
  54   28   29 1
  55   28   57 1
  56   29   30 ar
  57   29   34 ar
  58   30   31 ar
  59   30   58 1
  60   31   32 ar
  61   31   59 1
  62   32   33 ar
  63   32   35 1
  64   33   34 ar
  65   33   60 1
  66   34   61 1

#	End of record

