#	Name: ASD03331579
#	Creating user name:	WinNT
#	Creation time:	15. 06. 2019 20:39

#	Modifying user name:	WinNT
#	Modification time:	15. 06. 2019 20:39

#	Program:	/corina/corina34_cracker 3.40 0067  02.08.2006

@<TRIPOS>MOLECULE
ASD03331579
  56   58    0    0    0
SMALL
NO_CHARGES


@<TRIPOS>ATOM
   1 C1            -0.4669     0.7330     1.5430 C.ar    
   2 C2            -0.3153    -0.6755     1.1193 C.2     
   3 N3            -1.3308    -1.5750     0.9672 N.pl3   
   4 C4            -0.7727    -2.7569     0.5908 C.2     
   5 C5             0.5696    -2.5548     0.4921 C.2     
   6 N6             0.8175    -1.2676     0.8212 N.2     
   7 C7             1.5723    -3.5581     0.0931 C.2     
   8 O8             1.2232    -4.6893    -0.1853 O.2     
   9 N9             2.8763    -3.2221     0.0367 N.am    
  10 C10            3.8732    -4.2196    -0.3601 C.3     
  11 C11            5.2143    -3.8467     0.2173 C.2     
  12 C12           -2.7633    -1.3219     1.1507 C.3     
  13 C13           -3.4603    -2.6287     1.5391 C.3     
  14 C14           -3.8323    -3.4104     0.2809 C.3     
  15 O15           -2.6700    -3.7674    -0.4577 O.3     
  16 C16           -1.5232    -4.0414     0.3546 C.3     
  17 C17            3.9698    -4.2650    -1.8864 C.3     
  18 C18            4.3375    -2.8773    -2.4156 C.3     
  19 C19            5.0467    -5.2702    -2.2995 C.3     
  20 C20            2.6219    -4.6928    -2.4702 C.3     
  21 O21            5.4255    -2.7067     0.5733 O.2     
  22 C22            0.3512     1.2547     2.5483 C.ar    
  23 C23            0.2051     2.5719     2.9404 C.ar    
  24 C24           -0.7501     3.3738     2.3392 C.ar    
  25 C25           -1.5656     2.8603     1.3398 C.ar    
  26 C26           -1.4239     1.5477     0.9361 C.ar    
  27 N27            6.1790    -4.7801     0.3381 N.am    
  28 C28            7.4472    -4.4427     0.9894 C.3     
  29 F29           -0.8895     4.6605     2.7268 F       
  30 F30           -2.4957     3.6483     0.7573 F       
  31 F31            1.2830     0.4729     3.1362 F       
  32 H32            3.1547    -2.3199     0.2587 H       
  33 H33            3.5760    -5.1992     0.0144 H       
  34 H34           -2.9045    -0.5850     1.9413 H       
  35 H35           -3.1885    -0.9450     0.2205 H       
  36 H36           -2.7890    -3.2288     2.1533 H       
  37 H37           -4.3637    -2.4030     2.1057 H       
  38 H38           -4.3672    -4.3160     0.5669 H       
  39 H39           -4.4794    -2.7955    -0.3446 H       
  40 H40           -0.8756    -4.7536    -0.1568 H       
  41 H41           -1.8436    -4.4577     1.3096 H       
  42 H42            5.2978    -2.5725    -1.9996 H       
  43 H43            4.4064    -2.9097    -3.5029 H       
  44 H44            3.5703    -2.1612    -2.1212 H       
  45 H45            4.7656    -6.2657    -1.9559 H       
  46 H46            5.1426    -5.2743    -3.3853 H       
  47 H47            5.9992    -4.9868    -1.8517 H       
  48 H48            1.8547    -3.9767    -2.1759 H       
  49 H49            2.6907    -4.7251    -3.5576 H       
  50 H50            2.3599    -5.6814    -2.0932 H       
  51 H51            0.8369     2.9763     3.7174 H       
  52 H52           -2.0589     1.1494     0.1585 H       
  53 H53            6.0337    -5.6752    -0.0061 H       
  54 H54            7.9314    -3.6325     0.4441 H       
  55 H55            7.2563    -4.1271     2.0151 H       
  56 H56            8.0975    -5.3174     0.9935 H       
@<TRIPOS>BOND
   1    1    2 1
   2    1   22 ar
   3    1   26 ar
   4    2    3 1
   5    2    6 2
   6    3    4 1
   7    3   12 1
   8    4    5 2
   9    4   16 1
  10    5    6 1
  11    5    7 1
  12    7    8 2
  13    7    9 am
  14    9   10 1
  15    9   32 1
  16   10   11 1
  17   10   17 1
  18   10   33 1
  19   11   21 2
  20   11   27 am
  21   12   13 1
  22   12   34 1
  23   12   35 1
  24   13   14 1
  25   13   36 1
  26   13   37 1
  27   14   15 1
  28   14   38 1
  29   14   39 1
  30   15   16 1
  31   16   40 1
  32   16   41 1
  33   17   18 1
  34   17   19 1
  35   17   20 1
  36   18   42 1
  37   18   43 1
  38   18   44 1
  39   19   45 1
  40   19   46 1
  41   19   47 1
  42   20   48 1
  43   20   49 1
  44   20   50 1
  45   22   23 ar
  46   22   31 1
  47   23   24 ar
  48   23   51 1
  49   24   25 ar
  50   24   29 1
  51   25   26 ar
  52   25   30 1
  53   26   52 1
  54   27   28 1
  55   27   53 1
  56   28   54 1
  57   28   55 1
  58   28   56 1

#	End of record

