#	Name: ASD01912012
#	Creating user name:	WinNT
#	Creation time:	15. 06. 2019 19:58

#	Modifying user name:	WinNT
#	Modification time:	15. 06. 2019 19:58

#	Program:	/corina/corina34_cracker 3.40 0067  02.08.2006

@<TRIPOS>MOLECULE
ASD01912012
  35   38    0    0    0
SMALL
NO_CHARGES


@<TRIPOS>ATOM
   1 C1            -0.0167     1.3819     0.0096 C.ar    
   2 C2             0.0021    -0.0041     0.0020 C.ar    
   3 C3             1.2091    -0.6853    -0.0128 C.ar    
   4 C4             2.3979     0.0135    -0.0204 C.ar    
   5 C5             2.3842     1.4087    -0.0132 C.ar    
   6 C6             1.1667     2.0898     0.0021 C.ar    
   7 C7             3.6575     2.1638    -0.0209 C.ar    
   8 N8             4.7238     1.6997     0.6235 N.ar    
   9 C9             5.8640     2.3723     0.6188 C.ar    
  10 N10            5.9983     3.5272    -0.0202 N.ar    
  11 C11            4.9907     4.0609    -0.6855 C.ar    
  12 C12            3.7637     3.3875    -0.7176 C.ar    
  13 C13            2.6446     3.9299    -1.4275 C.1     
  14 N14            1.7568     4.3602    -1.9907 N.1     
  15 N15            6.9503     1.8545     1.3025 N.pl3   
  16 C16            8.1490     2.5376     1.3119 C.2     
  17 O17            9.2643     2.1279     1.9414 O.3     
  18 C18           10.2318     3.0490     1.7284 C.ar    
  19 C19            9.6560     4.0511     0.9331 C.ar    
  20 N20            8.3679     3.6754     0.7049 N.2     
  21 C21           11.5559     3.1573     2.1216 C.ar    
  22 C22           12.3028     4.2498     1.7298 C.ar    
  23 C23           11.7375     5.2426     0.9442 C.ar    
  24 C24           10.4226     5.1506     0.5440 C.ar    
  25 F25           -1.1599    -0.6932     0.0095 F       
  26 H26           -0.9598     1.9082     0.0170 H       
  27 H27            1.2186    -1.7653    -0.0179 H       
  28 H28            3.3378    -0.5182    -0.0315 H       
  29 H29            1.1510     3.1697     0.0074 H       
  30 H30            5.1124     5.0019    -1.2014 H       
  31 H31            6.8688     1.0113     1.7751 H       
  32 H32           12.0029     2.3882     2.7341 H       
  33 H33           13.3348     4.3320     2.0375 H       
  34 H34           12.3316     6.0933     0.6444 H       
  35 H35            9.9864     5.9265    -0.0676 H       
@<TRIPOS>BOND
   1    1    2 ar
   2    1    6 ar
   3    1   26 1
   4    2    3 ar
   5    2   25 1
   6    3    4 ar
   7    3   27 1
   8    4    5 ar
   9    4   28 1
  10    5    6 ar
  11    5    7 1
  12    6   29 1
  13    7    8 ar
  14    7   12 ar
  15    8    9 ar
  16    9   10 ar
  17    9   15 1
  18   10   11 ar
  19   11   12 ar
  20   11   30 1
  21   12   13 1
  22   13   14 3
  23   15   16 1
  24   15   31 1
  25   16   17 1
  26   16   20 2
  27   17   18 1
  28   18   19 ar
  29   18   21 ar
  30   19   20 1
  31   19   24 ar
  32   21   22 ar
  33   21   32 1
  34   22   23 ar
  35   22   33 1
  36   23   24 ar
  37   23   34 1
  38   24   35 1

#	End of record

