#	Name: ASD01320073
#	Creating user name:	WinNT
#	Creation time:	15. 06. 2019 19:15

#	Modifying user name:	WinNT
#	Modification time:	15. 06. 2019 19:15

#	Program:	/corina/corina34_cracker 3.40 0067  02.08.2006

@<TRIPOS>MOLECULE
ASD01320073
  39   41    0    0    0
SMALL
NO_CHARGES


@<TRIPOS>ATOM
   1 O1            -0.0173     1.4248     0.0099 O.3     
   2 C2             0.0021    -0.0041     0.0020 C.3     
   3 C3            -1.4333    -0.5336     0.0129 C.3     
   4 O4            -2.0891    -0.1579    -1.1999 O.3     
   5 C5            -3.4511    -0.5826    -1.2826 C.3     
   6 C6            -4.0469    -0.1097    -2.5835 C.2     
   7 N7            -3.6677    -0.5041    -3.7640 N.2     
   8 C8            -4.4120     0.1180    -4.7140 C.ar    
   9 C9            -5.3153     0.9579    -4.0412 C.ar    
  10 N10           -5.0635     0.7873    -2.6945 N.pl3   
  11 C11           -6.2138     1.7285    -4.7668 C.ar    
  12 C12           -6.2126     1.6634    -6.1438 C.ar    
  13 C13           -5.3205     0.8332    -6.8079 C.ar    
  14 C14           -4.4291     0.0683    -6.1105 C.ar    
  15 C15           -7.1870     2.4989    -6.9333 C.3     
  16 C16           -3.5123    -2.1110    -1.2186 C.3     
  17 C17           -2.8509    -2.5869     0.0785 C.3     
  18 C18           -1.4135    -2.0600     0.1288 C.3     
  19 O19           -0.8099    -2.4370     1.3680 O.3     
  20 O20           -2.8379    -4.0154     0.1122 O.3     
  21 O21           -4.8765    -2.5357    -1.2428 O.3     
  22 H22            0.8606     1.8301     0.0037 H       
  23 H23            0.5123    -0.3556    -0.8948 H       
  24 H24            0.5293    -0.3651     0.8851 H       
  25 H25           -1.9702    -0.1113     0.8623 H       
  26 H26           -4.0145    -0.1609    -0.4502 H       
  27 H27           -5.5222     1.2299    -1.9633 H       
  28 H28           -6.9106     2.3756    -4.2548 H       
  29 H29           -5.3309     0.7918    -7.8870 H       
  30 H30           -3.7395    -0.5745    -6.6374 H       
  31 H31           -6.7369     3.4656    -7.1592 H       
  32 H32           -7.4344     1.9870    -7.8633 H       
  33 H33           -8.0946     2.6485    -6.3484 H       
  34 H34           -2.9833    -2.5328    -2.0732 H       
  35 H35           -3.4091    -2.2057     0.9336 H       
  36 H36           -0.8421    -2.4808    -0.6986 H       
  37 H37           -0.7682    -3.3925     1.5107 H       
  38 H38           -3.7166    -4.4177     0.0765 H       
  39 H39           -4.9904    -3.4952    -1.2050 H       
@<TRIPOS>BOND
   1    1    2 1
   2    1   22 1
   3    2    3 1
   4    2   23 1
   5    2   24 1
   6    3    4 1
   7    3   18 1
   8    3   25 1
   9    4    5 1
  10    5    6 1
  11    5   16 1
  12    5   26 1
  13    6    7 2
  14    6   10 1
  15    7    8 1
  16    8    9 ar
  17    8   14 ar
  18    9   10 1
  19    9   11 ar
  20   10   27 1
  21   11   12 ar
  22   11   28 1
  23   12   13 ar
  24   12   15 1
  25   13   14 ar
  26   13   29 1
  27   14   30 1
  28   15   31 1
  29   15   32 1
  30   15   33 1
  31   16   17 1
  32   16   21 1
  33   16   34 1
  34   17   18 1
  35   17   20 1
  36   17   35 1
  37   18   19 1
  38   18   36 1
  39   19   37 1
  40   20   38 1
  41   21   39 1

#	End of record

