#	Name: ASD05303056
#	Creating user name:	WinNT
#	Creation time:	15. 06. 2019 20:58

#	Modifying user name:	WinNT
#	Modification time:	15. 06. 2019 20:58

#	Program:	/corina/corina34_cracker 3.40 0067  02.08.2006

@<TRIPOS>MOLECULE
ASD05303056
  58   61    0    0    0
SMALL
NO_CHARGES


@<TRIPOS>ATOM
   1 C1             0.5204     1.4468    -0.4114 C.ar    
   2 C2             0.7152     0.0790    -0.4629 C.ar    
   3 C3             1.9961    -0.4394    -0.4936 C.ar    
   4 C4             3.0899     0.4136    -0.4729 C.ar    
   5 C5             2.8927     1.7920    -0.4211 C.ar    
   6 C6             1.6056     2.3033    -0.3905 C.ar    
   7 O7             3.9609     2.6330    -0.4001 O.3     
   8 N8             4.3887    -0.1092    -0.5036 N.am    
   9 C9             4.6147    -1.3210    -1.0485 C.2     
  10 O10            3.6818    -1.9945    -1.4411 O.2     
  11 C11            3.6829     4.0337    -0.3468 C.3     
  12 C12            5.9968    -1.8313    -1.1687 C.ar    
  13 C13            4.9985     4.8145    -0.3302 C.3     
  14 O14            5.6878     4.6127    -1.5656 O.3     
  15 C15            6.8840     5.2418    -1.7151 C.ar    
  16 C16            7.6106     5.0896    -2.8942 C.ar    
  17 C17            8.8301     5.7344    -3.0410 C.ar    
  18 C18            9.3208     6.5250    -2.0190 C.ar    
  19 C19            8.5994     6.6751    -0.8492 C.ar    
  20 C20            7.3805     6.0402    -0.6978 C.ar    
  21 N21            7.1114     4.2876    -3.9281 N.am    
  22 C22            7.9573     3.7311    -4.8176 C.2     
  23 O23            9.1584     3.8393    -4.6641 O.2     
  24 C24            7.4246     2.9890    -5.9797 C.ar    
  25 C25            6.2342    -3.0859    -1.7326 C.ar    
  26 C26            7.5266    -3.5560    -1.8423 C.ar    
  27 C27            8.5861    -2.7870    -1.3944 C.ar    
  28 C28            8.3576    -1.5425    -0.8345 C.ar    
  29 C29            7.0706    -1.0581    -0.7242 C.ar    
  30 C30            8.2979     2.4114    -6.9029 C.ar    
  31 C31            7.7942     1.7198    -7.9850 C.ar    
  32 C32            6.4266     1.5985    -8.1567 C.ar    
  33 C33            5.5555     2.1687    -7.2454 C.ar    
  34 C34            6.0461     2.8580    -6.1558 C.ar    
  35 H35           -0.4824     1.8476    -0.3921 H       
  36 H36           -0.1356    -0.5861    -0.4787 H       
  37 H37            2.1454    -1.5083    -0.5335 H       
  38 H38            1.4498     3.3713    -0.3503 H       
  39 H39            5.1257     0.4008    -0.1326 H       
  40 H40            3.1002     4.3220    -1.2217 H       
  41 H41            3.1162     4.2574     0.5570 H       
  42 H42            4.7893     5.8763    -0.2001 H       
  43 H43            5.6194     4.4629     0.4938 H       
  44 H44            9.3961     5.6183    -3.9535 H       
  45 H45           10.2704     7.0264    -2.1345 H       
  46 H46            8.9870     7.2936    -0.0532 H       
  47 H47            6.8195     6.1597     0.2173 H       
  48 H48            6.1569     4.1327    -4.0040 H       
  49 H49            5.4081    -3.6875    -2.0819 H       
  50 H50            7.7118    -4.5265    -2.2783 H       
  51 H51            9.5958    -3.1599    -1.4819 H       
  52 H52            9.1890    -0.9474    -0.4866 H       
  53 H53            6.8936    -0.0864    -0.2873 H       
  54 H54            9.3656     2.5060    -6.7704 H       
  55 H55            8.4687     1.2724    -8.7000 H       
  56 H56            6.0374     1.0567    -9.0060 H       
  57 H57            4.4891     2.0706    -7.3854 H       
  58 H58            5.3650     3.3022    -5.4450 H       
@<TRIPOS>BOND
   1    1    2 ar
   2    1    6 ar
   3    1   35 1
   4    2    3 ar
   5    2   36 1
   6    3    4 ar
   7    3   37 1
   8    4    5 ar
   9    4    8 1
  10    5    6 ar
  11    5    7 1
  12    6   38 1
  13    7   11 1
  14    8    9 am
  15    8   39 1
  16    9   10 2
  17    9   12 1
  18   11   13 1
  19   11   40 1
  20   11   41 1
  21   12   25 ar
  22   12   29 ar
  23   13   14 1
  24   13   42 1
  25   13   43 1
  26   14   15 1
  27   15   16 ar
  28   15   20 ar
  29   16   17 ar
  30   16   21 1
  31   17   18 ar
  32   17   44 1
  33   18   19 ar
  34   18   45 1
  35   19   20 ar
  36   19   46 1
  37   20   47 1
  38   21   22 am
  39   21   48 1
  40   22   23 2
  41   22   24 1
  42   24   30 ar
  43   24   34 ar
  44   25   26 ar
  45   25   49 1
  46   26   27 ar
  47   26   50 1
  48   27   28 ar
  49   27   51 1
  50   28   29 ar
  51   28   52 1
  52   29   53 1
  53   30   31 ar
  54   30   54 1
  55   31   32 ar
  56   31   55 1
  57   32   33 ar
  58   32   56 1
  59   33   34 ar
  60   33   57 1
  61   34   58 1

#	End of record

