#	Name: ASD02030525
#	Creating user name:	WinNT
#	Creation time:	15. 06. 2019 20:15

#	Modifying user name:	WinNT
#	Modification time:	15. 06. 2019 20:15

#	Program:	/corina/corina34_cracker 3.40 0067  02.08.2006

@<TRIPOS>MOLECULE
ASD02030525
  59   62    0    0    0
SMALL
NO_CHARGES


@<TRIPOS>ATOM
   1 N1            -0.1817     1.5727    -0.4616 N.am    
   2 C2            -0.2774     0.1083    -0.5397 C.3     
   3 C3            -1.0789    -0.3956     0.6669 C.3     
   4 N4            -2.3163     0.3905     0.7700 N.am    
   5 C5            -2.2206     1.8550     0.8482 C.3     
   6 C6            -1.4188     2.3585    -0.3527 C.3     
   7 C7             1.0194     2.1838    -0.4836 C.2     
   8 C8             2.2590     1.3791    -0.4462 C.2     
   9 N9             3.4825     1.8479    -0.3275 N.2     
  10 N10            2.3342     0.0376    -0.5216 N.2     
  11 C11            3.6006    -0.2854    -0.4525 C.2     
  12 N12            4.3067     0.8575    -0.3313 N.pl3   
  13 O13            1.0834     3.3967    -0.5343 O.2     
  14 C14           -3.5174    -0.2206     0.7921 C.2     
  15 C15           -3.5966    -1.6969     0.7590 C.ar    
  16 O16           -4.5355     0.4418     0.8392 O.2     
  17 C17           -1.0746     3.8364    -0.1572 C.3     
  18 C18           -2.2430     2.1843    -1.6299 C.3     
  19 C19            5.7011     0.9517    -0.2275 C.ar    
  20 C20            6.3069     2.1948    -0.1070 C.ar    
  21 C21            7.6827     2.2844    -0.0043 C.ar    
  22 C22            8.4549     1.1362    -0.0220 C.ar    
  23 C23            7.8532    -0.1030    -0.1420 C.ar    
  24 C24            6.4790    -0.1987    -0.2392 C.ar    
  25 C25           -4.7839    -2.3144     0.3733 C.ar    
  26 Cl26           8.4420     3.8382     0.1464 Cl      
  27 N27           -2.5316    -2.4202     1.0927 N.ar    
  28 C28           -2.5589    -3.7370     1.0769 C.ar    
  29 C29           -3.7201    -4.4226     0.7051 C.ar    
  30 C30           -4.8492    -3.6979     0.3451 C.ar    
  31 O31           -1.4485    -4.4359     1.4246 O.3     
  32 O32           -3.7417    -5.7802     0.6909 O.3     
  33 C33           -4.9655    -6.4056     0.2995 C.3     
  34 C34           -0.2944    -3.6786     1.7941 C.3     
  35 H35           -0.7854    -0.1765    -1.4611 H       
  36 H36            0.7226    -0.3252    -0.5215 H       
  37 H37           -1.3248    -1.4485     0.5288 H       
  38 H38           -0.4896    -0.2711     1.5753 H       
  39 H39           -3.2206     2.2884     0.8300 H       
  40 H40           -1.7126     2.1397     1.7696 H       
  41 H41            4.0064    -1.2857    -0.4838 H       
  42 H42           -0.2906     3.9305     0.5942 H       
  43 H43           -0.7260     4.2562    -1.1007 H       
  44 H44           -1.9622     4.3754     0.1744 H       
  45 H45           -3.1675     2.7556    -1.5465 H       
  46 H46           -1.6695     2.5438    -2.4843 H       
  47 H47           -2.4792     1.1293    -1.7689 H       
  48 H48            5.7043     3.0910    -0.0939 H       
  49 H49            9.5296     1.2082     0.0576 H       
  50 H50            8.4585    -0.9974    -0.1559 H       
  51 H51            6.0100    -1.1671    -0.3325 H       
  52 H52           -5.6440    -1.7214     0.0995 H       
  53 H53           -5.7589    -4.2018     0.0539 H       
  54 H54           -5.2228    -6.0980    -0.7140 H       
  55 H55           -4.8466    -7.4886     0.3314 H       
  56 H56           -5.7607    -6.1072     0.9827 H       
  57 H57            0.5197    -4.3574     2.0481 H       
  58 H58            0.0073    -3.0457     0.9595 H       
  59 H59           -0.5299    -3.0549     2.6565 H       
@<TRIPOS>BOND
   1    1    2 1
   2    1    7 am
   3    1    6 1
   4    2    3 1
   5    2   35 1
   6    2   36 1
   7    3    4 1
   8    3   37 1
   9    3   38 1
  10    4    5 1
  11    4   14 am
  12    5    6 1
  13    5   39 1
  14    5   40 1
  15    6   17 1
  16    6   18 1
  17    7    8 1
  18    7   13 2
  19    8    9 2
  20    8   10 1
  21    9   12 1
  22   10   11 2
  23   11   12 1
  24   11   41 1
  25   12   19 1
  26   14   15 1
  27   14   16 2
  28   15   27 ar
  29   15   25 ar
  30   17   42 1
  31   17   43 1
  32   17   44 1
  33   18   45 1
  34   18   46 1
  35   18   47 1
  36   19   20 ar
  37   19   24 ar
  38   20   21 ar
  39   20   48 1
  40   21   22 ar
  41   21   26 1
  42   22   23 ar
  43   22   49 1
  44   23   24 ar
  45   23   50 1
  46   24   51 1
  47   25   30 ar
  48   25   52 1
  49   27   28 ar
  50   28   29 ar
  51   28   31 1
  52   29   30 ar
  53   29   32 1
  54   30   53 1
  55   31   34 1
  56   32   33 1
  57   33   54 1
  58   33   55 1
  59   33   56 1
  60   34   57 1
  61   34   58 1
  62   34   59 1

#	End of record

