#	Name: ASD01870135
#	Creating user name:	WinNT
#	Creation time:	15. 06. 2019 19:38

#	Modifying user name:	WinNT
#	Modification time:	15. 06. 2019 19:38

#	Program:	/corina/corina34_cracker 3.40 0067  02.08.2006

@<TRIPOS>MOLECULE
ASD01870135
  35   37    0    0    0
SMALL
NO_CHARGES


@<TRIPOS>ATOM
   1 C1            -0.0173     1.4095    -0.0115 C.ar    
   2 C2             0.0006    -0.0062    -0.0516 C.ar    
   3 C3            -1.2134    -0.7207    -0.0549 C.ar    
   4 C4            -2.3955    -0.0576    -0.0203 C.ar    
   5 C5            -2.4350     1.3489     0.0199 C.ar    
   6 C6            -1.2536     2.0869     0.0193 C.ar    
   7 O7            -1.2918     3.4403     0.0584 O.3     
   8 C8            -3.7329     2.0443     0.0570 C.2     
   9 O9            -3.7710     3.2596     0.0918 O.2     
  10 N10           -4.8783     1.3341     0.0524 N.am    
  11 C11           -6.1084     1.9898     0.1724 C.ar    
  12 C12           -6.2327     3.3141    -0.2252 C.ar    
  13 C13           -7.2106     1.3149     0.6846 C.ar    
  14 C14           -8.4239     1.9657     0.8011 C.ar    
  15 C15           -8.5420     3.2867     0.4087 C.ar    
  16 C16           -7.4488     3.9586    -0.1059 C.ar    
  17 Cl17          -7.0629    -0.3433     1.1767 Cl      
  18 C18            1.1966     2.1153    -0.0090 C.ar    
  19 C19            2.3742     1.4318    -0.0450 C.ar    
  20 C20            2.3925     0.0397    -0.0848 C.ar    
  21 C21            1.2341    -0.6767    -0.0880 C.ar    
  22 N22           -9.8432     3.9809     0.5348 N.pl3   
  23 O23          -10.8084     3.3889     0.9836 O.2     
  24 O24           -9.9488     5.1442     0.1896 O.2     
  25 H25           -1.2026    -1.8002    -0.0855 H       
  26 H26           -3.3197    -0.6163    -0.0240 H       
  27 H27           -1.2869     3.8082     0.9527 H       
  28 H28           -4.8499     0.3684    -0.0340 H       
  29 H29           -5.3793     3.8401    -0.6270 H       
  30 H30           -9.2809     1.4423     1.1985 H       
  31 H31           -7.5445     4.9902    -0.4110 H       
  32 H32            1.1966     3.1949     0.0210 H       
  33 H33            3.3065     1.9769    -0.0430 H       
  34 H34            3.3391    -0.4793    -0.1136 H       
  35 H35            1.2641    -1.7558    -0.1191 H       
@<TRIPOS>BOND
   1    1    2 ar
   2    1   18 ar
   3    1    6 ar
   4    2    3 ar
   5    2   21 ar
   6    3    4 ar
   7    3   25 1
   8    4    5 ar
   9    4   26 1
  10    5    6 ar
  11    5    8 1
  12    6    7 1
  13    7   27 1
  14    8    9 2
  15    8   10 am
  16   10   11 1
  17   10   28 1
  18   11   12 ar
  19   11   13 ar
  20   12   16 ar
  21   12   29 1
  22   13   14 ar
  23   13   17 1
  24   14   15 ar
  25   14   30 1
  26   15   16 ar
  27   15   22 1
  28   16   31 1
  29   18   19 ar
  30   18   32 1
  31   19   20 ar
  32   19   33 1
  33   20   21 ar
  34   20   34 1
  35   21   35 1
  36   22   23 2
  37   22   24 2

#	End of record

