#	Name: ASD05490246
#	Creating user name:	WinNT
#	Creation time:	15. 06. 2019 21:01

#	Modifying user name:	WinNT
#	Modification time:	15. 06. 2019 21:01

#	Program:	/corina/corina34_cracker 3.40 0067  02.08.2006

@<TRIPOS>MOLECULE
ASD05490246
  65   69    0    0    0
SMALL
NO_CHARGES


@<TRIPOS>ATOM
   1 N1            -0.0140     1.3235    -0.0018 N.ar    
   2 C2             0.0026    -0.0005    -0.0086 C.ar    
   3 C3             1.1990    -0.7004    -0.0178 C.ar    
   4 C4             2.3953     0.0106    -0.0206 C.ar    
   5 C5             2.3404     1.4047    -0.0168 C.ar    
   6 C6             1.1047     2.0380    -0.0056 C.ar    
   7 N7             3.6186    -0.6479    -0.0229 N.3     
   8 C8             3.4706    -2.0318    -0.4926 C.3     
   9 C9             4.7908    -2.7480    -0.3696 C.ar    
  10 C10            5.1057    -3.4216     0.7954 C.ar    
  11 C11            6.3170    -4.0785     0.9083 C.ar    
  12 C12            7.2128    -4.0621    -0.1442 C.ar    
  13 C13            6.8974    -3.3890    -1.3099 C.ar    
  14 C14            5.6847    -2.7359    -1.4243 C.ar    
  15 N15            7.6154    -4.5166    -3.3392 N.3     
  16 N16            1.0388     3.4288     0.0012 N.pl3   
  17 O17           -1.1706    -0.6833    -0.0060 O.3     
  18 C18           -2.3717     0.0908     0.0041 C.3     
  19 N19            3.5364     2.1439    -0.0281 N.am    
  20 C20            4.6274     0.0692    -0.8097 C.3     
  21 C21            4.6764     1.5173    -0.3970 C.2     
  22 O22            5.7309     2.1170    -0.3961 O.2     
  23 C23            7.8743    -3.3707    -2.4572 C.3     
  24 C24            8.3864    -4.4047    -4.5910 C.3     
  25 C25            9.2451    -5.6809    -4.7146 C.3     
  26 C26            8.4903    -6.6982    -3.8190 C.3     
  27 C27            7.9763    -5.7877    -2.6760 C.3     
  28 C28           -3.5818    -0.8454     0.0055 C.3     
  29 C29           -4.8793    -0.0295     0.1424 C.3     
  30 C30           -3.6721    -1.5944    -1.3400 C.3     
  31 C31           -5.1920    -1.6816    -1.6251 C.3     
  32 C32           -5.7127    -0.3112    -1.1248 C.3     
  33 H33            1.2028    -1.7804    -0.0225 H       
  34 H34            2.7222    -2.5430     0.1130 H       
  35 H35            3.1542    -2.0297    -1.5357 H       
  36 H36            4.4058    -3.4344     1.6178 H       
  37 H37            6.5634    -4.6043     1.8189 H       
  38 H38            8.1593    -4.5746    -0.0557 H       
  39 H39            5.4383    -2.2102    -2.3350 H       
  40 H40            1.8549     3.9530    -0.0019 H       
  41 H41            0.1768     3.8735     0.0091 H       
  42 H42           -2.3941     0.7150     0.8974 H       
  43 H43           -2.4033     0.7241    -0.8825 H       
  44 H44            3.5435     3.0810     0.2224 H       
  45 H45            5.6040    -0.3863    -0.6458 H       
  46 H46            4.3737     0.0035    -1.8678 H       
  47 H47            7.7561    -2.4449    -3.0203 H       
  48 H48            8.8912    -3.4329    -2.0697 H       
  49 H49            7.7066    -4.3315    -5.4399 H       
  50 H50            9.0308    -3.5265    -4.5523 H       
  51 H51            9.2760    -6.0260    -5.7481 H       
  52 H52           10.2519    -5.5063    -4.3353 H       
  53 H53            7.6600    -7.1532    -4.3591 H       
  54 H54            9.1692    -7.4602    -3.4359 H       
  55 H55            8.7631    -5.6218    -1.9401 H       
  56 H56            7.1002    -6.2309    -2.2026 H       
  57 H57           -3.5009    -1.5585     0.8260 H       
  58 H58           -5.4284    -0.3473     1.0287 H       
  59 H59           -4.6468     1.0334     0.2077 H       
  60 H60           -3.1685    -1.0304    -2.1251 H       
  61 H61           -3.2429    -2.5924    -1.2507 H       
  62 H62           -5.3788    -1.7995    -2.6924 H       
  63 H63           -5.6449    -2.4964    -1.0602 H       
  64 H64           -6.7727    -0.3727    -0.8784 H       
  65 H65           -5.5386     0.4600    -1.8752 H       
@<TRIPOS>BOND
   1    1    2 ar
   2    1    6 ar
   3    2    3 ar
   4    2   17 1
   5    3    4 ar
   6    3   33 1
   7    4    5 ar
   8    4    7 1
   9    5    6 ar
  10    5   19 1
  11    6   16 1
  12    7    8 1
  13    7   20 1
  14    8    9 1
  15    8   34 1
  16    8   35 1
  17    9   10 ar
  18    9   14 ar
  19   10   11 ar
  20   10   36 1
  21   11   12 ar
  22   11   37 1
  23   12   13 ar
  24   12   38 1
  25   13   14 ar
  26   13   23 1
  27   14   39 1
  28   15   24 1
  29   15   23 1
  30   15   27 1
  31   16   40 1
  32   16   41 1
  33   17   18 1
  34   18   28 1
  35   18   42 1
  36   18   43 1
  37   19   21 am
  38   19   44 1
  39   20   21 1
  40   20   45 1
  41   20   46 1
  42   21   22 2
  43   23   47 1
  44   23   48 1
  45   24   25 1
  46   24   49 1
  47   24   50 1
  48   25   26 1
  49   25   51 1
  50   25   52 1
  51   26   27 1
  52   26   53 1
  53   26   54 1
  54   27   55 1
  55   27   56 1
  56   28   29 1
  57   28   30 1
  58   28   57 1
  59   29   32 1
  60   29   58 1
  61   29   59 1
  62   30   31 1
  63   30   60 1
  64   30   61 1
  65   31   32 1
  66   31   62 1
  67   31   63 1
  68   32   64 1
  69   32   65 1

#	End of record

