#	Name: ASD06660001
#	Creating user name:	WinNT
#	Creation time:	15. 06. 2019 21:07

#	Modifying user name:	WinNT
#	Modification time:	15. 06. 2019 21:07

#	Program:	/corina/corina34_cracker 3.40 0067  02.08.2006

@<TRIPOS>MOLECULE
ASD06660001
  79   82    0    0    0
SMALL
NO_CHARGES


@<TRIPOS>ATOM
   1 C1            -0.0184     1.5028     0.0103 C.2     
   2 C2             0.0021    -0.0041     0.0020 C.3     
   3 C3            -0.7241    -0.5171    -1.2431 C.3     
   4 O4             1.0197     2.1211     0.0037 O.2     
   5 O5            -1.1898     2.1580     0.0194 O.3     
   6 C6             2.0717    -0.5994     1.1419 C.2     
   7 O7             1.5367    -0.3240     2.1949 O.2     
   8 N8             1.3897    -0.4735    -0.0138 N.am    
   9 C9             3.4992    -1.0823     1.1257 C.3     
  10 C10            4.0362    -1.1344     2.5573 C.3     
  11 C11            5.4855    -1.6247     2.5409 C.3     
  12 C12            5.5437    -3.0232     1.9231 C.3     
  13 C13            5.0066    -2.9712     0.4915 C.3     
  14 C14            3.5574    -2.4809     0.5079 C.3     
  15 C15            2.7035    -3.4412     1.3384 C.3     
  16 C16            6.9929    -3.5135     1.9067 C.3     
  17 C17            3.9780     0.2642     3.1751 C.3     
  18 C18           -0.8113    -2.0207    -1.1900 C.ar    
  19 C19           -1.8983    -2.6278    -0.5884 C.ar    
  20 C20           -1.9814    -4.0054    -0.5380 C.ar    
  21 C21           -0.9713    -4.7813    -1.0925 C.ar    
  22 C22            0.1192    -4.1682    -1.6960 C.ar    
  23 C23            0.1932    -2.7901    -1.7480 C.ar    
  24 N24           -1.0519    -6.1748    -1.0428 N.3     
  25 C25            0.1154    -6.7927    -1.6847 C.3     
  26 C26           -0.0755    -8.3100    -1.7414 C.3     
  27 C27           -0.2456    -8.8516    -0.3193 C.3     
  28 C28           -1.4383    -8.1570     0.3437 C.3     
  29 C29           -1.2079    -6.6440     0.3399 C.3     
  30 C30           -0.4975   -10.3598    -0.3732 C.3     
  31 N31           -0.5413   -10.8966     0.9892 N.pl3   
  32 C32           -0.7596   -12.2539     1.1947 C.ar    
  33 C33           -0.9358   -13.0971     0.1020 C.ar    
  34 C34           -1.1521   -14.4454     0.3210 C.ar    
  35 C35           -1.1853   -14.9073     1.6304 C.ar    
  36 C36           -1.0027   -14.0145     2.6670 C.ar    
  37 N37           -0.7927   -12.7337     2.4282 N.ar    
  38 H38           -0.4983    -0.3791     0.8948 H       
  39 H39           -1.7288    -0.0959    -1.2772 H       
  40 H40           -0.1736    -0.2164    -2.1345 H       
  41 H41           -1.1523     3.1243     0.0245 H       
  42 H42            1.8177    -0.6938    -0.8559 H       
  43 H43            4.1075    -0.3982     0.5340 H       
  44 H44            3.4279    -1.8185     3.1490 H       
  45 H45            6.0938    -0.9406     1.9493 H       
  46 H46            5.8681    -1.6618     3.5608 H       
  47 H47            4.9354    -3.7074     2.5148 H       
  48 H48            5.6149    -2.2870    -0.1002 H       
  49 H49            5.0481    -3.9675     0.0514 H       
  50 H50            3.1748    -2.4438    -0.5120 H       
  51 H51            1.6711    -3.0919     1.3501 H       
  52 H52            2.7450    -4.4375     0.8983 H       
  53 H53            3.0861    -3.4783     2.3583 H       
  54 H54            7.3755    -3.5506     2.9266 H       
  55 H55            7.0344    -4.5099     1.4666 H       
  56 H56            7.6012    -2.8294     1.3151 H       
  57 H57            2.9456     0.6135     3.1868 H       
  58 H58            4.3606     0.2271     4.1950 H       
  59 H59            4.5863     0.9483     2.5835 H       
  60 H60           -2.6831    -2.0240    -0.1572 H       
  61 H61           -2.8305    -4.4790    -0.0677 H       
  62 H62            0.9062    -4.7685    -2.1281 H       
  63 H63            1.0385    -2.3127    -2.2213 H       
  64 H64            0.2226    -6.4021    -2.6967 H       
  65 H65            1.0115    -6.5606    -1.1092 H       
  66 H66           -0.9638    -8.5434    -2.3284 H       
  67 H67            0.7981    -8.7697    -2.2037 H       
  68 H68            0.6581    -8.6527     0.2568 H       
  69 H69           -2.3480    -8.3879    -0.2105 H       
  70 H70           -1.5385    -8.5072     1.3710 H       
  71 H71           -0.3056    -6.4127     0.9059 H       
  72 H72           -2.0619    -6.1455     0.7984 H       
  73 H73           -1.4485   -10.5517    -0.8701 H       
  74 H74            0.3065   -10.8428    -0.9284 H       
  75 H75           -0.4180   -10.3049     1.7478 H       
  76 H76           -0.9043   -12.7040    -0.9034 H       
  77 H77           -1.2925   -15.1238    -0.5075 H       
  78 H78           -1.3525   -15.9544     1.8353 H       
  79 H79           -1.0277   -14.3695     3.6867 H       
@<TRIPOS>BOND
   1    1    2 1
   2    1    4 2
   3    1    5 1
   4    2    3 1
   5    2    8 1
   6    2   38 1
   7    3   18 1
   8    3   39 1
   9    3   40 1
  10    5   41 1
  11    6    7 2
  12    6    8 am
  13    6    9 1
  14    8   42 1
  15    9   10 1
  16    9   14 1
  17    9   43 1
  18   10   11 1
  19   10   17 1
  20   10   44 1
  21   11   12 1
  22   11   45 1
  23   11   46 1
  24   12   13 1
  25   12   16 1
  26   12   47 1
  27   13   14 1
  28   13   48 1
  29   13   49 1
  30   14   15 1
  31   14   50 1
  32   15   51 1
  33   15   52 1
  34   15   53 1
  35   16   54 1
  36   16   55 1
  37   16   56 1
  38   17   57 1
  39   17   58 1
  40   17   59 1
  41   18   19 ar
  42   18   23 ar
  43   19   20 ar
  44   19   60 1
  45   20   21 ar
  46   20   61 1
  47   21   22 ar
  48   21   24 1
  49   22   23 ar
  50   22   62 1
  51   23   63 1
  52   24   25 1
  53   24   29 1
  54   25   26 1
  55   25   64 1
  56   25   65 1
  57   26   27 1
  58   26   66 1
  59   26   67 1
  60   27   28 1
  61   27   30 1
  62   27   68 1
  63   28   29 1
  64   28   69 1
  65   28   70 1
  66   29   71 1
  67   29   72 1
  68   30   31 1
  69   30   73 1
  70   30   74 1
  71   31   32 1
  72   31   75 1
  73   32   33 ar
  74   32   37 ar
  75   33   34 ar
  76   33   76 1
  77   34   35 ar
  78   34   77 1
  79   35   36 ar
  80   35   78 1
  81   36   37 ar
  82   36   79 1

#	End of record

