#	Name: ASD01410361
#	Creating user name:	WinNT
#	Creation time:	15. 06. 2019 19:17

#	Modifying user name:	WinNT
#	Modification time:	15. 06. 2019 19:17

#	Program:	/corina/corina34_cracker 3.40 0067  02.08.2006

@<TRIPOS>MOLECULE
ASD01410361
  80   86    0    0    0
SMALL
NO_CHARGES


@<TRIPOS>ATOM
   1 N1             0.0812     1.5590     0.4246 N.pl3   
   2 C2             0.1224     0.1911     0.5698 C.2     
   3 C3            -1.1471    -0.2886     0.6640 C.2     
   4 C4            -2.0328     0.8106     0.5760 C.ar    
   5 C5            -1.2376     1.9664     0.4314 C.ar    
   6 C6            -3.4310     0.9225     0.6112 C.ar    
   7 C7            -4.0195     2.1442     0.4996 C.ar    
   8 C8            -3.2366     3.2990     0.3490 C.ar    
   9 C9            -1.8454     3.2065     0.3200 C.ar    
  10 C10           -2.3268    -1.9003     2.1336 C.3     
  11 C11           -2.7256    -3.3676     2.3042 C.3     
  12 C12           -3.5962    -3.8002     1.1228 C.3     
  13 C13           -2.8092    -3.6337    -0.1786 C.3     
  14 C14           -2.4105    -2.1664    -0.3493 C.3     
  15 C15           -1.5399    -1.7338     0.8321 C.3     
  16 C16            1.2453     2.4384     0.2912 C.3     
  17 C17            1.5969     2.5886    -1.1665 C.2     
  18 O18            0.9398     2.0174    -2.0108 O.2     
  19 C19            2.9966     3.5140    -2.9491 C.3     
  20 N20            2.6415     3.3578    -1.5320 N.am    
  21 C21            3.4466     4.0565    -0.5208 C.3     
  22 C22            4.4756     3.1580    -3.1290 C.3     
  23 C23            4.9207     3.6944    -0.7279 C.3     
  24 C24            5.3197     4.0037    -2.1727 C.3     
  25 C25            8.6345     4.4937    -3.6556 C.3     
  26 C26            7.1740     4.0134    -3.7424 C.3     
  27 N27            6.7415     3.6888    -2.3658 N.3     
  28 C28            7.5950     4.5094    -1.4691 C.3     
  29 C29            8.9852     4.4499    -2.1506 C.3     
  30 C30            5.6091    -2.3940    -0.3461 C.ar    
  31 C31            5.3756    -3.2579     0.7154 C.ar    
  32 C32            4.1959    -3.1851     1.4191 C.ar    
  33 C33            3.2264    -2.2417     1.0696 C.ar    
  34 C34            3.4569    -1.3682     0.0001 C.ar    
  35 C35            4.6794    -1.4675    -0.7041 C.ar    
  36 S36            1.6457    -1.9120     1.7697 S.3     
  37 C37            1.3471    -0.6244     0.6155 C.2     
  38 C38            2.3836    -0.4857    -0.2161 C.2     
  39 C39           -3.8871     4.6159     0.2283 C.2     
  40 O40           -3.2116     5.6176     0.0977 O.2     
  41 O41           -5.2312     4.7093     0.2627 O.3     
  42 H42           -4.0404     0.0383     0.7265 H       
  43 H43           -5.0961     2.2256     0.5268 H       
  44 H44           -1.2448     4.0966     0.2044 H       
  45 H45           -3.2237    -1.2819     2.0975 H       
  46 H46           -1.7066    -1.5921     2.9752 H       
  47 H47           -1.8287    -3.9860     2.3403 H       
  48 H48           -3.2862    -3.4862     3.2314 H       
  49 H49           -3.8803    -4.8455     1.2444 H       
  50 H50           -4.4931    -3.1818     1.0868 H       
  51 H51           -1.9124    -4.2521    -0.1426 H       
  52 H52           -3.4295    -3.9419    -1.0203 H       
  53 H53           -1.8498    -2.0478    -1.2765 H       
  54 H54           -3.3074    -1.5480    -0.3853 H       
  55 H55           -0.6430    -2.3522     0.8682 H       
  56 H56            1.0117     3.4167     0.7113 H       
  57 H57            2.0907     2.0058     0.8261 H       
  58 H58            2.3838     2.8466    -3.5550 H       
  59 H59            2.8292     4.5464    -3.2561 H       
  60 H60            3.3160     5.1331    -0.6298 H       
  61 H61            3.1308     3.7470     0.4754 H       
  62 H62            4.6249     2.1011    -2.9083 H       
  63 H63            4.7765     3.3616    -4.1567 H       
  64 H64            5.5382     4.2798    -0.0467 H       
  65 H65            5.0658     2.6324    -0.5298 H       
  66 H66            5.1510     5.0609    -2.3776 H       
  67 H67            9.2870     3.8238    -4.2158 H       
  68 H68            8.7211     5.5119    -4.0348 H       
  69 H69            6.5465     4.8051    -4.1519 H       
  70 H70            7.1120     3.1246    -4.3704 H       
  71 H71            7.2316     5.5361    -1.4255 H       
  72 H72            7.6367     4.0723    -0.4714 H       
  73 H73            9.4977     3.5209    -1.9009 H       
  74 H74            9.5896     5.3125    -1.8701 H       
  75 H75            6.5400    -2.4551    -0.8903 H       
  76 H76            6.1219    -3.9891     0.9890 H       
  77 H77            4.0184    -3.8594     2.2438 H       
  78 H78            4.8763    -0.8028    -1.5323 H       
  79 H79            2.3964     0.2552    -1.0018 H       
  80 H80           -5.6120     5.5942     0.1797 H       
@<TRIPOS>BOND
   1    1    2 1
   2    1   16 1
   3    1    5 1
   4    2    3 2
   5    2   37 1
   6    3    4 1
   7    3   15 1
   8    4    5 ar
   9    4    6 ar
  10    5    9 ar
  11    6    7 ar
  12    6   42 1
  13    7    8 ar
  14    7   43 1
  15    8    9 ar
  16    8   39 1
  17    9   44 1
  18   10   11 1
  19   10   15 1
  20   10   45 1
  21   10   46 1
  22   11   12 1
  23   11   47 1
  24   11   48 1
  25   12   13 1
  26   12   49 1
  27   12   50 1
  28   13   14 1
  29   13   51 1
  30   13   52 1
  31   14   15 1
  32   14   53 1
  33   14   54 1
  34   15   55 1
  35   16   17 1
  36   16   56 1
  37   16   57 1
  38   17   18 2
  39   17   20 am
  40   19   20 1
  41   19   22 1
  42   19   58 1
  43   19   59 1
  44   20   21 1
  45   21   23 1
  46   21   60 1
  47   21   61 1
  48   22   24 1
  49   22   62 1
  50   22   63 1
  51   23   24 1
  52   23   64 1
  53   23   65 1
  54   24   27 1
  55   24   66 1
  56   25   26 1
  57   25   29 1
  58   25   67 1
  59   25   68 1
  60   26   27 1
  61   26   69 1
  62   26   70 1
  63   27   28 1
  64   28   29 1
  65   28   71 1
  66   28   72 1
  67   29   73 1
  68   29   74 1
  69   30   31 ar
  70   30   35 ar
  71   30   75 1
  72   31   32 ar
  73   31   76 1
  74   32   33 ar
  75   32   77 1
  76   33   34 ar
  77   33   36 1
  78   34   35 ar
  79   34   38 1
  80   35   78 1
  81   36   37 1
  82   37   38 2
  83   38   79 1
  84   39   40 2
  85   39   41 1
  86   41   80 1

#	End of record

