#	Name: ASD01910125
#	Creating user name:	WinNT
#	Creation time:	15. 06. 2019 19:55

#	Modifying user name:	WinNT
#	Modification time:	15. 06. 2019 19:55

#	Program:	/corina/corina34_cracker 3.40 0067  02.08.2006

@<TRIPOS>MOLECULE
ASD01910125
  42   45    0    0    0
SMALL
NO_CHARGES


@<TRIPOS>ATOM
   1 C1             0.1129     0.5037     0.4065 C.ar    
   2 C2             0.3433    -0.8587     0.4528 C.ar    
   3 C3             1.6381    -1.3562     0.3883 C.ar    
   4 C4             2.7053    -0.4814     0.2769 C.ar    
   5 C5             2.4714     0.9088     0.2295 C.ar    
   6 C6             1.1729     1.3925     0.2949 C.ar    
   7 C7             4.1713    -0.6475     0.1859 C.2     
   8 N8             4.7351     0.5704     0.0927 N.am    
   9 C9             3.8016     1.5387     0.1116 C.2     
  10 C10            6.1763     0.8105    -0.0146 C.3     
  11 C11            6.6013     0.6809    -1.4546 C.ar    
  12 C12            6.4506     1.7541    -2.3229 C.ar    
  13 C13            6.8433     1.6313    -3.6497 C.ar    
  14 C14            7.3823     0.4430    -4.1016 C.ar    
  15 C15            7.5313    -0.6250    -3.2340 C.ar    
  16 C16            7.1462    -0.5035    -1.9106 C.ar    
  17 N17            5.9039     2.9565    -1.8625 N.am    
  18 C18            5.3571     3.8260    -2.7351 C.2     
  19 C19            4.8843     5.1487    -2.2648 C.ar    
  20 O20            5.2520     3.5248    -3.9078 O.2     
  21 O21            4.0169     2.7321     0.0429 O.2     
  22 O22            4.7669    -1.7059     0.1939 O.2     
  23 Cl23           8.2087    -2.1177    -3.8057 Cl      
  24 C24            4.3201     6.0428    -3.1716 C.ar    
  25 C25            3.8818     7.2767    -2.7165 C.ar    
  26 C26            4.0233     7.5730    -1.3701 C.ar    
  27 C27            4.5941     6.6351    -0.5243 C.ar    
  28 N28            4.9969     5.4698    -0.9816 N.ar    
  29 Cl29          -0.9955    -1.9550     0.5931 Cl      
  30 Cl30           0.8751     3.1017     0.2367 Cl      
  31 H31           -0.8989     0.8786     0.4529 H       
  32 H32            1.8120    -2.4215     0.4253 H       
  33 H33            6.4049     1.8145     0.3428 H       
  34 H34            6.7125     0.0788     0.5897 H       
  35 H35            6.7269     2.4643    -4.3271 H       
  36 H36            7.6874     0.3469    -5.1331 H       
  37 H37            7.2636    -1.3385    -1.2357 H       
  38 H38            5.9184     3.1645    -0.9152 H       
  39 H39            4.2258     5.7787    -4.2146 H       
  40 H40            3.4405     7.9910    -3.3958 H       
  41 H41            3.6923     8.5257    -0.9837 H       
  42 H42            4.7058     6.8627     0.5255 H       
@<TRIPOS>BOND
   1    1    2 ar
   2    1    6 ar
   3    1   31 1
   4    2    3 ar
   5    2   29 1
   6    3    4 ar
   7    3   32 1
   8    4    5 ar
   9    4    7 1
  10    5    6 ar
  11    5    9 1
  12    6   30 1
  13    7    8 am
  14    7   22 2
  15    8    9 am
  16    8   10 1
  17    9   21 2
  18   10   11 1
  19   10   33 1
  20   10   34 1
  21   11   12 ar
  22   11   16 ar
  23   12   13 ar
  24   12   17 1
  25   13   14 ar
  26   13   35 1
  27   14   15 ar
  28   14   36 1
  29   15   16 ar
  30   15   23 1
  31   16   37 1
  32   17   18 am
  33   17   38 1
  34   18   19 1
  35   18   20 2
  36   19   24 ar
  37   19   28 ar
  38   24   25 ar
  39   24   39 1
  40   25   26 ar
  41   25   40 1
  42   26   27 ar
  43   26   41 1
  44   27   28 ar
  45   27   42 1

#	End of record

