#	Name: ASD01190021
#	Creating user name:	WinNT
#	Creation time:	15. 06. 2019 19:07

#	Modifying user name:	WinNT
#	Modification time:	15. 06. 2019 19:07

#	Program:	/corina/corina34_cracker 3.40 0067  02.08.2006

@<TRIPOS>MOLECULE
ASD01190021
  63   66    0    0    0
SMALL
NO_CHARGES


@<TRIPOS>ATOM
   1 C1            -0.0187     1.5279     0.0104 C.3     
   2 C2            -3.6704    -0.2727     5.2518 C.ar    
   3 C3            -2.8791     0.0744     6.3370 C.ar    
   4 C4            -1.5473     0.3974     6.1429 C.ar    
   5 C5            -0.9881     0.3689     4.8721 C.ar    
   6 C6            -1.7903     0.0364     3.7931 C.ar    
   7 C7            -3.1207    -0.2882     3.9846 C.ar    
   8 C8             0.4781     0.6940     4.7504 C.3     
   9 C9             0.9023     0.8916     3.2879 C.3     
  10 C10            0.2744    -0.2542     2.5024 C.3     
  11 C11           -1.2234     0.0606     2.4043 C.3     
  12 C12            0.8419    -0.5731     1.1635 C.3     
  13 C13            0.0021    -0.0041     0.0020 C.3     
  14 C14           -1.4024    -0.5503    -0.0125 C.3     
  15 C15           -1.8896    -0.8712     1.4134 C.3     
  16 C16            2.2439    -0.0435     0.8324 C.3     
  17 C17            2.3219    -0.1989    -0.7119 C.3     
  18 C18            0.8697    -0.4198    -1.2046 C.3     
  19 O19           -3.4115     0.0993     7.5875 O.3     
  20 O20            0.6480    -1.8150    -1.5209 O.3     
  21 C21            0.8783    -2.1979    -2.7909 C.2     
  22 N22            0.6912    -3.4830    -3.1518 N.am    
  23 O23            1.2547    -1.3850    -3.6119 O.2     
  24 C24            0.9418    -3.8996    -4.5337 C.3     
  25 C25            0.6554    -5.3959    -4.6752 C.3     
  26 C26            0.9171    -5.8311    -6.1184 C.3     
  27 C27            0.6308    -7.3274    -6.2598 C.3     
  28 C28            0.8924    -7.7625    -7.7031 C.3     
  29 H29            0.9803     1.9060    -0.2066 H       
  30 H30           -0.7153     1.8860    -0.7476 H       
  31 H31           -0.3359     1.8816     0.9915 H       
  32 H32           -4.7135    -0.5222     5.3944 H       
  33 H33           -0.9397     0.6829     6.9895 H       
  34 H34           -3.7463    -0.5483     3.1424 H       
  35 H35            0.6935     1.6050     5.3067 H       
  36 H36            1.0575    -0.1269     5.1729 H       
  37 H37            0.5198     1.8460     2.9315 H       
  38 H38            1.9848     0.8561     3.2108 H       
  39 H39            0.3693    -1.1630     3.1309 H       
  40 H40           -1.3406     1.0878     2.0578 H       
  41 H41            0.8809    -1.6777     1.0538 H       
  42 H42           -2.0778     0.1925    -0.4621 H       
  43 H43           -1.4507    -1.4554    -0.6237 H       
  44 H44           -1.6564    -1.9098     1.6571 H       
  45 H45           -2.9762    -0.7406     1.4564 H       
  46 H46            2.3590     0.9953     1.1266 H       
  47 H47            3.0066    -0.6611     1.3106 H       
  48 H48            2.7368     0.7011    -1.1595 H       
  49 H49            2.9373    -1.0636    -0.9673 H       
  50 H50            0.6449     0.2214    -2.0500 H       
  51 H51           -3.3452    -0.7417     8.0601 H       
  52 H52            0.3907    -4.1319    -2.4965 H       
  53 H53            0.2910    -3.3401    -5.2056 H       
  54 H54            1.9831    -3.7032    -4.7893 H       
  55 H55            1.3063    -5.9555    -4.0033 H       
  56 H56           -0.3858    -5.5923    -4.4196 H       
  57 H57            0.2663    -5.2715    -6.7903 H       
  58 H58            1.9584    -5.6347    -6.3740 H       
  59 H59            1.2816    -7.8870    -5.5880 H       
  60 H60           -0.4105    -7.5238    -6.0043 H       
  61 H61            0.6884    -8.8285    -7.8039 H       
  62 H62            0.2416    -7.2030    -8.3750 H       
  63 H63            1.9337    -7.5661    -7.9587 H       
@<TRIPOS>BOND
   1    1   13 1
   2    1   29 1
   3    1   30 1
   4    1   31 1
   5    2    3 ar
   6    2    7 ar
   7    2   32 1
   8    3    4 ar
   9    3   19 1
  10    4    5 ar
  11    4   33 1
  12    5    6 ar
  13    5    8 1
  14    6    7 ar
  15    6   11 1
  16    7   34 1
  17    8    9 1
  18    8   35 1
  19    8   36 1
  20    9   10 1
  21    9   37 1
  22    9   38 1
  23   10   11 1
  24   10   12 1
  25   10   39 1
  26   11   15 1
  27   11   40 1
  28   12   13 1
  29   12   16 1
  30   12   41 1
  31   13   14 1
  32   13   18 1
  33   14   15 1
  34   14   42 1
  35   14   43 1
  36   15   44 1
  37   15   45 1
  38   16   17 1
  39   16   46 1
  40   16   47 1
  41   17   18 1
  42   17   48 1
  43   17   49 1
  44   18   20 1
  45   18   50 1
  46   19   51 1
  47   20   21 1
  48   21   22 am
  49   21   23 2
  50   22   24 1
  51   22   52 1
  52   24   25 1
  53   24   53 1
  54   24   54 1
  55   25   26 1
  56   25   55 1
  57   25   56 1
  58   26   27 1
  59   26   57 1
  60   26   58 1
  61   27   28 1
  62   27   59 1
  63   27   60 1
  64   28   61 1
  65   28   62 1
  66   28   63 1

#	End of record

