#	Name: ASD01883354
#	Creating user name:	WinNT
#	Creation time:	15. 06. 2019 19:46

#	Modifying user name:	WinNT
#	Modification time:	15. 06. 2019 19:46

#	Program:	/corina/corina34_cracker 3.40 0067  02.08.2006

@<TRIPOS>MOLECULE
ASD01883354
  48   50    0    0    0
SMALL
NO_CHARGES


@<TRIPOS>ATOM
   1 N1             0.0021     1.3082    -0.0152 N.am    
   2 C2            -0.7518     1.3829     1.0973 C.2     
   3 C3            -1.9997     0.7182     1.1499 C.2     
   4 C4            -2.4239    -0.0108     0.0261 C.2     
   5 C5            -1.5912    -0.0513    -1.1076 C.2     
   6 C6            -0.4117     0.6073    -1.1028 C.2     
   7 O7            -0.3596     2.0222     2.0588 O.2     
   8 C8            -2.8143     0.7866     2.3257 C.1     
   9 N9            -3.4606     0.8409     3.2584 N.1     
  10 C10            1.2919     2.0017    -0.0562 C.3     
  11 C11            2.3909     1.0649     0.4490 C.3     
  12 C12            3.7380     1.7891     0.4061 C.3     
  13 C13            4.8370     0.8523     0.9114 C.3     
  14 N14           -3.6309    -0.6732     0.0341 N.pl3   
  15 C15           -4.8964     0.0654     0.1606 C.3     
  16 C16           -5.8354    -0.3813    -0.9650 C.3     
  17 N17           -5.9647    -1.8444    -0.9388 N.3     
  18 C18           -4.6754    -2.4981    -1.1997 C.3     
  19 C19           -3.6892    -2.1376    -0.0898 C.3     
  20 C20           -6.9328    -2.2751    -1.8386 C.ar    
  21 C21           -7.2037    -3.6338    -1.9614 C.ar    
  22 C22           -8.1699    -4.0486    -2.8605 C.ar    
  23 C23           -8.8349    -3.0868    -3.6091 C.ar    
  24 C24           -8.5153    -1.7549    -3.4360 C.ar    
  25 N25           -7.5926    -1.3878    -2.5672 N.ar    
  26 H26           -1.8967    -0.6057    -1.9826 H       
  27 H27            0.2190     0.5690    -1.9787 H       
  28 H28            1.5116     2.3000    -1.0814 H       
  29 H29            1.2488     2.8869     0.5784 H       
  30 H30            2.1712     0.7666     1.4741 H       
  31 H31            2.4340     0.1797    -0.1856 H       
  32 H32            3.9577     2.0874    -0.6190 H       
  33 H33            3.6949     2.6743     1.0408 H       
  34 H34            4.8801    -0.0329     0.2767 H       
  35 H35            5.7967     1.3683     0.8808 H       
  36 H36            4.6173     0.5540     1.9365 H       
  37 H37           -5.3527    -0.1526     1.1262 H       
  38 H38           -4.7061     1.1353     0.0757 H       
  39 H39           -6.8159     0.0731    -0.8226 H       
  40 H40           -5.4256    -0.0696    -1.9257 H       
  41 H41           -4.8145    -3.5788    -1.2275 H       
  42 H42           -4.2817    -2.1568    -2.1571 H       
  43 H43           -2.7011    -2.5253    -0.3378 H       
  44 H44           -4.0273    -2.5657     0.8538 H       
  45 H45           -6.6669    -4.3553    -1.3633 H       
  46 H46           -8.4014    -5.0970    -2.9777 H       
  47 H47           -9.5943    -3.3777    -4.3198 H       
  48 H48           -9.0299    -1.0034    -4.0165 H       
@<TRIPOS>BOND
   1    1    2 am
   2    1   10 1
   3    1    6 1
   4    2    3 1
   5    2    7 2
   6    3    4 2
   7    3    8 1
   8    4    5 1
   9    4   14 1
  10    5    6 2
  11    5   26 1
  12    6   27 1
  13    8    9 3
  14   10   11 1
  15   10   28 1
  16   10   29 1
  17   11   12 1
  18   11   30 1
  19   11   31 1
  20   12   13 1
  21   12   32 1
  22   12   33 1
  23   13   34 1
  24   13   35 1
  25   13   36 1
  26   14   15 1
  27   14   19 1
  28   15   16 1
  29   15   37 1
  30   15   38 1
  31   16   17 1
  32   16   39 1
  33   16   40 1
  34   17   18 1
  35   17   20 1
  36   18   19 1
  37   18   41 1
  38   18   42 1
  39   19   43 1
  40   19   44 1
  41   20   21 ar
  42   20   25 ar
  43   21   22 ar
  44   21   45 1
  45   22   23 ar
  46   22   46 1
  47   23   24 ar
  48   23   47 1
  49   24   25 ar
  50   24   48 1

#	End of record

