#	Name: ASD03331483
#	Creating user name:	WinNT
#	Creation time:	15. 06. 2019 20:39

#	Modifying user name:	WinNT
#	Modification time:	15. 06. 2019 20:39

#	Program:	/corina/corina34_cracker 3.40 0067  02.08.2006

@<TRIPOS>MOLECULE
ASD03331483
  57   59    0    0    0
SMALL
NO_CHARGES


@<TRIPOS>ATOM
   1 C1            -0.0109     0.7116     1.7944 C.ar    
   2 C2             0.0321    -0.7044     1.3686 C.2     
   3 N3            -0.9528    -1.6206     1.5593 N.pl3   
   4 C4            -0.5233    -2.8012     1.0265 C.2     
   5 C5             0.7143    -2.5839     0.5171 C.2     
   6 N6             1.0273    -1.2861     0.7370 N.2     
   7 C7             1.5632    -3.5803    -0.1598 C.2     
   8 N8             2.7796    -3.2276    -0.6206 N.am    
   9 C9            -0.9363     1.1263     2.7525 C.ar    
  10 O10            1.1661    -4.7210    -0.3025 O.2     
  11 C11            3.6235    -4.2182    -1.2935 C.3     
  12 C12            3.2449    -4.2891    -2.7743 C.3     
  13 C13            5.0702    -3.8169    -1.1636 C.2     
  14 C14            1.8180    -4.8241    -2.9108 C.3     
  15 C15           -2.2588    -1.4526     2.2027 C.3     
  16 C16           -3.1463    -2.6377     1.8006 C.3     
  17 N17           -2.4250    -3.8986     2.0233 N.3     
  18 C18           -1.3361    -4.0700     1.0446 C.3     
  19 C19            3.3261    -2.8904    -3.3890 C.3     
  20 O20            5.3603    -2.6656    -0.9161 O.2     
  21 C21           -0.9721     2.4498     3.1465 C.ar    
  22 C22           -0.0897     3.3650     2.5901 C.ar    
  23 C23            0.8302     2.9563     1.6381 C.ar    
  24 C24            0.8779     1.6355     1.2434 C.ar    
  25 F25           -0.1280     4.6586     2.9776 F       
  26 F26           -1.8674     2.8538     4.0741 F       
  27 C27           -3.3448    -5.0436     1.9933 C.3     
  28 C28           -4.4228    -2.6262     2.6439 C.3     
  29 N29            6.0418    -4.7374    -1.3223 N.am    
  30 C30            7.4412    -4.3736    -1.0867 C.3     
  31 H31            3.0963    -2.3179    -0.5068 H       
  32 H32           -1.6236     0.4142     3.1850 H       
  33 H33            3.4746    -5.1950    -0.8333 H       
  34 H34            3.9339    -4.9550    -3.2939 H       
  35 H35            1.1178    -4.1034    -2.4886 H       
  36 H36            1.5877    -4.9800    -3.9648 H       
  37 H37            1.7320    -5.7702    -2.3764 H       
  38 H38           -2.1360    -1.4358     3.2856 H       
  39 H39           -2.7160    -0.5209     1.8693 H       
  40 H40           -3.4092    -2.5521     0.7462 H       
  41 H41           -1.7552    -4.2532     0.0553 H       
  42 H42           -0.7045    -4.9081     1.3391 H       
  43 H43            4.3427    -2.5092    -3.2917 H       
  44 H44            3.0565    -2.9409    -4.4439 H       
  45 H45            2.6372    -2.2246    -2.8693 H       
  46 H46            1.5144     3.6724     1.2076 H       
  47 H47            1.5957     1.3187     0.5012 H       
  48 H48           -3.8366    -5.0892     1.0216 H       
  49 H49           -2.7851    -5.9638     2.1608 H       
  50 H50           -4.0953    -4.9274     2.7752 H       
  51 H51           -4.9618    -1.6941     2.4745 H       
  52 H52           -5.0541    -3.4679     2.3590 H       
  53 H53           -4.1620    -2.7085     3.6990 H       
  54 H54            5.8144    -5.6409    -1.5926 H       
  55 H55            7.7268    -3.5697    -1.7651 H       
  56 H56            7.5611    -4.0392    -0.0562 H       
  57 H57            8.0769    -5.2412    -1.2634 H       
@<TRIPOS>BOND
   1    1    2 1
   2    1    9 ar
   3    1   24 ar
   4    2    3 1
   5    2    6 2
   6    3    4 1
   7    3   15 1
   8    4    5 2
   9    4   18 1
  10    5    6 1
  11    5    7 1
  12    7    8 am
  13    7   10 2
  14    8   11 1
  15    8   31 1
  16    9   21 ar
  17    9   32 1
  18   11   12 1
  19   11   13 1
  20   11   33 1
  21   12   14 1
  22   12   19 1
  23   12   34 1
  24   13   20 2
  25   13   29 am
  26   14   35 1
  27   14   36 1
  28   14   37 1
  29   15   16 1
  30   15   38 1
  31   15   39 1
  32   16   17 1
  33   16   28 1
  34   16   40 1
  35   17   18 1
  36   17   27 1
  37   18   41 1
  38   18   42 1
  39   19   43 1
  40   19   44 1
  41   19   45 1
  42   21   22 ar
  43   21   26 1
  44   22   23 ar
  45   22   25 1
  46   23   24 ar
  47   23   46 1
  48   24   47 1
  49   27   48 1
  50   27   49 1
  51   27   50 1
  52   28   51 1
  53   28   52 1
  54   28   53 1
  55   29   30 1
  56   29   54 1
  57   30   55 1
  58   30   56 1
  59   30   57 1

#	End of record

