#	Name: ASD01150054
#	Creating user name:	WinNT
#	Creation time:	15. 06. 2019 19:03

#	Modifying user name:	WinNT
#	Modification time:	15. 06. 2019 19:03

#	Program:	/corina/corina34_cracker 3.40 0067  02.08.2006

@<TRIPOS>MOLECULE
ASD01150054
  62   65    0    0    0
SMALL
NO_CHARGES


@<TRIPOS>ATOM
   1 C1            -0.0167     1.3786     0.0096 C.ar    
   2 C2             0.0021    -0.0041     0.0020 C.ar    
   3 C3             1.2066    -0.6797    -0.0132 C.ar    
   4 C4             2.3995     0.0309    -0.0208 C.ar    
   5 C5             2.3774     1.4192    -0.0131 C.ar    
   6 C6             1.1696     2.0891     0.0021 C.ar    
   7 N7             3.6229    -0.6515    -0.0357 N.pl3   
   8 C8             4.5713    -0.6380    -1.0611 C.2     
   9 C9             5.6110    -1.4538    -0.6318 C.2     
  10 N10            5.2905    -1.9202     0.5784 N.2     
  11 C11            4.1178    -1.4495     0.9476 C.2     
  12 C12            4.4899     0.0602    -2.2826 C.2     
  13 O13            5.3973    -0.0191    -3.0909 O.2     
  14 O14            3.4057     0.8172    -2.5567 O.3     
  15 C15            3.3901     1.4972    -3.8135 C.3     
  16 C16            3.4747     0.4741    -4.9480 C.3     
  17 C17            2.0928     2.2976    -3.9442 C.3     
  18 C18            4.5862     2.4478    -3.8938 C.3     
  19 N19            3.4875    -1.7287     2.1382 N.3     
  20 C20            4.2981    -2.6344     2.9633 C.3     
  21 C21            3.1701    -0.4940     2.8681 C.3     
  22 N22            6.7755    -1.7349    -1.3358 N.am    
  23 C23            7.7077    -2.5472    -0.7995 C.2     
  24 S24            7.4736    -3.1875     0.6469 S.2     
  25 C25            8.9707    -2.8521    -1.5630 C.3     
  26 C26            9.8539    -1.5984    -1.6243 C.3     
  27 O27           11.0479    -1.9261    -2.3433 O.3     
  28 C28           11.6668    -3.0896    -2.0032 C.ar    
  29 C29           10.9944    -4.0683    -1.2810 C.ar    
  30 O30            9.7031    -3.8837    -0.8927 O.3     
  31 C31           12.9842    -3.2967    -2.3845 C.ar    
  32 C32           13.6253    -4.4740    -2.0488 C.ar    
  33 C33           12.9556    -5.4487    -1.3327 C.ar    
  34 C34           11.6434    -5.2480    -0.9482 C.ar    
  35 H35           -0.9598     1.9047     0.0170 H       
  36 H36           -0.9261    -0.5562     0.0083 H       
  37 H37            1.2206    -1.7596    -0.0187 H       
  38 H38            3.3036     1.9747    -0.0187 H       
  39 H39            1.1517     3.1689     0.0081 H       
  40 H40            2.6226    -0.2032    -4.8907 H       
  41 H41            3.4628     0.9927    -5.9066 H       
  42 H42            4.3989    -0.0962    -4.8548 H       
  43 H43            2.0325     3.0265    -3.1360 H       
  44 H44            2.0809     2.8162    -4.9029 H       
  45 H45            1.2406     1.6203    -3.8870 H       
  46 H46            5.5105     1.8776    -3.8007 H       
  47 H47            4.5743     2.9665    -4.8525 H       
  48 H48            4.5260     3.1767    -3.0856 H       
  49 H49            5.2595    -2.1678     3.1778 H       
  50 H50            3.7766    -2.8386     3.8984 H       
  51 H51            4.4596    -3.5688     2.4258 H       
  52 H52            2.5115     0.1276     2.2614 H       
  53 H53            2.6725    -0.7436     3.8052 H       
  54 H54            4.0906     0.0501     3.0792 H       
  55 H55            6.9176    -1.3465    -2.2132 H       
  56 H56            8.7204    -3.1752    -2.5735 H       
  57 H57            9.3219    -0.7989    -2.1400 H       
  58 H58           10.1092    -1.2788    -0.6139 H       
  59 H59           13.5094    -2.5373    -2.9447 H       
  60 H60           14.6512    -4.6331    -2.3466 H       
  61 H61           13.4588    -6.3684    -1.0731 H       
  62 H62           11.1225    -6.0110    -0.3889 H       
@<TRIPOS>BOND
   1    1    2 ar
   2    1    6 ar
   3    1   35 1
   4    2    3 ar
   5    2   36 1
   6    3    4 ar
   7    3   37 1
   8    4    5 ar
   9    4    7 1
  10    5    6 ar
  11    5   38 1
  12    6   39 1
  13    7    8 1
  14    7   11 1
  15    8    9 2
  16    8   12 1
  17    9   10 1
  18    9   22 1
  19   10   11 2
  20   11   19 1
  21   12   13 2
  22   12   14 1
  23   14   15 1
  24   15   16 1
  25   15   17 1
  26   15   18 1
  27   16   40 1
  28   16   41 1
  29   16   42 1
  30   17   43 1
  31   17   44 1
  32   17   45 1
  33   18   46 1
  34   18   47 1
  35   18   48 1
  36   19   20 1
  37   19   21 1
  38   20   49 1
  39   20   50 1
  40   20   51 1
  41   21   52 1
  42   21   53 1
  43   21   54 1
  44   22   23 am
  45   22   55 1
  46   23   24 2
  47   23   25 1
  48   25   26 1
  49   25   30 1
  50   25   56 1
  51   26   27 1
  52   26   57 1
  53   26   58 1
  54   27   28 1
  55   28   29 ar
  56   28   31 ar
  57   29   30 1
  58   29   34 ar
  59   31   32 ar
  60   31   59 1
  61   32   33 ar
  62   32   60 1
  63   33   34 ar
  64   33   61 1
  65   34   62 1

#	End of record

