#	Name: ASD04910221
#	Creating user name:	WinNT
#	Creation time:	15. 06. 2019 20:55

#	Modifying user name:	WinNT
#	Modification time:	15. 06. 2019 20:55

#	Program:	/corina/corina34_cracker 3.40 0067  02.08.2006

@<TRIPOS>MOLECULE
ASD04910221
  23   24    0    0    0
SMALL
NO_CHARGES


@<TRIPOS>ATOM
   1 C1            -0.0168     1.3841     0.0097 C.ar    
   2 C2             0.0021    -0.0041     0.0020 C.ar    
   3 C3             1.2282    -0.6661    -0.0132 C.ar    
   4 C4             2.3858     0.0919    -0.0202 C.ar    
   5 C5             2.2884     1.4775    -0.0118 C.ar    
   6 N6             1.1072     2.0732     0.0026 N.ar    
   7 N7            -1.1940    -0.7286     0.0100 N.pl3   
   8 N8             3.4536     2.2526    -0.0188 N.pl3   
   9 N9             4.7677     1.7673    -0.0344 N.2     
  10 C10            5.5830     2.7909    -0.0365 C.2     
  11 C11            4.8189     3.9637    -0.0223 C.2     
  12 C12            3.5122     3.6104    -0.0175 C.2     
  13 C13            7.0883     2.7192    -0.0511 C.3     
  14 Cl14           5.4380     5.5855    -0.0181 Cl      
  15 H15           -0.9626     1.9053     0.0169 H       
  16 H16            1.2738    -1.7451    -0.0191 H       
  17 H17            3.3533    -0.3880    -0.0316 H       
  18 H18           -2.0440    -0.2615     0.0209 H       
  19 H19           -1.1736    -1.6984     0.0046 H       
  20 H20            2.6690     4.2852    -0.0109 H       
  21 H21            7.4414     2.7080    -1.0823 H       
  22 H22            7.4984     3.5878     0.4640 H       
  23 H23            7.4137     1.8099     0.4543 H       
@<TRIPOS>BOND
   1    1    2 ar
   2    1    6 ar
   3    1   15 1
   4    2    3 ar
   5    2    7 1
   6    3    4 ar
   7    3   16 1
   8    4    5 ar
   9    4   17 1
  10    5    6 ar
  11    5    8 1
  12    7   18 1
  13    7   19 1
  14    8    9 1
  15    8   12 1
  16    9   10 2
  17   10   11 1
  18   10   13 1
  19   11   12 2
  20   11   14 1
  21   12   20 1
  22   13   21 1
  23   13   22 1
  24   13   23 1

#	End of record

