#	Name: ASD00842040
#	Creating user name:	WinNT
#	Creation time:	15. 06. 2019 18:43

#	Modifying user name:	WinNT
#	Modification time:	15. 06. 2019 18:43

#	Program:	/corina/corina34_cracker 3.40 0067  02.08.2006

@<TRIPOS>MOLECULE
ASD00842040
  96  101    0    0    0
SMALL
NO_CHARGES


@<TRIPOS>ATOM
   1 C1             1.0006     1.5551    -0.3870 C.ar    
   2 C2             1.3084     0.2249    -0.6315 C.ar    
   3 C3             1.2415    -0.7012     0.3996 C.ar    
   4 C4             0.8687    -0.2966     1.6665 C.ar    
   5 C5             0.5619     1.0301     1.9076 C.ar    
   6 C6             0.6282     1.9548     0.8821 C.ar    
   7 C7             1.5748    -2.1473     0.1373 C.3     
   8 C8             1.3090    -2.9851     1.3699 C.2     
   9 C9             0.7707    -2.6742    -1.0530 C.3     
  10 C10           -0.6984    -2.4458    -0.8073 C.2     
  11 N11           -1.6094    -2.9206    -1.6798 N.am    
  12 O12           -1.0611    -1.8346     0.1755 O.2     
  13 C13           -3.0360    -2.6102    -1.5156 C.3     
  14 C14           -3.8281    -3.9214    -1.5075 C.3     
  15 C15           -3.4999    -4.7189    -2.7717 C.3     
  16 C16           -2.0073    -5.0564    -2.7908 C.3     
  17 C17           -1.1939    -3.7534    -2.8167 C.3     
  18 C18           -4.3153    -6.0134    -2.7839 C.3     
  19 C19           -5.8091    -5.6774    -2.7666 C.3     
  20 C20           -6.6195    -6.9735    -2.8403 C.3     
  21 N21           -6.2766    -7.6973    -4.0712 N.3     
  22 C22           -4.8569    -8.0721    -4.0888 C.3     
  23 C23           -3.9939    -6.8088    -4.0522 C.3     
  24 C24           -7.1347    -8.8769    -4.2447 C.3     
  25 O25            0.2386    -3.1385     1.9191 O.2     
  26 N26            2.4806    -3.5274     1.7408 N.am    
  27 C27            3.0577    -2.3137    -0.1057 C.ar    
  28 C28            3.5260    -3.1561     0.8998 C.ar    
  29 C29            3.9059    -1.8130    -1.0606 C.ar    
  30 C30            5.2640    -2.1493    -1.0306 C.ar    
  31 C31            5.7419    -2.9956    -0.0227 C.ar    
  32 C32            4.8792    -3.4932     0.9303 C.ar    
  33 F33            7.0513    -3.3262     0.0150 F       
  34 C34            2.4087    -6.1751     2.4883 C.ar    
  35 C35            1.1655    -6.5633     2.0110 C.ar    
  36 C36            3.4504    -7.0823     2.5170 C.ar    
  37 C37            3.2546    -8.3758     2.0703 C.ar    
  38 C38            2.0161    -8.7653     1.5940 C.ar    
  39 C39            0.9714    -7.8623     1.5636 C.ar    
  40 H40            1.8656    -9.7764     1.2455 H       
  41 O41            0.1391    -5.6730     1.9821 O.3     
  42 C42           -1.1129    -6.1423     1.4778 C.3     
  43 C43           -6.8338    -9.5325    -5.5940 C.3     
  44 C44           -6.8608    -9.8768    -3.1195 C.3     
  45 C45            6.1576    -1.6324    -2.0229 C.1     
  46 N46            6.8666    -1.2223    -2.8102 N.1     
  47 S47            2.6612    -4.5245     3.0506 S.o2    
  48 O48            4.0259    -4.4365     3.4367 O.2     
  49 O49            1.5842    -4.2309     3.9298 O.2     
  50 O50            1.6745    -0.1708    -1.8790 O.3     
  51 C51            2.1538     0.2145    -4.2162 C.3     
  52 C52            1.6129     0.8112    -2.9153 C.3     
  53 H53            1.0562     2.2786    -1.1869 H       
  54 H54            0.8165    -1.0170     2.4695 H       
  55 H55            0.2699     1.3444     2.8988 H       
  56 H56            0.3881     2.9903     1.0729 H       
  57 H57            1.0740    -2.1476    -1.9579 H       
  58 H58            0.9574    -3.7413    -1.1737 H       
  59 H59           -3.1895    -2.0847    -0.5731 H       
  60 H60           -3.3718    -1.9857    -2.3434 H       
  61 H61           -3.5562    -4.5053    -0.6281 H       
  62 H62           -4.8955    -3.7016    -1.4829 H       
  63 H63           -3.7491    -4.1247    -3.6509 H       
  64 H64           -1.7524    -5.6296    -1.8994 H       
  65 H65           -1.7786    -5.6444    -3.6797 H       
  66 H66           -1.3805    -3.2247    -3.7514 H       
  67 H67           -0.1320    -3.9838    -2.7306 H       
  68 H68           -4.0658    -6.6094    -1.9061 H       
  69 H69           -6.0523    -5.1481    -1.8453 H       
  70 H70           -6.0505    -5.0480    -3.6231 H       
  71 H71           -6.3879    -7.5963    -1.9763 H       
  72 H72           -7.6835    -6.7369    -2.8426 H       
  73 H73           -4.6335    -8.6898    -3.2189 H       
  74 H74           -4.6407    -8.6335    -4.9977 H       
  75 H75           -4.2067    -6.1972    -4.9290 H       
  76 H76           -2.9402    -7.0878    -4.0495 H       
  77 H77           -8.1810    -8.5728    -4.2138 H       
  78 H78            3.5264    -1.1613    -1.8338 H       
  79 H79            5.2532    -4.1457     1.7054 H       
  80 H80            4.4185    -6.7806     2.8885 H       
  81 H81            4.0703    -9.0833     2.0929 H       
  82 H82            0.0041    -8.1672     1.1922 H       
  83 H83           -0.9872    -6.4779     0.4484 H       
  84 H84           -1.4629    -6.9730     2.0906 H       
  85 H85           -1.8435    -5.3341     1.5099 H       
  86 H86           -5.7875    -9.8366    -5.6248 H       
  87 H87           -7.4705   -10.4078    -5.7227 H       
  88 H88           -7.0289    -8.8202    -6.3956 H       
  89 H89           -7.0751    -9.4097    -2.1582 H       
  90 H90           -7.4975   -10.7520    -3.2482 H       
  91 H91           -5.8145   -10.1809    -3.1503 H       
  92 H92            3.1577    -0.1753    -4.0473 H       
  93 H93            1.5006    -0.5940    -4.5443 H       
  94 H94            2.1886     0.9877    -4.9837 H       
  95 H95            0.5782     1.1217    -3.0606 H       
  96 H96            2.2153     1.6749    -2.6337 H       
@<TRIPOS>BOND
   1    1    2 ar
   2    1    6 ar
   3    1   53 1
   4    2    3 ar
   5    2   50 1
   6    3    4 ar
   7    3    7 1
   8    4    5 ar
   9    4   54 1
  10    5    6 ar
  11    5   55 1
  12    6   56 1
  13    7    8 1
  14    7    9 1
  15    7   27 1
  16    8   25 2
  17    8   26 am
  18    9   10 1
  19    9   57 1
  20    9   58 1
  21   10   11 am
  22   10   12 2
  23   11   13 1
  24   11   17 1
  25   13   14 1
  26   13   59 1
  27   13   60 1
  28   14   15 1
  29   14   61 1
  30   14   62 1
  31   15   16 1
  32   15   18 1
  33   15   63 1
  34   16   17 1
  35   16   64 1
  36   16   65 1
  37   17   66 1
  38   17   67 1
  39   18   19 1
  40   18   23 1
  41   18   68 1
  42   19   20 1
  43   19   69 1
  44   19   70 1
  45   20   21 1
  46   20   71 1
  47   20   72 1
  48   21   22 1
  49   21   24 1
  50   22   23 1
  51   22   73 1
  52   22   74 1
  53   23   75 1
  54   23   76 1
  55   24   43 1
  56   24   44 1
  57   24   77 1
  58   26   47 am
  59   26   28 1
  60   27   28 ar
  61   27   29 ar
  62   28   32 ar
  63   29   30 ar
  64   29   78 1
  65   30   31 ar
  66   30   45 1
  67   31   32 ar
  68   31   33 1
  69   32   79 1
  70   34   35 ar
  71   34   36 ar
  72   34   47 1
  73   35   41 1
  74   35   39 ar
  75   36   37 ar
  76   36   80 1
  77   37   38 ar
  78   37   81 1
  79   38   39 ar
  80   38   40 1
  81   39   82 1
  82   41   42 1
  83   42   83 1
  84   42   84 1
  85   42   85 1
  86   43   86 1
  87   43   87 1
  88   43   88 1
  89   44   89 1
  90   44   90 1
  91   44   91 1
  92   45   46 3
  93   47   48 2
  94   47   49 2
  95   50   52 1
  96   51   52 1
  97   51   92 1
  98   51   93 1
  99   51   94 1
 100   52   95 1
 101   52   96 1

#	End of record

