#	Name: ASD01670029
#	Creating user name:	WinNT
#	Creation time:	15. 06. 2019 19:22

#	Modifying user name:	WinNT
#	Modification time:	15. 06. 2019 19:22

#	Program:	/corina/corina34_cracker 3.40 0067  02.08.2006

@<TRIPOS>MOLECULE
ASD01670029
  39   42    0    0    0
SMALL
NO_CHARGES


@<TRIPOS>ATOM
   1 C1             0.2801     1.6969    -0.1309 C.ar    
   2 C2             0.1659     0.3212    -0.0632 C.ar    
   3 C3             1.5299     2.2832    -0.1833 C.ar    
   4 C4             1.3019    -0.4649    -0.0482 C.ar    
   5 C5             1.9215    -2.9792     1.1879 C.ar    
   6 C6             1.0969    -4.0259     0.8103 C.ar    
   7 C7             3.4982    -3.6002    -0.5169 C.ar    
   8 C8             2.6695     1.4971    -0.1682 C.ar    
   9 C9             2.5553     0.1209    -0.1002 C.ar    
  10 C10            3.1145    -2.7616     0.5342 C.ar    
  11 C11            1.4620    -4.8656    -0.2285 C.ar    
  12 C12            2.6648    -4.6585    -0.8989 C.ar    
  13 C13            4.7736    -3.3709    -1.2196 C.2     
  14 C14            4.1312     1.8874    -0.2148 C.3     
  15 C15            1.4729    -6.1473    -2.0566 C.3     
  16 C16            3.9325    -0.5071    -0.0961 C.3     
  17 C17            4.8983     0.6391     0.2705 C.3     
  18 C18            4.0054    -1.6200     0.9514 C.3     
  19 O19            5.7895    -3.9087    -0.8257 O.2     
  20 O20            4.8128    -2.5648    -2.2987 O.3     
  21 O21            0.8365    -5.9464    -0.7807 O.3     
  22 O22            2.7944    -5.6069    -1.8678 O.3     
  23 O23            6.1382     0.5021    -0.4266 O.3     
  24 H24           -0.6070     2.3127    -0.1473 H       
  25 H25           -0.8103    -0.1388    -0.0218 H       
  26 H26            1.6182     3.3583    -0.2366 H       
  27 H27            1.2119    -1.5398     0.0046 H       
  28 H28            1.6256    -2.3272     1.9965 H       
  29 H29            0.1638    -4.1883     1.3292 H       
  30 H30            4.4234     2.1382    -1.2346 H       
  31 H31            4.3192     2.7295     0.4512 H       
  32 H32            1.5244    -7.2095    -2.2959 H       
  33 H33            0.9438    -5.6027    -2.8386 H       
  34 H34            4.1718    -0.9003    -1.0841 H       
  35 H35            5.0605     0.6785     1.3476 H       
  36 H36            3.6739    -1.2339     1.9153 H       
  37 H37            5.0332    -1.9731     1.0354 H       
  38 H38            5.6719    -2.4450    -2.7262 H       
  39 H39            6.7469     1.2420    -0.2958 H       
@<TRIPOS>BOND
   1    1    2 ar
   2    1    3 ar
   3    1   24 1
   4    2    4 ar
   5    2   25 1
   6    3    8 ar
   7    3   26 1
   8    4    9 ar
   9    4   27 1
  10    5    6 ar
  11    5   10 ar
  12    5   28 1
  13    6   11 ar
  14    6   29 1
  15    7   10 ar
  16    7   12 ar
  17    7   13 1
  18    8    9 ar
  19    8   14 1
  20    9   16 1
  21   10   18 1
  22   11   12 ar
  23   11   21 1
  24   12   22 1
  25   13   19 2
  26   13   20 1
  27   14   17 1
  28   14   30 1
  29   14   31 1
  30   15   21 1
  31   15   22 1
  32   15   32 1
  33   15   33 1
  34   16   17 1
  35   16   18 1
  36   16   34 1
  37   17   23 1
  38   17   35 1
  39   18   36 1
  40   18   37 1
  41   20   38 1
  42   23   39 1

#	End of record

