#	Name: ASD00843618
#	Creating user name:	WinNT
#	Creation time:	15. 06. 2019 18:47

#	Modifying user name:	WinNT
#	Modification time:	15. 06. 2019 18:47

#	Program:	/corina/corina34_cracker 3.40 0067  02.08.2006

@<TRIPOS>MOLECULE
ASD00843618
  93   98    0    0    0
SMALL
NO_CHARGES


@<TRIPOS>ATOM
   1 F1             5.6090    -2.3662    -2.1901 F       
   2 N2             0.7575     1.1436    -0.6248 N.ar    
   3 C3             0.9638    -0.1465    -0.8300 C.ar    
   4 C4             0.8563    -1.0555     0.2150 C.ar    
   5 C5             0.5297    -0.5939     1.4779 C.ar    
   6 C6             0.3210     0.7676     1.6518 C.ar    
   7 C7             0.4447     1.6136     0.5680 C.ar    
   8 C8             1.0918    -2.5247    -0.0237 C.3     
   9 C9             0.7852    -3.3210     1.2267 C.2     
  10 C10            0.2416    -3.0190    -1.1958 C.3     
  11 C11           -1.2048    -2.6769    -0.9466 C.2     
  12 N12           -2.1522    -3.0806    -1.8160 N.am    
  13 O13           -1.5162    -2.0384     0.0364 O.2     
  14 C14           -3.5492    -2.6565    -1.6510 C.3     
  15 C15           -4.4436    -3.9002    -1.6368 C.3     
  16 C16           -4.1823    -4.7260    -2.8985 C.3     
  17 C17           -2.7215    -5.1819    -2.9183 C.3     
  18 C18           -1.8065    -3.9482    -2.9503 C.3     
  19 N19           -5.0621    -5.9023    -2.9044 N.3     
  20 C20           -4.9242    -6.6569    -4.1579 C.3     
  21 C21           -5.7949    -7.9139    -4.0920 C.3     
  22 N22           -7.1941    -7.5261    -3.8653 N.3     
  23 C23           -7.3320    -6.7715    -2.6118 C.3     
  24 C24           -6.4614    -5.5146    -2.6777 C.3     
  25 C25           -8.0740    -8.7024    -3.8713 C.3     
  26 O26           -0.2868    -3.3939     1.7895 O.2     
  27 N27            1.9234    -3.9322     1.5958 N.am    
  28 C28            2.5574    -2.7913    -0.2795 C.ar    
  29 C29            2.9825    -3.6423     0.7330 C.ar    
  30 C30            3.4296    -2.3637    -1.2554 C.ar    
  31 C31            4.7500    -2.7830    -1.2343 C.ar    
  32 C32            5.1864    -3.6324    -0.2288 C.ar    
  33 C33            4.3109    -4.0612     0.7502 C.ar    
  34 F34            6.4735    -4.0424    -0.2064 F       
  35 C35            1.6900    -6.5562     2.3925 C.ar    
  36 C36            0.4185    -6.8714     1.9362 C.ar    
  37 C37            2.6713    -7.5283     2.4263 C.ar    
  38 C38            2.3869    -8.8140     2.0055 C.ar    
  39 C39            1.1202    -9.1308     1.5502 C.ar    
  40 C40            0.1356    -8.1628     1.5148 C.ar    
  41 H41            0.9005   -10.1360     1.2220 H       
  42 O42           -0.5485    -5.9172     1.9024 O.3     
  43 C43           -1.8342    -6.3133     1.4207 C.3     
  44 C44           -2.7838    -5.1141     1.4563 C.3     
  45 C45           -9.4688    -8.2984    -3.3894 C.3     
  46 O46            1.2830    -0.5865    -2.0731 O.3     
  47 C47            1.2881     0.3829    -3.1230 C.3     
  48 C48            1.7709    -0.2714    -4.4190 C.3     
  49 F49            3.0289    -0.8468    -4.2104 F       
  50 F50            0.8632    -1.2627    -4.8072 F       
  51 S51            2.0553    -4.9157     2.9216 S.o2    
  52 O52            3.4275    -4.9094     3.2909 O.2     
  53 O53            1.0104    -4.5376     3.8072 O.2     
  54 H54            0.4388    -1.2772     2.3093 H       
  55 H55            0.0643     1.1606     2.6244 H       
  56 H56            0.2837     2.6736     0.6979 H       
  57 H57            0.5755    -2.5379    -2.1151 H       
  58 H58            0.3481    -4.0995    -1.2917 H       
  59 H59           -3.6586    -2.1170    -0.7103 H       
  60 H60           -3.8353    -2.0102    -2.4808 H       
  61 H61           -4.2177    -4.5007    -0.7557 H       
  62 H62           -5.4899    -3.5955    -1.6116 H       
  63 H63           -4.3846    -4.1170    -3.7795 H       
  64 H64           -2.5118    -5.7703    -2.0251 H       
  65 H65           -2.5420    -5.7895    -3.8053 H       
  66 H66           -1.9519    -3.4096    -3.8867 H       
  67 H67           -0.7663    -4.2624    -2.8647 H       
  68 H68           -5.2455    -6.0353    -4.9937 H       
  69 H69           -3.8818    -6.9434    -4.2971 H       
  70 H70           -5.7167    -8.4601    -5.0320 H       
  71 H71           -5.4561    -8.5484    -3.2731 H       
  72 H72           -8.3745    -6.4850    -2.4727 H       
  73 H73           -7.0107    -7.3931    -1.7760 H       
  74 H74           -6.5396    -4.9683    -1.7377 H       
  75 H75           -6.8001    -4.8800    -3.4967 H       
  76 H76           -8.1407    -9.1012    -4.8835 H       
  77 H77           -7.6665    -9.4643    -3.2067 H       
  78 H78            3.0847    -1.7025    -2.0366 H       
  79 H79            4.6572    -4.7224     1.5307 H       
  80 H80            3.6613    -7.2833     2.7814 H       
  81 H81            3.1555    -9.5723     2.0320 H       
  82 H82           -0.8538    -8.4109     1.1598 H       
  83 H83           -1.7431    -6.6743     0.3963 H       
  84 H84           -2.2296    -7.1087     2.0524 H       
  85 H85           -2.8750    -4.7531     2.4807 H       
  86 H86           -2.3884    -4.3187     0.8246 H       
  87 H87           -3.7645    -5.4163     1.0889 H       
  88 H88           -9.8763    -7.5366    -4.0540 H       
  89 H89          -10.1217    -9.1713    -3.3938 H       
  90 H90           -9.4022    -7.8996    -2.3772 H       
  91 H91            0.2790     0.7697    -3.2653 H       
  92 H92            1.9571     1.2018    -2.8583 H       
  93 H93            1.8419     0.4831    -5.2024 H       
@<TRIPOS>BOND
   1    1   31 1
   2    2    3 ar
   3    2    7 ar
   4    3    4 ar
   5    3   46 1
   6    4    5 ar
   7    4    8 1
   8    5    6 ar
   9    5   54 1
  10    6    7 ar
  11    6   55 1
  12    7   56 1
  13    8    9 1
  14    8   10 1
  15    8   28 1
  16    9   26 2
  17    9   27 am
  18   10   11 1
  19   10   57 1
  20   10   58 1
  21   11   12 am
  22   11   13 2
  23   12   14 1
  24   12   18 1
  25   14   15 1
  26   14   59 1
  27   14   60 1
  28   15   16 1
  29   15   61 1
  30   15   62 1
  31   16   17 1
  32   16   19 1
  33   16   63 1
  34   17   18 1
  35   17   64 1
  36   17   65 1
  37   18   66 1
  38   18   67 1
  39   19   20 1
  40   19   24 1
  41   20   21 1
  42   20   68 1
  43   20   69 1
  44   21   22 1
  45   21   70 1
  46   21   71 1
  47   22   23 1
  48   22   25 1
  49   23   24 1
  50   23   72 1
  51   23   73 1
  52   24   74 1
  53   24   75 1
  54   25   45 1
  55   25   76 1
  56   25   77 1
  57   27   51 am
  58   27   29 1
  59   28   29 ar
  60   28   30 ar
  61   29   33 ar
  62   30   31 ar
  63   30   78 1
  64   31   32 ar
  65   32   33 ar
  66   32   34 1
  67   33   79 1
  68   35   36 ar
  69   35   37 ar
  70   35   51 1
  71   36   42 1
  72   36   40 ar
  73   37   38 ar
  74   37   80 1
  75   38   39 ar
  76   38   81 1
  77   39   40 ar
  78   39   41 1
  79   40   82 1
  80   42   43 1
  81   43   44 1
  82   43   83 1
  83   43   84 1
  84   44   85 1
  85   44   86 1
  86   44   87 1
  87   45   88 1
  88   45   89 1
  89   45   90 1
  90   46   47 1
  91   47   48 1
  92   47   91 1
  93   47   92 1
  94   48   49 1
  95   48   50 1
  96   48   93 1
  97   51   52 2
  98   51   53 2

#	End of record

