#	Name: ASD01916267
#	Creating user name:	WinNT
#	Creation time:	15. 06. 2019 20:07

#	Modifying user name:	WinNT
#	Modification time:	15. 06. 2019 20:07

#	Program:	/corina/corina34_cracker 3.40 0067  02.08.2006

@<TRIPOS>MOLECULE
ASD01916267
  34   36    0    0    0
SMALL
NO_CHARGES


@<TRIPOS>ATOM
   1 C1            -0.0517     1.3252    -0.2459 C.ar    
   2 C2             0.0339    -0.0536    -0.1712 C.ar    
   3 C3             1.2279    -0.6577     0.1717 C.ar    
   4 C4             2.3517     0.1241     0.4433 C.ar    
   5 C5             2.2634     1.5146     0.3669 C.ar    
   6 C6             1.0616     2.1104     0.0228 C.ar    
   7 O7             0.9718     3.4642    -0.0525 O.3     
   8 C8             1.4675     4.0759    -1.1603 C.ar    
   9 C9             1.4021     5.4583    -1.3017 C.ar    
  10 N10            1.8958     6.0159    -2.3950 N.ar    
  11 C11            2.4434     5.2801    -3.3414 C.ar    
  12 N12            2.5238     3.9682    -3.2446 N.ar    
  13 C13            2.0586     3.3362    -2.1796 C.ar    
  14 Cl14          -1.3631    -1.0273    -0.5088 Cl      
  15 C15            3.6311    -0.5186     0.8110 C.2     
  16 N16            3.7137    -1.8618     0.8845 N.am    
  17 O17            4.6085     0.1643     1.0471 O.2     
  18 C18            4.9426    -2.4719     1.1267 C.ar    
  19 C19            5.0429    -3.8572     1.0857 C.ar    
  20 C20            7.3578    -3.6380     1.6033 C.ar    
  21 C21            7.1879    -2.2640     1.6231 C.ar    
  22 N22            6.0049    -1.7257     1.3884 N.ar    
  23 C23            6.2696    -4.4522     1.3277 C.ar    
  24 F24            8.2436    -1.4647     1.8914 F       
  25 H25           -0.9866     1.7923    -0.5185 H       
  26 H26            1.2917    -1.7342     0.2299 H       
  27 H27            3.1297     2.1246     0.5764 H       
  28 H28            0.9545     6.0674    -0.5303 H       
  29 H29            2.8373     5.7661    -4.2217 H       
  30 H30            2.1278     2.2609    -2.1069 H       
  31 H31            2.9176    -2.4038     0.7688 H       
  32 H32            4.1751    -4.4621     0.8683 H       
  33 H33            8.3283    -4.0708     1.7962 H       
  34 H34            6.3765    -5.5266     1.3026 H       
@<TRIPOS>BOND
   1    1    2 ar
   2    1    6 ar
   3    1   25 1
   4    2    3 ar
   5    2   14 1
   6    3    4 ar
   7    3   26 1
   8    4    5 ar
   9    4   15 1
  10    5    6 ar
  11    5   27 1
  12    6    7 1
  13    7    8 1
  14    8    9 ar
  15    8   13 ar
  16    9   10 ar
  17    9   28 1
  18   10   11 ar
  19   11   12 ar
  20   11   29 1
  21   12   13 ar
  22   13   30 1
  23   15   16 am
  24   15   17 2
  25   16   18 1
  26   16   31 1
  27   18   19 ar
  28   18   22 ar
  29   19   23 ar
  30   19   32 1
  31   20   21 ar
  32   20   23 ar
  33   20   33 1
  34   21   22 ar
  35   21   24 1
  36   23   34 1

#	End of record

