#	Name: ASD01916063
#	Creating user name:	WinNT
#	Creation time:	15. 06. 2019 20:06

#	Modifying user name:	WinNT
#	Modification time:	15. 06. 2019 20:06

#	Program:	/corina/corina34_cracker 3.40 0067  02.08.2006

@<TRIPOS>MOLECULE
ASD01916063
  46   48    0    0    0
SMALL
NO_CHARGES


@<TRIPOS>ATOM
   1 C1            -0.0169     1.3974     0.0097 C.ar    
   2 C2             0.0021    -0.0041     0.0020 C.ar    
   3 C3            -1.2070    -0.6758     0.0100 C.ar    
   4 C4            -2.3852     0.0496     0.0252 C.ar    
   5 C5            -3.7040    -0.6796     0.0344 C.3     
   6 C6             1.2059     2.1425     0.0021 C.1     
   7 C7             2.2084     2.7534    -0.0042 C.1     
   8 C8             3.4313     3.4985    -0.0119 C.ar    
   9 C9             3.4015     4.8957    -0.0041 C.ar    
  10 C10            5.8332     3.5545    -0.0288 C.ar    
  11 C11            4.5823     5.6075    -0.0116 C.ar    
  12 N12           -2.3736     1.3687     0.0322 N.ar    
  13 C13           -1.2496     2.0547     0.0192 C.ar    
  14 C14            4.6593     2.8315    -0.0214 C.ar    
  15 C15            5.7971     4.9402    -0.0273 C.ar    
  16 C16           -4.1021    -1.0285    -1.4018 C.3     
  17 C17           -3.5740    -1.9352     0.8480 C.2     
  18 N18           -4.0947    -3.1070     0.4817 N.am    
  19 C19           -4.8106    -3.3281    -0.7685 C.3     
  20 C20           -5.2888    -1.9986    -1.3537 C.3     
  21 O21           -2.9626    -1.8807     1.8939 O.2     
  22 C22           -3.9367    -4.2433     1.3927 C.3     
  23 C23           -3.8800    -4.0161    -1.7693 C.3     
  24 C24           -6.0192    -4.2290    -0.5066 C.3     
  25 F25            6.9507     5.6432    -0.0341 F       
  26 H26            0.9365    -0.5454    -0.0102 H       
  27 H27           -1.2312    -1.7555     0.0041 H       
  28 H28           -4.4681    -0.0404     0.4769 H       
  29 H29            2.4556     5.4168     0.0074 H       
  30 H30            6.7828     3.0402    -0.0411 H       
  31 H31            4.5606     6.6873    -0.0056 H       
  32 H32           -1.2809     3.1343     0.0255 H       
  33 H33            4.6887     1.7519    -0.0226 H       
  34 H34           -4.3908    -0.1217    -1.9332 H       
  35 H35           -3.2622    -1.5011    -1.9109 H       
  36 H36           -6.0757    -1.5837    -0.7238 H       
  37 H37           -5.6706    -2.1590    -2.3620 H       
  38 H38           -3.3846    -3.9258     2.2773 H       
  39 H39           -4.9192    -4.6100     1.6899 H       
  40 H40           -3.3889    -5.0396     0.8888 H       
  41 H41           -3.5522    -4.9727    -1.3624 H       
  42 H42           -4.4128    -4.1829    -2.7055 H       
  43 H43           -3.0121    -3.3828    -1.9530 H       
  44 H44           -6.6817    -3.7481     0.2131 H       
  45 H45           -6.5568    -4.3963    -1.4400 H       
  46 H46           -5.6802    -5.1845    -0.1063 H       
@<TRIPOS>BOND
   1    1    2 ar
   2    1    6 1
   3    1   13 ar
   4    2    3 ar
   5    2   26 1
   6    3    4 ar
   7    3   27 1
   8    4   12 ar
   9    4    5 1
  10    5   16 1
  11    5   17 1
  12    5   28 1
  13    6    7 3
  14    7    8 1
  15    8    9 ar
  16    8   14 ar
  17    9   11 ar
  18    9   29 1
  19   10   15 ar
  20   10   14 ar
  21   10   30 1
  22   11   15 ar
  23   11   31 1
  24   12   13 ar
  25   13   32 1
  26   14   33 1
  27   15   25 1
  28   16   20 1
  29   16   34 1
  30   16   35 1
  31   17   18 am
  32   17   21 2
  33   18   19 1
  34   18   22 1
  35   19   20 1
  36   19   23 1
  37   19   24 1
  38   20   36 1
  39   20   37 1
  40   22   38 1
  41   22   39 1
  42   22   40 1
  43   23   41 1
  44   23   42 1
  45   23   43 1
  46   24   44 1
  47   24   45 1
  48   24   46 1

#	End of record

