#	Name: ASD02508317
#	Creating user name:	WinNT
#	Creation time:	15. 06. 2019 20:24

#	Modifying user name:	WinNT
#	Modification time:	15. 06. 2019 20:24

#	Program:	/corina/corina34_cracker 3.40 0067  02.08.2006

@<TRIPOS>MOLECULE
ASD02508317
  37   38    0    0    0
SMALL
NO_CHARGES


@<TRIPOS>ATOM
   1 C1            -0.0168     1.3861     0.0097 C.ar    
   2 C2             0.0021    -0.0041     0.0020 C.ar    
   3 C3            -1.1927    -0.7113     0.0096 C.ar    
   4 C4            -2.3958    -0.0323     0.0247 C.ar    
   5 C5            -2.4116     1.3501     0.0322 C.ar    
   6 C6            -1.2236     2.0585     0.0306 C.ar    
   7 S7            -3.9486     2.2114     0.0515 S.o2    
   8 O8            -3.6928     3.5007    -0.4885 O.2     
   9 O9            -4.9147     1.3203    -0.4886 O.2     
  10 C10           -4.3875     2.4573     1.7401 C.ar    
  11 C11           -3.9744     3.5981     2.4026 C.ar    
  12 C12           -4.3188     3.7911     3.7273 C.ar    
  13 C13           -5.0766     2.8434     4.3896 C.ar    
  14 C14           -5.4904     1.7030     3.7269 C.ar    
  15 C15           -5.1497     1.5121     2.4008 C.ar    
  16 N16            1.2207    -0.6879    -0.0137 N.am    
  17 C17            1.7929    -1.1360    -1.2858 C.3     
  18 S18            2.0181    -0.9918     1.4055 S.o2    
  19 C19            1.3812    -2.6017     1.9468 C.3     
  20 O20            3.3830    -1.0979     1.0249 O.2     
  21 O21            1.5796     0.0379     2.2812 O.2     
  22 Cl22           1.4739     2.2757     0.0002 Cl      
  23 C23            2.5628    -0.0374    -1.8916 C.1     
  24 N24            3.1569     0.8105    -2.3591 N.1     
  25 H25           -1.1815    -1.7913     0.0033 H       
  26 H26           -3.3253    -0.5822     0.0302 H       
  27 H27           -1.2394     3.1384     0.0369 H       
  28 H28           -3.3824     4.3385     1.8852 H       
  29 H29           -3.9955     4.6820     4.2451 H       
  30 H30           -5.3450     2.9938     5.4248 H       
  31 H31           -6.0822     0.9624     4.2444 H       
  32 H32           -5.4730     0.6212     1.8831 H       
  33 H33            2.4512    -1.9864    -1.1085 H       
  34 H34            0.9901    -1.4325    -1.9608 H       
  35 H35            1.7274    -3.3776     1.2641 H       
  36 H36            1.7420    -2.8156     2.9529 H       
  37 H37            0.2914    -2.5793     1.9488 H       
@<TRIPOS>BOND
   1    1    2 ar
   2    1   22 1
   3    1    6 ar
   4    2    3 ar
   5    2   16 1
   6    3    4 ar
   7    3   25 1
   8    4    5 ar
   9    4   26 1
  10    5    6 ar
  11    5    7 1
  12    6   27 1
  13    7    8 2
  14    7    9 2
  15    7   10 1
  16   10   11 ar
  17   10   15 ar
  18   11   12 ar
  19   11   28 1
  20   12   13 ar
  21   12   29 1
  22   13   14 ar
  23   13   30 1
  24   14   15 ar
  25   14   31 1
  26   15   32 1
  27   16   17 1
  28   16   18 am
  29   17   23 1
  30   17   33 1
  31   17   34 1
  32   18   19 1
  33   18   20 2
  34   18   21 2
  35   19   35 1
  36   19   36 1
  37   19   37 1
  38   23   24 3

#	End of record

