#	Name: ASD01814733
#	Creating user name:	WinNT
#	Creation time:	15. 06. 2019 19:32

#	Modifying user name:	WinNT
#	Modification time:	15. 06. 2019 19:32

#	Program:	/corina/corina34_cracker 3.40 0067  02.08.2006

@<TRIPOS>MOLECULE
ASD01814733
  53   56    0    0    0
SMALL
NO_CHARGES


@<TRIPOS>ATOM
   1 C1            -0.0178     1.4648     0.0101 C.3     
   2 N2             0.0021    -0.0041     0.0020 N.3     
   3 C3             0.6854    -0.5181    -1.2043 C.3     
   4 C4             1.3036    -1.8446    -0.7050 C.3     
   5 C5             1.4565    -1.6010     0.7821 C.ar    
   6 C6             0.6680    -0.5010     1.1220 C.ar    
   7 N7             0.6389    -0.0791     2.3802 N.ar    
   8 C8             1.3363    -0.6769     3.3365 C.ar    
   9 C9             2.1350    -1.7811     3.0555 C.ar    
  10 C10            2.1939    -2.2507     1.7498 C.ar    
  11 C11            3.0445    -3.4439     1.3981 C.3     
  12 C12            4.3884    -2.9745     0.9034 C.ar    
  13 C13            4.5992    -2.7191    -0.4435 C.ar    
  14 C14            5.8439    -2.2901    -0.8619 C.ar    
  15 N15            6.8263    -2.1230     0.0023 N.ar    
  16 C16            6.6630    -2.3561     1.2919 C.ar    
  17 F17            7.6976    -2.1713     2.1407 F       
  18 C18            5.4405    -2.7825     1.7842 C.ar    
  19 C19            1.2645    -0.1617     4.7236 C.2     
  20 O20            1.9001    -0.7031     5.6066 O.2     
  21 N21            0.4941     0.9075     5.0063 N.am    
  22 C22            0.4231     1.4170     6.3780 C.3     
  23 H23            0.4815     0.5840     7.0785 H       
  24 C24            1.5893     2.3756     6.6271 C.3     
  25 C25            1.5150     2.9077     8.0596 C.3     
  26 C26            0.1926     3.6506     8.2599 C.3     
  27 C27           -0.9736     2.6920     8.0108 C.3     
  28 C28           -0.8994     2.1599     6.5782 C.3     
  29 H29           -0.9578     2.9930     5.8777 H       
  30 O30           -1.9886     1.2646     6.3456 O.3     
  31 H31            1.0047     1.8421     0.0024 H       
  32 H32           -0.5450     1.8259    -0.8730 H       
  33 H33           -0.5280     1.8163     0.9069 H       
  34 H34           -0.0308    -0.7028    -2.0050 H       
  35 H35            1.4632     0.1718    -1.5315 H       
  36 H36            0.6292    -2.6801    -0.8925 H       
  37 H37            2.2741    -2.0179    -1.1701 H       
  38 H38            2.6997    -2.2644     3.8390 H       
  39 H39            3.1801    -4.0667     2.2823 H       
  40 H40            2.5521    -4.0236     0.6173 H       
  41 H41            3.7997    -2.8544    -1.1569 H       
  42 H42            6.0148    -2.0895    -1.9092 H       
  43 H43            5.3104    -2.9674     2.8403 H       
  44 H44           -0.0132     1.3397     4.3015 H       
  45 H45            2.5314     1.8463     6.4844 H       
  46 H46            1.5308     3.2086     5.9266 H       
  47 H47            1.5735     2.0746     8.7601 H       
  48 H48            2.3459     3.5906     8.2371 H       
  49 H49            0.1397     4.0297     9.2805 H       
  50 H50            0.1341     4.4836     7.5594 H       
  51 H51           -0.9152     1.8590     8.7113 H       
  52 H52           -1.9158     3.2213     8.1534 H       
  53 H53           -2.8602     1.6688     6.4550 H       
@<TRIPOS>BOND
   1    1    2 1
   2    1   31 1
   3    1   32 1
   4    1   33 1
   5    2    6 1
   6    2    3 1
   7    3    4 1
   8    3   34 1
   9    3   35 1
  10    4    5 1
  11    4   36 1
  12    4   37 1
  13    5   10 ar
  14    5    6 ar
  15    6    7 ar
  16    7    8 ar
  17    8    9 ar
  18    8   19 1
  19    9   10 ar
  20    9   38 1
  21   10   11 1
  22   11   12 1
  23   11   39 1
  24   11   40 1
  25   12   18 ar
  26   12   13 ar
  27   13   14 ar
  28   13   41 1
  29   14   15 ar
  30   14   42 1
  31   15   16 ar
  32   16   17 1
  33   16   18 ar
  34   18   43 1
  35   19   20 2
  36   19   21 am
  37   21   22 1
  38   21   44 1
  39   22   23 1
  40   22   28 1
  41   22   24 1
  42   24   25 1
  43   24   45 1
  44   24   46 1
  45   25   26 1
  46   25   47 1
  47   25   48 1
  48   26   27 1
  49   26   49 1
  50   26   50 1
  51   27   28 1
  52   27   51 1
  53   27   52 1
  54   28   29 1
  55   28   30 1
  56   30   53 1

#	End of record

