#	Name: ASD05513007
#	Creating user name:	WinNT
#	Creation time:	15. 06. 2019 21:01

#	Modifying user name:	WinNT
#	Modification time:	15. 06. 2019 21:01

#	Program:	/corina/corina34_cracker 3.40 0067  02.08.2006

@<TRIPOS>MOLECULE
ASD05513007
  30   33    0    0    0
SMALL
NO_CHARGES


@<TRIPOS>ATOM
   1 C1            -0.0418     1.4502    -0.2804 C.2     
   2 C2             0.0021    -0.0041     0.0020 C.2     
   3 N3            -1.2831    -0.4066     0.2819 N.pl3   
   4 C4            -2.1630     0.6634     0.2059 C.ar    
   5 C5            -1.4585     1.8303    -0.1290 C.ar    
   6 C6            -3.5383     0.7379     0.4045 C.ar    
   7 C7            -4.1949     1.9437     0.2659 C.ar    
   8 C8            -3.4979     3.0935    -0.0712 C.ar    
   9 C9            -2.1338     3.0443    -0.2642 C.ar    
  10 O10            0.8910     2.1753    -0.5696 O.2     
  11 C11            1.1250    -0.8064    -0.0134 C.2     
  12 C12            2.5341    -0.3788    -0.1272 C.ar    
  13 C13            3.3081    -1.5484    -0.0964 C.ar    
  14 N14            2.4706    -2.6515     0.0276 N.am    
  15 C15            1.1796    -2.2823     0.0870 C.2     
  16 C16            3.1460     0.8669    -0.2466 C.ar    
  17 C17            4.5206     0.9480    -0.3349 C.ar    
  18 C18            5.2877    -0.2051    -0.3052 C.ar    
  19 C19            4.6912    -1.4449    -0.1867 C.ar    
  20 O20            0.2256    -3.0285     0.1958 O.2     
  21 H21           -1.5396    -1.3157     0.5023 H       
  22 H22           -4.0933    -0.1504     0.6674 H       
  23 H23           -5.2625     1.9920     0.4212 H       
  24 H24           -4.0237     4.0310    -0.1766 H       
  25 H25           -1.5909     3.9402    -0.5268 H       
  26 H26            2.7790    -3.5701     0.0700 H       
  27 H27            2.5471     1.7654    -0.2704 H       
  28 H28            4.9992     1.9117    -0.4276 H       
  29 H29            6.3630    -0.1338    -0.3755 H       
  30 H30            5.3008    -2.3362    -0.1648 H       
@<TRIPOS>BOND
   1    1    2 1
   2    1   10 2
   3    1    5 1
   4    2    3 1
   5    2   11 2
   6    3    4 1
   7    3   21 1
   8    4    5 ar
   9    4    6 ar
  10    5    9 ar
  11    6    7 ar
  12    6   22 1
  13    7    8 ar
  14    7   23 1
  15    8    9 ar
  16    8   24 1
  17    9   25 1
  18   11   12 1
  19   11   15 1
  20   12   13 ar
  21   12   16 ar
  22   13   14 1
  23   13   19 ar
  24   14   15 am
  25   14   26 1
  26   15   20 2
  27   16   17 ar
  28   16   27 1
  29   17   18 ar
  30   17   28 1
  31   18   19 ar
  32   18   29 1
  33   19   30 1

#	End of record

