#	Name: ASD03540504
#	Creating user name:	WinNT
#	Creation time:	15. 06. 2019 20:43

#	Modifying user name:	WinNT
#	Modification time:	15. 06. 2019 20:43

#	Program:	/corina/corina34_cracker 3.40 0067  02.08.2006

@<TRIPOS>MOLECULE
ASD03540504
  60   64    0    0    0
SMALL
NO_CHARGES


@<TRIPOS>ATOM
   1 C1             2.7507    -8.6909    -2.5525 C.2     
   2 C2             2.0598    -7.5583    -1.9027 C.ar    
   3 C3             0.6740    -7.5855    -1.7343 C.ar    
   4 C4             0.0354    -6.5248    -1.1262 C.ar    
   5 C5             0.7648    -5.4353    -0.6839 C.ar    
   6 C6             2.1383    -5.4016    -0.8481 C.ar    
   7 C7             2.7904    -6.4584    -1.4489 C.ar    
   8 O8             2.1130    -9.6487    -2.9418 O.2     
   9 O9             4.0872    -8.6590    -2.7185 O.3     
  10 C10            0.0601    -4.2800    -0.0210 C.3     
  11 N11           -3.3737    -4.7481     1.2287 N.am    
  12 C12           -2.2986    -4.3338     0.5372 C.2     
  13 N13           -1.0579    -4.7846     0.7800 N.am    
  14 C14           -0.8212    -5.6954     1.7492 C.2     
  15 C15           -1.9651    -6.1858     2.5398 C.ar    
  16 C16           -1.8037    -7.1224     3.5530 C.ar    
  17 C17           -2.9207    -7.5515     4.2687 C.ar    
  18 C18           -4.1883    -7.0401     3.9644 C.ar    
  19 C19           -4.3467    -6.1190     2.9678 C.ar    
  20 C20           -3.2454    -5.6797     2.2441 C.ar    
  21 O21            0.3050    -6.1003     1.9635 O.2     
  22 O22           -2.4565    -3.5145    -0.3470 O.2     
  23 C23            1.0423    -3.5360     0.8860 C.3     
  24 C24           -2.7668    -8.5468     5.3484 C.2     
  25 N25           -3.8460    -8.9622     6.0407 N.am    
  26 O26           -1.6667    -8.9915     5.6129 O.2     
  27 C27           -3.6933    -9.9497     7.1121 C.3     
  28 O28           -8.7479   -11.2281     9.2141 O.3     
  29 C29           -8.8690   -12.5318     8.6148 C.3     
  30 O30           -8.0119   -12.4584     7.4601 O.3     
  31 C31           -7.0618   -11.5286     7.7699 C.ar    
  32 C32           -7.5144   -10.7721     8.8486 C.ar    
  33 C33           -5.8239   -11.2587     7.2104 C.ar    
  34 C34           -5.0401   -10.2410     7.7223 C.ar    
  35 C35           -5.4889    -9.4908     8.7927 C.ar    
  36 C36           -6.7240    -9.7543     9.3561 C.ar    
  37 C37            4.6987    -9.8064    -3.3648 C.3     
  38 H38            0.1034    -8.4350    -2.0796 H       
  39 H39           -1.0365    -6.5445    -0.9953 H       
  40 H40            2.7016    -4.5479    -0.5012 H       
  41 H41            3.8631    -6.4330    -1.5720 H       
  42 H42           -0.3176    -3.5989    -0.7836 H       
  43 H43           -4.2488    -4.3878     1.0161 H       
  44 H44           -0.8239    -7.5140     3.7835 H       
  45 H45           -5.0491    -7.3774     4.5227 H       
  46 H46           -5.3295    -5.7322     2.7422 H       
  47 H47            1.8742    -3.1606     0.2900 H       
  48 H48            0.5326    -2.7004     1.3655 H       
  49 H49            1.4200    -4.2171     1.6486 H       
  50 H50           -4.7237    -8.6073     5.8297 H       
  51 H51           -3.2737   -10.8684     6.7023 H       
  52 H52           -3.0253    -9.5550     7.8776 H       
  53 H53           -8.5207   -13.3029     9.3019 H       
  54 H54           -9.8997   -12.7214     8.3153 H       
  55 H55           -5.4703   -11.8439     6.3743 H       
  56 H56           -4.8739    -8.6967     9.1898 H       
  57 H57           -7.0725    -9.1659    10.1921 H       
  58 H58            5.7755    -9.6524    -3.4356 H       
  59 H59            4.4976   -10.7034    -2.7791 H       
  60 H60            4.2821    -9.9247    -4.3651 H       
@<TRIPOS>BOND
   1    1    2 1
   2    1    8 2
   3    1    9 1
   4    2    3 ar
   5    2    7 ar
   6    3    4 ar
   7    3   38 1
   8    4    5 ar
   9    4   39 1
  10    5    6 ar
  11    5   10 1
  12    6    7 ar
  13    6   40 1
  14    7   41 1
  15    9   37 1
  16   10   13 1
  17   10   23 1
  18   10   42 1
  19   11   12 am
  20   11   20 1
  21   11   43 1
  22   12   13 am
  23   12   22 2
  24   13   14 am
  25   14   15 1
  26   14   21 2
  27   15   16 ar
  28   15   20 ar
  29   16   17 ar
  30   16   44 1
  31   17   18 ar
  32   17   24 1
  33   18   19 ar
  34   18   45 1
  35   19   20 ar
  36   19   46 1
  37   23   47 1
  38   23   48 1
  39   23   49 1
  40   24   25 am
  41   24   26 2
  42   25   27 1
  43   25   50 1
  44   27   34 1
  45   27   51 1
  46   27   52 1
  47   28   29 1
  48   28   32 1
  49   29   30 1
  50   29   53 1
  51   29   54 1
  52   30   31 1
  53   31   32 ar
  54   31   33 ar
  55   32   36 ar
  56   33   34 ar
  57   33   55 1
  58   34   35 ar
  59   35   36 ar
  60   35   56 1
  61   36   57 1
  62   37   58 1
  63   37   59 1
  64   37   60 1

#	End of record

