#	Name: ASD01001019
#	Creating user name:	WinNT
#	Creation time:	15. 06. 2019 18:54

#	Modifying user name:	WinNT
#	Modification time:	15. 06. 2019 18:54

#	Program:	/corina/corina34_cracker 3.40 0067  02.08.2006

@<TRIPOS>MOLECULE
ASD01001019
  46   47    0    0    0
SMALL
NO_CHARGES


@<TRIPOS>ATOM
   1 C1            -0.2100     1.1938     0.2080 C.ar    
   2 C2            -0.0169    -0.1725     0.2901 C.ar    
   3 C3             0.7937     2.0051    -0.2873 C.ar    
   4 C4             1.1798    -0.7275    -0.1230 C.ar    
   5 C5             1.9904     1.4501    -0.7004 C.ar    
   6 C6             2.1833     0.0837    -0.6187 C.ar    
   7 C7             1.3907    -2.2169    -0.0324 C.3     
   8 C8             1.0884    -2.6829     1.3685 C.ar    
   9 S9             0.2853    -3.0562    -1.2005 S.3     
  10 C10            1.2881    -1.8307     2.4385 C.ar    
  11 C11            0.6061    -3.9605     1.5830 C.ar    
  12 C12            1.0109    -2.2581     3.7235 C.ar    
  13 C13            0.3289    -4.3878     2.8681 C.ar    
  14 C14            0.5336    -3.5375     3.9386 C.ar    
  15 C15            0.7935    -2.3763    -2.8037 C.3     
  16 C16           -0.0591    -2.9949    -3.9133 C.3     
  17 N17           -1.4588    -2.5832    -3.7426 N.3     
  18 H18           -1.5484    -1.5791    -3.7874 H       
  19 H19           -2.0529    -3.0300    -4.4248 H       
  20 C20            2.8440    -2.5482    -0.3777 C.3     
  21 C21            3.7722    -1.9120     0.6589 C.3     
  22 C22            3.0365    -4.0660    -0.3712 C.3     
  23 C23            0.4431    -2.5243    -5.2540 C.2     
  24 O24           -0.1251    -1.6277    -5.8312 O.2     
  25 O25            1.5215    -3.1013    -5.8070 O.3     
  26 H26           -1.1467     1.6269     0.5265 H       
  27 H27           -0.8009    -0.8063     0.6774 H       
  28 H28            0.6427     3.0726    -0.3518 H       
  29 H29            2.7743     2.0839    -1.0880 H       
  30 H30            3.1186    -0.3498    -0.9408 H       
  31 H31            1.6611    -0.8312     2.2705 H       
  32 H32            0.4456    -4.6246     0.7466 H       
  33 H33            1.1676    -1.5926     4.5596 H       
  34 H34           -0.0483    -5.3859     3.0357 H       
  35 H35            0.3169    -3.8714     4.9425 H       
  36 H36            0.6559    -1.2950    -2.7998 H       
  37 H37            1.8438    -2.6083    -2.9803 H       
  38 H38            0.0090    -4.0815    -3.8608 H       
  39 H39            3.0809    -2.1561    -1.3667 H       
  40 H40            3.5665    -0.8435     0.7236 H       
  41 H41            3.6020    -2.3742     1.6313 H       
  42 H42            4.8093    -2.0649     0.3604 H       
  43 H43            2.4212    -4.5137    -1.1517 H       
  44 H44            4.0849    -4.3001    -0.5560 H       
  45 H45            2.7405    -4.4657     0.5988 H       
  46 H46            1.8061    -2.7655    -6.6681 H       
@<TRIPOS>BOND
   1    1    2 ar
   2    1    3 ar
   3    1   26 1
   4    2    4 ar
   5    2   27 1
   6    3    5 ar
   7    3   28 1
   8    4    6 ar
   9    4    7 1
  10    5    6 ar
  11    5   29 1
  12    6   30 1
  13    7    8 1
  14    7    9 1
  15    7   20 1
  16    8   10 ar
  17    8   11 ar
  18    9   15 1
  19   10   12 ar
  20   10   31 1
  21   11   13 ar
  22   11   32 1
  23   12   14 ar
  24   12   33 1
  25   13   14 ar
  26   13   34 1
  27   14   35 1
  28   15   16 1
  29   15   36 1
  30   15   37 1
  31   16   17 1
  32   16   23 1
  33   16   38 1
  34   17   18 1
  35   17   19 1
  36   20   21 1
  37   20   22 1
  38   20   39 1
  39   21   40 1
  40   21   41 1
  41   21   42 1
  42   22   43 1
  43   22   44 1
  44   22   45 1
  45   23   24 2
  46   23   25 1
  47   25   46 1

#	End of record

