#	Name: ASD07850002
#	Creating user name:	WinNT
#	Creation time:	15. 06. 2019 21:11

#	Modifying user name:	WinNT
#	Modification time:	15. 06. 2019 21:11

#	Program:	/corina/corina34_cracker 3.40 0067  02.08.2006

@<TRIPOS>MOLECULE
ASD07850002
 112  117    0    0    0
SMALL
NO_CHARGES


@<TRIPOS>ATOM
   1 C1            -0.0166     1.3906     0.0029 C.ar    
   2 C2            -1.1425     1.9379     0.6190 C.ar    
   3 C3            -2.3253     1.2585     0.6292 C.ar    
   4 C4            -2.4119     0.0025     0.0169 C.ar    
   5 C5            -1.2786    -0.5559    -0.6077 C.ar    
   6 C6            -0.0839     0.1510    -0.6131 C.ar    
   7 C7            -3.6659    -0.7501     0.0120 C.2     
   8 C8            -3.6921    -1.9631    -0.5963 C.2     
   9 C9            -2.5300    -2.4774    -1.2066 C.2     
  10 N10           -1.3721    -1.7941    -1.2080 N.am    
  11 O11           -2.5761    -3.5694    -1.7465 O.2     
  12 C12           -4.9019    -0.1911     0.6684 C.3     
  13 N13            1.1854     2.0997     0.0020 N.am    
  14 C14            2.3573     1.4397     0.0890 C.2     
  15 O15            2.3658     0.2397     0.2651 O.2     
  16 C16            3.6570     2.1926    -0.0325 C.3     
  17 C17            3.7214     2.8820    -1.3968 C.3     
  18 C18            4.9815     3.7465    -1.4724 C.3     
  19 C19            5.0460     4.4359    -2.8368 C.3     
  20 C20            6.3060     5.3004    -2.9124 C.3     
  21 H21            3.7178     2.9422     0.7566 H       
  22 N22            4.7771     1.2571     0.0954 N.am    
  23 C23            5.2365     0.9188     1.3165 C.2     
  24 C24            6.3887    -0.0436     1.4480 C.3     
  25 O25            4.7226     1.3888     2.3094 O.2     
  26 N26            6.6960    -0.2466     2.8659 N.am    
  27 H27            6.1191    -0.9974     0.9945 H       
  28 C28            7.6161     0.5302     0.7373 C.3     
  29 C29            8.7479    -0.4990     0.7628 C.3     
  30 C30           10.0129     0.1189     0.1638 C.3     
  31 C31           11.1446    -0.9104     0.1894 C.3     
  32 C32           10.7379    -2.1361    -0.6311 C.3     
  33 C33            9.4729    -2.7540    -0.0321 C.3     
  34 C34            8.3412    -1.7247    -0.0577 C.3     
  35 N35            6.3678     5.9605    -4.2188 N.am    
  36 O36            7.4551     7.3843    -5.7135 O.3     
  37 C37            8.5937     8.2506    -5.9613 C.3     
  38 C38            9.8859     7.4391    -5.8492 C.3     
  39 C39            8.4855     8.8458    -7.3666 C.3     
  40 C40            8.6095     9.3798    -4.9290 C.3     
  41 C41            7.3983     6.7777    -4.5129 C.2     
  42 O42            8.2763     6.9670    -3.6945 O.2     
  43 C43           10.5784    -2.5029     7.4055 C.ar    
  44 C44           10.2858    -3.9575     7.4217 C.ar    
  45 C45            9.0354    -4.1852     6.8538 C.ar    
  46 C46            8.4716    -2.8466     6.4444 C.3     
  47 C47            9.5109    -1.8217     6.8275 C.ar    
  48 C48            9.5488    -0.4492     6.7001 C.ar    
  49 C49           10.6507     0.2578     7.1474 C.ar    
  50 C50           11.7167    -0.4103     7.7228 C.ar    
  51 C51           11.6853    -1.7825     7.8586 C.ar    
  52 C52           11.0321    -5.0404     7.8904 C.ar    
  53 C53           10.5282    -6.3202     7.7879 C.ar    
  54 C54            9.2847    -6.5364     7.2216 C.ar    
  55 C55            8.5392    -5.4680     6.7558 C.ar    
  56 C56            8.2329    -2.8154     4.9335 C.3     
  57 O57            7.5821    -1.5688     4.5719 O.3     
  58 C58            7.2997    -1.3822     3.2688 C.2     
  59 O59            7.5892    -2.2377     2.4559 O.2     
  60 H60           -1.0770     2.9067     1.0917 H       
  61 H61           -3.1925     1.6881     1.1087 H       
  62 H62            0.7912    -0.2664    -1.0889 H       
  63 H63           -4.6069    -2.5369    -0.6125 H       
  64 H64           -0.5915    -2.1771    -1.6379 H       
  65 H65           -5.4664     0.3935    -0.0581 H       
  66 H66           -5.5205    -1.0101     1.0352 H       
  67 H67           -4.6128     0.4477     1.5029 H       
  68 H68            1.1775     3.0676    -0.0612 H       
  69 H69            3.7502     2.1283    -2.1837 H       
  70 H70            2.8409     3.5109    -1.5281 H       
  71 H71            4.9527     4.5002    -0.6855 H       
  72 H72            5.8620     3.1176    -1.3411 H       
  73 H73            5.0747     3.6822    -3.6237 H       
  74 H74            4.1654     5.0648    -2.9681 H       
  75 H75            6.2773     6.0541    -2.1255 H       
  76 H76            7.1866     4.6715    -2.7811 H       
  77 H77            5.1882     0.8812    -0.6987 H       
  78 H78            6.4649     0.4364     3.5149 H       
  79 H79            7.3611     0.7643    -0.2963 H       
  80 H80            7.9393     1.4383     1.2463 H       
  81 H81            8.9427    -0.7993     1.7924 H       
  82 H82            9.8181     0.4192    -0.8658 H       
  83 H83           10.3026     0.9921     0.7483 H       
  84 H84           12.0458    -0.4702    -0.2374 H       
  85 H85           11.3394    -1.2107     1.2189 H       
  86 H86           10.5431    -1.8357    -1.6607 H       
  87 H87           11.5442    -2.8693    -0.6129 H       
  88 H88            9.1832    -3.6272    -0.6166 H       
  89 H89            9.6677    -3.0543     0.9974 H       
  90 H90            7.4400    -2.1649     0.3691 H       
  91 H91            8.1464    -1.4244    -1.0872 H       
  92 H92            5.6669     5.8093    -4.8721 H       
  93 H93            9.8746     6.6346    -6.5846 H       
  94 H94           10.7406     8.0894    -6.0352 H       
  95 H95            9.9630     7.0150    -4.8481 H       
  96 H96            7.5649     9.4240    -7.4464 H       
  97 H97            9.3402     9.4961    -7.5526 H       
  98 H98            8.4742     8.0413    -8.1020 H       
  99 H99            8.6866     8.9558    -3.9278 H       
 100 H100           9.4643    10.0301    -5.1150 H       
 101 H101           7.6889     9.9580    -5.0088 H       
 102 H102           7.5400    -2.6532     6.9762 H       
 103 H103           8.7179     0.0742     6.2506 H       
 104 H104          10.6788     1.3327     7.0470 H       
 105 H105          12.5752     0.1451     8.0705 H       
 106 H106          12.5175    -2.2997     8.3129 H       
 107 H107          12.0036    -4.8761     8.3326 H       
 108 H108          11.1067    -7.1568     8.1509 H       
 109 H109           8.8951    -7.5407     7.1432 H       
 110 H110           7.5685    -5.6389     6.3144 H       
 111 H111           9.1877    -2.8911     4.4131 H       
 112 H112           7.5966    -3.6534     4.6488 H       
@<TRIPOS>BOND
   1    1    2 ar
   2    1   13 1
   3    1    6 ar
   4    2    3 ar
   5    2   60 1
   6    3    4 ar
   7    3   61 1
   8    4    5 ar
   9    4    7 1
  10    5    6 ar
  11    5   10 1
  12    6   62 1
  13    7    8 2
  14    7   12 1
  15    8    9 1
  16    8   63 1
  17    9   10 am
  18    9   11 2
  19   10   64 1
  20   12   65 1
  21   12   66 1
  22   12   67 1
  23   13   14 am
  24   13   68 1
  25   14   15 2
  26   14   16 1
  27   16   17 1
  28   16   21 1
  29   16   22 1
  30   17   18 1
  31   17   69 1
  32   17   70 1
  33   18   19 1
  34   18   71 1
  35   18   72 1
  36   19   20 1
  37   19   73 1
  38   19   74 1
  39   20   35 1
  40   20   75 1
  41   20   76 1
  42   22   23 am
  43   22   77 1
  44   23   24 1
  45   23   25 2
  46   24   26 1
  47   24   27 1
  48   24   28 1
  49   26   58 am
  50   26   78 1
  51   28   29 1
  52   28   79 1
  53   28   80 1
  54   29   30 1
  55   29   34 1
  56   29   81 1
  57   30   31 1
  58   30   82 1
  59   30   83 1
  60   31   32 1
  61   31   84 1
  62   31   85 1
  63   32   33 1
  64   32   86 1
  65   32   87 1
  66   33   34 1
  67   33   88 1
  68   33   89 1
  69   34   90 1
  70   34   91 1
  71   35   41 am
  72   35   92 1
  73   36   37 1
  74   36   41 1
  75   37   38 1
  76   37   39 1
  77   37   40 1
  78   38   93 1
  79   38   94 1
  80   38   95 1
  81   39   96 1
  82   39   97 1
  83   39   98 1
  84   40   99 1
  85   40  100 1
  86   40  101 1
  87   41   42 2
  88   43   44 1
  89   43   47 ar
  90   43   51 ar
  91   44   45 ar
  92   44   52 ar
  93   45   46 1
  94   45   55 ar
  95   46   47 1
  96   46   56 1
  97   46  102 1
  98   47   48 ar
  99   48   49 ar
 100   48  103 1
 101   49   50 ar
 102   49  104 1
 103   50   51 ar
 104   50  105 1
 105   51  106 1
 106   52   53 ar
 107   52  107 1
 108   53   54 ar
 109   53  108 1
 110   54   55 ar
 111   54  109 1
 112   55  110 1
 113   56   57 1
 114   56  111 1
 115   56  112 1
 116   57   58 1
 117   58   59 2

#	End of record

