#	Name: ASD03930026
#	Creating user name:	WinNT
#	Creation time:	15. 06. 2019 20:47

#	Modifying user name:	WinNT
#	Modification time:	15. 06. 2019 20:47

#	Program:	/corina/corina34_cracker 3.40 0067  02.08.2006

@<TRIPOS>MOLECULE
ASD03930026
  24   26    0    0    0
SMALL
NO_CHARGES


@<TRIPOS>ATOM
   1 C1            -0.0166     1.3723     0.0096 C.ar    
   2 C2             0.0021    -0.0041     0.0020 C.ar    
   3 C3             1.1996    -0.7091    -0.0021 C.ar    
   4 C4             2.3937    -0.0466     0.0008 C.ar    
   5 C5             2.3808     1.3647    -0.0148 C.ar    
   6 C6             1.1925     2.0773     0.0018 C.ar    
   7 C7             3.6952    -0.7955     0.0516 C.3     
   8 N8             4.7892    -0.0910    -0.6227 N.am    
   9 S9             5.1674     1.4648    -0.1380 S.o2    
  10 C10            3.5634     2.2393    -0.0693 C.2     
  11 S11            1.5444     3.7996     0.0061 S.3     
  12 C12            3.2762     3.5191    -0.0552 C.2     
  13 O13            5.6509     1.3826     1.1957 O.2     
  14 O14            5.8820     2.0742    -1.2045 O.2     
  15 C15            5.5389    -0.7382    -1.7022 C.3     
  16 Cl16           1.1775    -2.4449    -0.0105 Cl      
  17 H17           -0.9567     1.9039     0.0169 H       
  18 H18           -0.9319    -0.5464    -0.0004 H       
  19 H19            3.9692    -0.9520     1.0949 H       
  20 H20            3.5592    -1.7675    -0.4225 H       
  21 H21            4.0160     4.3056    -0.0784 H       
  22 H22            5.0595    -0.5232    -2.6572 H       
  23 H23            6.5601    -0.3573    -1.7145 H       
  24 H24            5.5550    -1.8157    -1.5381 H       
@<TRIPOS>BOND
   1    1    2 ar
   2    1    6 ar
   3    1   17 1
   4    2    3 ar
   5    2   18 1
   6    3    4 ar
   7    3   16 1
   8    4    5 ar
   9    4    7 1
  10    5    6 ar
  11    5   10 1
  12    6   11 1
  13    7    8 1
  14    7   19 1
  15    7   20 1
  16    8    9 am
  17    8   15 1
  18    9   10 1
  19    9   13 2
  20    9   14 2
  21   10   12 2
  22   11   12 1
  23   12   21 1
  24   15   22 1
  25   15   23 1
  26   15   24 1

#	End of record

