#	Name: ASD08830175
#	Creating user name:	WinNT
#	Creation time:	15. 06. 2019 21:19

#	Modifying user name:	WinNT
#	Modification time:	15. 06. 2019 21:19

#	Program:	/corina/corina34_cracker 3.40 0067  02.08.2006

@<TRIPOS>MOLECULE
ASD08830175
  44   47    0    0    0
SMALL
NO_CHARGES


@<TRIPOS>ATOM
   1 C1            -0.0179     1.4664     0.0101 C.ar    
   2 C2             0.0021    -0.0041     0.0020 C.2     
   3 C3            -1.2926    -0.7753     0.0102 C.3     
   4 C4            -0.9927    -2.2755    -0.0007 C.3     
   5 N5            -2.2547    -3.0273     0.0073 N.3     
   6 O6             1.0604    -0.5961    -0.0113 O.2     
   7 C7             1.1774     2.1719     0.0025 C.ar    
   8 C8             1.1506     3.5750     0.0103 C.ar    
   9 C9            -0.0981     4.2485     0.0257 C.ar    
  10 C10           -1.2930     3.5051     0.0337 C.ar    
  11 C11           -1.2503     2.1493     0.0197 C.ar    
  12 C12            2.3404     4.3205     0.0035 C.ar    
  13 C13            2.2871     5.7020     0.0118 C.ar    
  14 C14            1.0443     6.3490     0.0269 C.ar    
  15 C15           -0.1206     5.6532     0.0334 C.ar    
  16 C16           -2.0181    -4.4568    -0.2410 C.3     
  17 C17           -3.3490    -5.2097    -0.1649 C.3     
  18 O18           -4.2665    -4.6418    -1.1035 O.3     
  19 C19           -4.5205    -3.2506    -0.8906 C.3     
  20 C20           -3.2015    -2.4779    -0.9741 C.3     
  21 N21            3.3164     6.6452     0.0076 N.am    
  22 C22            2.8538     7.9057     0.0189 C.2     
  23 C23            1.3425     7.8323     0.0325 C.3     
  24 O24            3.5239     8.9167     0.0190 O.2     
  25 H25           -1.8592    -0.5245     0.9070 H       
  26 H26           -1.8762    -0.5150    -0.8728 H       
  27 H27           -0.4261    -2.5263    -0.8975 H       
  28 H28           -0.4091    -2.5358     0.8824 H       
  29 H29            2.1202     1.6453    -0.0090 H       
  30 H30           -2.2451     4.0147     0.0455 H       
  31 H31           -2.1720     1.5865     0.0255 H       
  32 H32            3.2952     3.8158    -0.0079 H       
  33 H33           -1.0641     6.1787     0.0448 H       
  34 H34           -1.5824    -4.5869    -1.2316 H       
  35 H35           -1.3346    -4.8488     0.5123 H       
  36 H36           -3.1869    -6.2606    -0.4046 H       
  37 H37           -3.7584    -5.1242     0.8417 H       
  38 H38           -5.2057    -2.8846    -1.6552 H       
  39 H39           -4.9640    -3.1082     0.0948 H       
  40 H40           -3.3819    -1.4252    -0.7560 H       
  41 H41           -2.7847    -2.5763    -1.9764 H       
  42 H42            4.2589     6.4159    -0.0024 H       
  43 H43            0.9293     8.3080    -0.8569 H       
  44 H44            0.9458     8.2980     0.9347 H       
@<TRIPOS>BOND
   1    1    2 1
   2    1    7 ar
   3    1   11 ar
   4    2    3 1
   5    2    6 2
   6    3    4 1
   7    3   25 1
   8    3   26 1
   9    4    5 1
  10    4   27 1
  11    4   28 1
  12    5   16 1
  13    5   20 1
  14    7    8 ar
  15    7   29 1
  16    8    9 ar
  17    8   12 ar
  18    9   10 ar
  19    9   15 ar
  20   10   11 ar
  21   10   30 1
  22   11   31 1
  23   12   13 ar
  24   12   32 1
  25   13   14 ar
  26   13   21 1
  27   14   15 ar
  28   14   23 1
  29   15   33 1
  30   16   17 1
  31   16   34 1
  32   16   35 1
  33   17   18 1
  34   17   36 1
  35   17   37 1
  36   18   19 1
  37   19   20 1
  38   19   38 1
  39   19   39 1
  40   20   40 1
  41   20   41 1
  42   21   22 am
  43   21   42 1
  44   22   23 1
  45   22   24 2
  46   23   43 1
  47   23   44 1

#	End of record

