#	Name: ASD05790030
#	Creating user name:	WinNT
#	Creation time:	15. 06. 2019 21:03

#	Modifying user name:	WinNT
#	Modification time:	15. 06. 2019 21:03

#	Program:	/corina/corina34_cracker 3.40 0067  02.08.2006

@<TRIPOS>MOLECULE
ASD05790030
  46   49    0    0    0
SMALL
NO_CHARGES


@<TRIPOS>ATOM
   1 C1            -0.1753     1.4742    -0.5693 C.2     
   2 C2            -0.1532    -0.0033    -0.5731 C.ar    
   3 C3             0.9064    -0.6946    -1.1920 C.ar    
   4 C4             0.9138    -2.0879    -1.1878 C.ar    
   5 C5            -0.1139    -2.7820    -0.5791 C.ar    
   6 C6            -1.1550    -2.1025     0.0290 C.ar    
   7 C7            -1.1772    -0.7212     0.0402 C.ar    
   8 O8             0.7229     2.0969    -1.1015 O.2     
   9 N9            -1.1942     2.1314     0.0193 N.am    
  10 C10           -1.1619     3.5236     0.1191 C.ar    
  11 C11           -2.3412     4.2539     0.0191 C.ar    
  12 C12           -2.3127     5.6277     0.1167 C.ar    
  13 C13           -1.0979     6.2870     0.3168 C.ar    
  14 C14            0.0846     5.5506     0.4174 C.ar    
  15 C15            0.0486     4.1766     0.3241 C.ar    
  16 O16           -2.1299     8.5751     0.3412 O.3     
  17 C17           -1.0636     7.7602     0.4215 C.2     
  18 N18            0.0118     8.4871     0.6080 N.2     
  19 C19           -0.3494     9.7865     0.6504 C.2     
  20 C20           -1.6948     9.8422     0.4829 C.2     
  21 C21           -2.5429    11.0876     0.4592 C.3     
  22 F22           -2.6391    11.5614    -0.8536 F       
  23 F23           -3.8217    10.7903     0.9425 F       
  24 F24           -1.9554    12.0674     1.2667 F       
  25 C25            0.5590    10.9437     0.8449 C.ar    
  26 C26            1.6709    10.8277     1.6767 C.ar    
  27 C27            2.5127    11.9070     1.8536 C.ar    
  28 C28            2.2541    13.1023     1.2074 C.ar    
  29 C29            1.1517    13.2230     0.3805 C.ar    
  30 C30            0.3064    12.1484     0.1919 C.ar    
  31 C31            1.9690     0.0297    -1.8219 C.1     
  32 N32            2.8119     0.6044    -2.3217 N.1     
  33 H33            1.7227    -2.6251    -1.6606 H       
  34 H34           -0.1050    -3.8620    -0.5781 H       
  35 H35           -1.9531    -2.6557     0.5017 H       
  36 H36           -1.9907    -0.1980     0.5207 H       
  37 H37           -1.9499     1.6371     0.3736 H       
  38 H38           -3.2803     3.7434    -0.1357 H       
  39 H39           -3.2288     6.1943     0.0382 H       
  40 H40            1.0256     6.0575     0.5718 H       
  41 H41            0.9621     3.6063     0.4061 H       
  42 H42            1.8734     9.8951     2.1823 H       
  43 H43            3.3748    11.8182     2.4981 H       
  44 H44            2.9150    13.9446     1.3492 H       
  45 H45            0.9543    14.1587    -0.1213 H       
  46 H46           -0.5515    12.2424    -0.4574 H       
@<TRIPOS>BOND
   1    1    2 1
   2    1    8 2
   3    1    9 am
   4    2    3 ar
   5    2    7 ar
   6    3    4 ar
   7    3   31 1
   8    4    5 ar
   9    4   33 1
  10    5    6 ar
  11    5   34 1
  12    6    7 ar
  13    6   35 1
  14    7   36 1
  15    9   10 1
  16    9   37 1
  17   10   11 ar
  18   10   15 ar
  19   11   12 ar
  20   11   38 1
  21   12   13 ar
  22   12   39 1
  23   13   14 ar
  24   13   17 1
  25   14   15 ar
  26   14   40 1
  27   15   41 1
  28   16   17 1
  29   16   20 1
  30   17   18 2
  31   18   19 1
  32   19   20 2
  33   19   25 1
  34   20   21 1
  35   21   22 1
  36   21   23 1
  37   21   24 1
  38   25   26 ar
  39   25   30 ar
  40   26   27 ar
  41   26   42 1
  42   27   28 ar
  43   27   43 1
  44   28   29 ar
  45   28   44 1
  46   29   30 ar
  47   29   45 1
  48   30   46 1
  49   31   32 3

#	End of record

