#	Name: ASD01882405
#	Creating user name:	WinNT
#	Creation time:	15. 06. 2019 19:44

#	Modifying user name:	WinNT
#	Modification time:	15. 06. 2019 19:44

#	Program:	/corina/corina34_cracker 3.40 0067  02.08.2006

@<TRIPOS>MOLECULE
ASD01882405
  58   63    0    0    0
SMALL
NO_CHARGES


@<TRIPOS>ATOM
   1 C1            -0.2106     1.6087    -0.2624 C.3     
   2 N2            -0.0992     0.1434    -0.1818 N.pl3   
   3 C3             1.2345     0.3288     0.4124 C.3     
   4 C4             1.3162     1.6631    -0.3298 C.3     
   5 C5             1.8830     1.5598    -1.7419 C.3     
   6 N6             1.7416     2.8576    -2.4185 N.3     
   7 C7             2.4465     3.9167    -1.6856 C.3     
   8 C8             1.8121     4.1020    -0.3054 C.3     
   9 C9             1.9363     2.7944     0.4855 C.3     
  10 C10            2.1861     2.7835    -3.7439 C.ar    
  11 C11            1.3115     3.0631    -4.7886 C.ar    
  12 C12            1.7537     2.9895    -6.0964 C.ar    
  13 C13            3.0661     2.6377    -6.3655 C.ar    
  14 C14            3.9373     2.3593    -5.3266 C.ar    
  15 C15            3.5015     2.4366    -4.0173 C.ar    
  16 F16            3.4964     2.5658    -7.6441 F       
  17 F17            0.0314     3.4058    -4.5257 F       
  18 C18           -2.9069    -2.2220    -0.2637 C.2     
  19 C19           -2.1133    -1.1189     0.0941 C.2     
  20 C20           -0.9027    -0.9416    -0.5189 C.2     
  21 C21           -0.4743    -1.8665    -1.4961 C.2     
  22 C22           -1.2515    -2.9172    -1.8238 C.2     
  23 N23           -2.4601    -3.1029    -1.2185 N.pl3   
  24 N24           -4.3918    -3.7338    -0.5037 N.2     
  25 N25           -4.0900    -2.6606     0.1385 N.2     
  26 C26           -3.4371    -4.0471    -1.3395 C.2     
  27 C27           -2.5894    -0.1432     1.1392 C.3     
  28 F28           -3.1954     0.9516     0.5136 F       
  29 F29           -3.5158    -0.7729     1.9774 F       
  30 F30           -1.4991     0.2974     1.8970 F       
  31 C31           -3.4183    -5.2352    -2.2663 C.3     
  32 C32           -2.7755    -6.4273    -1.5545 C.3     
  33 C33           -2.7678    -7.7689    -2.2899 C.3     
  34 C34           -1.4693    -6.9751    -2.1331 C.3     
  35 H35           -0.6984     1.9579    -1.1725 H       
  36 H36           -0.6223     2.0633     0.6387 H       
  37 H37            1.2159     0.4354     1.4970 H       
  38 H38            1.9672    -0.4030     0.0723 H       
  39 H39            2.9376     1.2886    -1.6917 H       
  40 H40            1.3370     0.7980    -2.2983 H       
  41 H41            3.4944     3.6407    -1.5686 H       
  42 H42            2.3788     4.8504    -2.2438 H       
  43 H43            2.3275     4.9007     0.2281 H       
  44 H44            0.7593     4.3597    -0.4201 H       
  45 H45            1.4102     2.8908     1.4352 H       
  46 H46            2.9885     2.5775     0.6695 H       
  47 H47            1.0755     3.2060    -6.9085 H       
  48 H48            4.9601     2.0852    -5.5393 H       
  49 H49            4.1834     2.2230    -3.2075 H       
  50 H50            0.4801    -1.7310    -1.9831 H       
  51 H51           -0.9147    -3.6189    -2.5725 H       
  52 H52           -4.4391    -5.4897    -2.5516 H       
  53 H53           -2.8420    -4.9909    -3.1586 H       
  54 H54           -2.8941    -6.4477    -0.4712 H       
  55 H55           -2.8810    -8.6721    -1.6903 H       
  56 H56           -3.2207    -7.8024    -3.2807 H       
  57 H57           -1.0680    -6.4862    -3.0208 H       
  58 H58           -0.7283    -7.3560    -1.4303 H       
@<TRIPOS>BOND
   1    1    2 1
   2    1    4 1
   3    1   35 1
   4    1   36 1
   5    2    3 1
   6    2   20 1
   7    3    4 1
   8    3   37 1
   9    3   38 1
  10    4    5 1
  11    4    9 1
  12    5    6 1
  13    5   39 1
  14    5   40 1
  15    6    7 1
  16    6   10 1
  17    7    8 1
  18    7   41 1
  19    7   42 1
  20    8    9 1
  21    8   43 1
  22    8   44 1
  23    9   45 1
  24    9   46 1
  25   10   11 ar
  26   10   15 ar
  27   11   12 ar
  28   11   17 1
  29   12   13 ar
  30   12   47 1
  31   13   14 ar
  32   13   16 1
  33   14   15 ar
  34   14   48 1
  35   15   49 1
  36   18   19 1
  37   18   23 1
  38   18   25 2
  39   19   20 2
  40   19   27 1
  41   20   21 1
  42   21   22 2
  43   21   50 1
  44   22   23 1
  45   22   51 1
  46   23   26 1
  47   24   25 1
  48   24   26 2
  49   26   31 1
  50   27   28 1
  51   27   29 1
  52   27   30 1
  53   31   32 1
  54   31   52 1
  55   31   53 1
  56   32   33 1
  57   32   34 1
  58   32   54 1
  59   33   34 1
  60   33   55 1
  61   33   56 1
  62   34   57 1
  63   34   58 1

#	End of record

