#	Name: ASD02508240
#	Creating user name:	WinNT
#	Creation time:	15. 06. 2019 20:24

#	Modifying user name:	WinNT
#	Modification time:	15. 06. 2019 20:24

#	Program:	/corina/corina34_cracker 3.40 0067  02.08.2006

@<TRIPOS>MOLECULE
ASD02508240
  48   51    0    0    0
SMALL
NO_CHARGES


@<TRIPOS>ATOM
   1 C1            -6.6160     1.2629    -1.9967 C.ar    
   2 C2            -5.6583     2.1748    -1.5537 C.ar    
   3 C3            -4.5017     1.7150    -0.9437 C.ar    
   4 C4            -4.3031     0.3583    -0.7776 C.ar    
   5 C5            -5.2539    -0.5460    -1.2180 C.ar    
   6 C6            -6.4121    -0.0970    -1.8221 C.ar    
   7 S7            -2.8321    -0.2241    -0.0019 S.o2    
   8 N8            -3.1854    -0.4694     1.5973 N.am    
   9 C9            -3.5638     0.6103     2.4042 C.ar    
  10 N10           -7.6498     2.0118    -2.5582 N.am    
  11 C11           -7.3132     3.3124    -2.4495 C.2     
  12 O12           -6.1182     3.4159    -1.8470 O.3     
  13 O13           -2.5670    -1.5057    -0.5554 O.2     
  14 O14           -1.9024     0.8496    -0.0474 O.2     
  15 C15           -8.8774     1.4818    -3.1568 C.3     
  16 O16           -7.9875     4.2471    -2.8371 O.2     
  17 C17           -4.6621     0.4964     3.2462 C.ar    
  18 C18           -2.8374     1.7931     2.3667 C.ar    
  19 C19           -3.2106     2.8581     3.1626 C.ar    
  20 C20           -4.3125     2.7463     4.0001 C.ar    
  21 C21           -5.0353     1.5614     4.0421 C.ar    
  22 N22           -4.6906     3.8259     4.8073 N.am    
  23 S23           -6.2834     4.2684     4.9056 S.o2    
  24 C24           -6.7944     4.7403     3.2867 C.ar    
  25 C25           -7.4459     3.8295     2.4730 C.ar    
  26 C26           -7.8470     4.2014     1.2009 C.ar    
  27 C27           -7.5966     5.4813     0.7434 C.ar    
  28 C28           -6.9462     6.3916     1.5549 C.ar    
  29 C29           -6.5497     6.0237     2.8297 C.ar    
  30 O30           -7.0083     3.0894     5.2274 O.2     
  31 O31           -6.3243     5.4468     5.6987 O.2     
  32 F32           -7.6899     2.5780     2.9196 F       
  33 F33           -5.9144     6.9138     3.6230 F       
  34 H34           -3.7566     2.4167    -0.5990 H       
  35 H35           -5.0916    -1.6055    -1.0855 H       
  36 H36           -7.1532    -0.8040    -2.1649 H       
  37 H37           -3.1302    -1.3612     1.9749 H       
  38 H38           -9.6471     1.3943    -2.3900 H       
  39 H39           -9.2205     2.1572    -3.9405 H       
  40 H40           -8.6780     0.4996    -3.5852 H       
  41 H41           -5.2246    -0.4250     3.2784 H       
  42 H42           -1.9803     1.8801     1.7153 H       
  43 H43           -2.6452     3.7779     3.1340 H       
  44 H44           -5.8924     1.4744     4.6934 H       
  45 H45           -4.0196     4.3146     5.3091 H       
  46 H46           -8.3553     3.4910     0.5658 H       
  47 H47           -7.9092     5.7704    -0.2492 H       
  48 H48           -6.7511     7.3915     1.1964 H       
@<TRIPOS>BOND
   1    1    2 ar
   2    1   10 1
   3    1    6 ar
   4    2    3 ar
   5    2   12 1
   6    3    4 ar
   7    3   34 1
   8    4    5 ar
   9    4    7 1
  10    5    6 ar
  11    5   35 1
  12    6   36 1
  13    7    8 am
  14    7   13 2
  15    7   14 2
  16    8    9 1
  17    8   37 1
  18    9   17 ar
  19    9   18 ar
  20   10   11 am
  21   10   15 1
  22   11   12 1
  23   11   16 2
  24   15   38 1
  25   15   39 1
  26   15   40 1
  27   17   21 ar
  28   17   41 1
  29   18   19 ar
  30   18   42 1
  31   19   20 ar
  32   19   43 1
  33   20   21 ar
  34   20   22 1
  35   21   44 1
  36   22   23 am
  37   22   45 1
  38   23   24 1
  39   23   30 2
  40   23   31 2
  41   24   25 ar
  42   24   29 ar
  43   25   26 ar
  44   25   32 1
  45   26   27 ar
  46   26   46 1
  47   27   28 ar
  48   27   47 1
  49   28   29 ar
  50   28   48 1
  51   29   33 1

#	End of record

