#	Name: ASD01910880
#	Creating user name:	WinNT
#	Creation time:	15. 06. 2019 19:56

#	Modifying user name:	WinNT
#	Modification time:	15. 06. 2019 19:56

#	Program:	/corina/corina34_cracker 3.40 0067  02.08.2006

@<TRIPOS>MOLECULE
ASD01910880
  37   39    0    0    0
SMALL
NO_CHARGES


@<TRIPOS>ATOM
   1 N1            -0.0036     1.3811     0.2121 N.2     
   2 N2             0.0017    -0.0035     0.0012 N.pl3   
   3 C3             1.2357     1.8189     0.1321 C.2     
   4 C4             2.0746     0.7239    -0.1333 C.2     
   5 C5             1.2923    -0.3913    -0.2101 C.2     
   6 C6             1.7589    -1.7700    -0.4738 C.ar    
   7 C7             1.6717     3.2285     0.2946 C.ar    
   8 C8             0.7336     4.2245     0.5571 C.ar    
   9 C9             1.1445     5.5336     0.7073 C.ar    
  10 C10            2.4847     5.8574     0.5975 C.ar    
  11 C11            3.4202     4.8725     0.3364 C.ar    
  12 C12            3.0210     3.5593     0.1907 C.ar    
  13 C13           -1.1717    -0.8806     0.0075 C.3     
  14 C14           -1.6613    -1.0748    -1.4045 C.2     
  15 O15           -2.7333    -1.8466    -1.6430 O.3     
  16 O16           -1.0887    -0.5359    -2.3219 O.2     
  17 C17           -3.1485    -1.9886    -3.0271 C.3     
  18 C18            3.1012    -1.9999    -0.7751 C.ar    
  19 N19            0.8972    -2.7789    -0.4162 N.ar    
  20 C20            3.5236    -3.2945    -1.0190 C.ar    
  21 C21            2.5885    -4.3207    -0.9538 C.ar    
  22 C22            1.2719    -4.0209    -0.6438 C.ar    
  23 F23            2.9608    -5.5986    -1.1855 F       
  24 H24            3.1472     0.7586    -0.2547 H       
  25 H25           -0.3131     3.9728     0.6427 H       
  26 H26            0.4181     6.3066     0.9105 H       
  27 H27            2.8019     6.8830     0.7156 H       
  28 H28            4.4653     5.1308     0.2510 H       
  29 H29            3.7522     2.7910    -0.0131 H       
  30 H30           -0.9012    -1.8464     0.4343 H       
  31 H31           -1.9613    -0.4270     0.6066 H       
  32 H32           -4.0238    -2.6360    -3.0793 H       
  33 H33           -3.3967    -1.0085    -3.4344 H       
  34 H34           -2.3366    -2.4279    -3.6067 H       
  35 H35            3.8011    -1.1786    -0.8177 H       
  36 H36            4.5566    -3.5031    -1.2550 H       
  37 H37            0.5424    -4.8156    -0.5919 H       
@<TRIPOS>BOND
   1    1    2 1
   2    1    3 2
   3    2   13 1
   4    2    5 1
   5    3    4 1
   6    3    7 1
   7    4    5 2
   8    4   24 1
   9    5    6 1
  10    6   18 ar
  11    6   19 ar
  12    7    8 ar
  13    7   12 ar
  14    8    9 ar
  15    8   25 1
  16    9   10 ar
  17    9   26 1
  18   10   11 ar
  19   10   27 1
  20   11   12 ar
  21   11   28 1
  22   12   29 1
  23   13   14 1
  24   13   30 1
  25   13   31 1
  26   14   15 1
  27   14   16 2
  28   15   17 1
  29   17   32 1
  30   17   33 1
  31   17   34 1
  32   18   20 ar
  33   18   35 1
  34   19   22 ar
  35   20   21 ar
  36   20   36 1
  37   21   22 ar
  38   21   23 1
  39   22   37 1

#	End of record

