#	Name: ASD03090753
#	Creating user name:	WinNT
#	Creation time:	15. 06. 2019 20:29

#	Modifying user name:	WinNT
#	Modification time:	15. 06. 2019 20:29

#	Program:	/corina/corina34_cracker 3.40 0067  02.08.2006

@<TRIPOS>MOLECULE
ASD03090753
  40   42    0    0    0
SMALL
NO_CHARGES


@<TRIPOS>ATOM
   1 C1            -0.0173     1.4248     0.0099 C.3     
   2 O2             0.0021    -0.0041     0.0020 O.3     
   3 C3             0.6058    -0.6071    -1.0557 C.ar    
   4 C4             1.1679     0.1605    -2.0651 C.ar    
   5 C5             1.7810    -0.4550    -3.1394 C.ar    
   6 C6             1.8346    -1.8347    -3.2089 C.ar    
   7 C7             1.2746    -2.6022    -2.2041 C.ar    
   8 C8             0.6659    -1.9916    -1.1249 C.ar    
   9 C9             1.3344    -4.1059    -2.2832 C.3     
  10 N10            2.5563    -4.5811    -1.6294 N.am    
  11 C11            2.8232    -5.9012    -1.5778 C.2     
  12 O12            2.0520    -6.6956    -2.0727 O.2     
  13 C13            4.0801    -6.3900    -0.9053 C.3     
  14 C14            3.9246    -7.1687     0.4025 C.3     
  15 C15            4.3264    -7.8998    -0.8801 C.3     
  16 C16            5.7523    -8.3743    -0.9929 C.ar    
  17 C17            6.1278    -9.1918    -2.0425 C.ar    
  18 C18            7.4357    -9.6270    -2.1460 C.ar    
  19 C19            8.3684    -9.2443    -1.2001 C.ar    
  20 C20            7.9932    -8.4260    -0.1511 C.ar    
  21 C21            6.6862    -7.9873    -0.0500 C.ar    
  22 H22            1.0053     1.8021     0.0021 H       
  23 H23           -0.5445     1.7859    -0.8732 H       
  24 H24           -0.5275     1.7763     0.9067 H       
  25 H25            1.1260     1.2383    -2.0115 H       
  26 H26            2.2185     0.1422    -3.9258 H       
  27 H27            2.3144    -2.3139    -4.0495 H       
  28 H28            0.2291    -2.5914    -0.3402 H       
  29 H29            0.4650    -4.5310    -1.7816 H       
  30 H30            1.3379    -4.4149    -3.3285 H       
  31 H31            3.1731    -3.9457    -1.2337 H       
  32 H32            4.9493    -5.7395    -1.0034 H       
  33 H33            4.6915    -7.0309     1.1646 H       
  34 H34            2.9131    -7.3274     0.7764 H       
  35 H35            3.5793    -8.5396    -1.3499 H       
  36 H36            5.3991    -9.4908    -2.7814 H       
  37 H37            7.7289   -10.2663    -2.9656 H       
  38 H38            9.3901    -9.5849    -1.2806 H       
  39 H39            8.7218    -8.1273     0.5881 H       
  40 H40            6.3930    -7.3480     0.7696 H       
@<TRIPOS>BOND
   1    1    2 1
   2    1   22 1
   3    1   23 1
   4    1   24 1
   5    2    3 1
   6    3    4 ar
   7    3    8 ar
   8    4    5 ar
   9    4   25 1
  10    5    6 ar
  11    5   26 1
  12    6    7 ar
  13    6   27 1
  14    7    8 ar
  15    7    9 1
  16    8   28 1
  17    9   10 1
  18    9   29 1
  19    9   30 1
  20   10   11 am
  21   10   31 1
  22   11   12 2
  23   11   13 1
  24   13   14 1
  25   13   15 1
  26   13   32 1
  27   14   15 1
  28   14   33 1
  29   14   34 1
  30   15   16 1
  31   15   35 1
  32   16   17 ar
  33   16   21 ar
  34   17   18 ar
  35   17   36 1
  36   18   19 ar
  37   18   37 1
  38   19   20 ar
  39   19   38 1
  40   20   21 ar
  41   20   39 1
  42   21   40 1

#	End of record

