#	Name: ASD03331332
#	Creating user name:	WinNT
#	Creation time:	15. 06. 2019 20:39

#	Modifying user name:	WinNT
#	Modification time:	15. 06. 2019 20:39

#	Program:	/corina/corina34_cracker 3.40 0067  02.08.2006

@<TRIPOS>MOLECULE
ASD03331332
  57   59    0    0    0
SMALL
NO_CHARGES


@<TRIPOS>ATOM
   1 C1             0.3346     1.6191     0.2637 C.3     
   2 C2             0.2777     0.1310     0.0267 C.2     
   3 C3             1.3701    -0.6261    -0.2362 C.2     
   4 C4             2.7658    -0.0599    -0.3253 C.3     
   5 C5             2.6470     1.4636    -0.4721 C.3     
   6 N6             1.7314     1.9881     0.5505 N.3     
   7 N7            -0.4306    -1.9397    -0.2201 N.2     
   8 N8             0.9624    -1.9082    -0.3907 N.am    
   9 C9            -0.8435    -0.7138     0.0307 C.2     
  10 C10            1.7532    -2.9657    -0.6608 C.2     
  11 O11            2.9516    -2.8113    -0.7876 O.2     
  12 N12            1.2145    -4.1943    -0.7902 N.am    
  13 C13            1.8738     3.4438     0.6878 C.3     
  14 C14            1.2640    -6.4155    -1.7664 C.2     
  15 C15            2.0741    -5.3438    -1.0837 C.3     
  16 C16            2.6521    -5.8948     0.2214 C.3     
  17 C17            1.5139    -6.4022     1.1091 C.3     
  18 O18            0.0692    -6.4890    -1.5718 O.2     
  19 N19            1.8673    -7.2923    -2.5933 N.am    
  20 C20            1.1018    -8.3995    -3.1716 C.3     
  21 C21            3.6080    -7.0479    -0.0910 C.3     
  22 C22            3.4123    -4.7855     0.9510 C.3     
  23 C23           -2.2469    -0.2991     0.2751 C.ar    
  24 C24           -3.0443    -1.0174     1.1673 C.ar    
  25 C25           -4.3510    -0.6263     1.3915 C.ar    
  26 C26           -4.8686     0.4741     0.7332 C.ar    
  27 C27           -4.0819     1.1904    -0.1537 C.ar    
  28 C28           -2.7718     0.8119    -0.3809 C.ar    
  29 F29           -4.5943     2.2640    -0.7941 F       
  30 F30           -2.5400    -2.0933     1.8104 F       
  31 H31           -0.0095     2.1464    -0.6261 H       
  32 H32           -0.2963     1.8803     1.1132 H       
  33 H33            3.3205    -0.3011     0.5815 H       
  34 H34            3.2778    -0.4754    -1.1933 H       
  35 H35            3.6298     1.9180    -0.3467 H       
  36 H36            2.2605     1.7037    -1.4626 H       
  37 H37            0.2577    -4.3176    -0.6889 H       
  38 H38            1.2445     3.7949     1.5056 H       
  39 H39            2.9147     3.6887     0.8992 H       
  40 H40            1.5678     3.9278    -0.2397 H       
  41 H41            2.8879    -5.0312    -1.7380 H       
  42 H42            0.9723    -7.1925     0.5892 H       
  43 H43            1.9256    -6.7948     2.0388 H       
  44 H44            0.8329    -5.5808     1.3316 H       
  45 H45            2.8083    -7.1903    -2.8055 H       
  46 H46            1.7532    -8.9977    -3.8088 H       
  47 H47            0.7040    -9.0233    -2.3711 H       
  48 H48            0.2789    -8.0013    -3.7651 H       
  49 H49            4.4545    -6.6725    -0.6659 H       
  50 H50            3.9669    -7.4849     0.8409 H       
  51 H51            3.0837    -7.8078    -0.6704 H       
  52 H52            2.7312    -3.9641     1.1736 H       
  53 H53            3.8240    -5.1782     1.8808 H       
  54 H54            4.2231    -4.4241     0.3186 H       
  55 H55           -4.9689    -1.1815     2.0817 H       
  56 H56           -5.8902     0.7760     0.9111 H       
  57 H57           -2.1578     1.3740    -1.0690 H       
@<TRIPOS>BOND
   1    1    2 1
   2    1    6 1
   3    1   31 1
   4    1   32 1
   5    2    3 2
   6    2    9 1
   7    3    4 1
   8    3    8 1
   9    4    5 1
  10    4   33 1
  11    4   34 1
  12    5    6 1
  13    5   35 1
  14    5   36 1
  15    6   13 1
  16    7    8 1
  17    7    9 2
  18    8   10 am
  19    9   23 1
  20   10   11 2
  21   10   12 am
  22   12   15 1
  23   12   37 1
  24   13   38 1
  25   13   39 1
  26   13   40 1
  27   14   18 2
  28   14   19 am
  29   14   15 1
  30   15   16 1
  31   15   41 1
  32   16   17 1
  33   16   21 1
  34   16   22 1
  35   17   42 1
  36   17   43 1
  37   17   44 1
  38   19   20 1
  39   19   45 1
  40   20   46 1
  41   20   47 1
  42   20   48 1
  43   21   49 1
  44   21   50 1
  45   21   51 1
  46   22   52 1
  47   22   53 1
  48   22   54 1
  49   23   24 ar
  50   23   28 ar
  51   24   25 ar
  52   24   30 1
  53   25   26 ar
  54   25   55 1
  55   26   27 ar
  56   26   56 1
  57   27   28 ar
  58   27   29 1
  59   28   57 1

#	End of record

