#	Name: ASD08170114
#	Creating user name:	WinNT
#	Creation time:	15. 06. 2019 21:17

#	Modifying user name:	WinNT
#	Modification time:	15. 06. 2019 21:17

#	Program:	/corina/corina34_cracker 3.40 0067  02.08.2006

@<TRIPOS>MOLECULE
ASD08170114
  67   70    0    0    0
SMALL
NO_CHARGES


@<TRIPOS>ATOM
   1 C1            -0.0187     1.5258     0.0104 C.3     
   2 C2             0.0021    -0.0041     0.0020 C.3     
   3 C3             1.4543     3.9531     0.0094 C.3     
   4 C4             2.8209     4.6411     0.0000 C.3     
   5 C5             2.6307     6.1360     0.0099 C.2     
   6 C6            -1.4117    -0.5257     0.0127 C.2     
   7 S7             2.4859     7.1758    -1.4077 S.3     
   8 C8             2.3219     8.5311    -0.3728 C.2     
   9 N9             2.3845     8.1242     0.8591 N.2     
  10 N10            2.5387     6.8875     1.0608 N.2     
  11 S11           -2.3742    -0.8935     1.4445 S.3     
  12 N12           -2.1404    -0.7792    -1.0277 N.2     
  13 N13           -3.3061    -1.2119    -0.8091 N.2     
  14 C14           -3.6713    -1.3622     0.4283 C.2     
  15 N15           -4.9107    -1.8251     0.8572 N.am    
  16 C16           -5.8536    -2.1613    -0.0452 C.2     
  17 O17           -5.6213    -2.0602    -1.2312 O.2     
  18 N18            2.1507     9.8487    -0.7837 N.am    
  19 C19            2.0334    10.8303     0.1323 C.2     
  20 C20            1.8479    12.2581    -0.3129 C.3     
  21 O21            2.0771    10.5647     1.3149 O.2     
  22 C22           -7.1965    -2.6628     0.4196 C.3     
  23 C23            1.7442    13.1518     0.8961 C.ar    
  24 C24           -8.0610    -2.9663    -0.7770 C.ar    
  25 C25            2.8851    13.7124     1.4398 C.ar    
  26 C26           -8.0422    -4.2292    -1.3395 C.ar    
  27 C27            2.7927    14.5320     2.5480 C.ar    
  28 C28            1.5538    14.7924     3.1154 C.ar    
  29 C29            0.4105    14.2287     2.5679 C.ar    
  30 C30            0.5076    13.4143     1.4563 C.ar    
  31 C31           -8.8337    -4.5098    -2.4364 C.ar    
  32 C32           -9.6479    -3.5233    -2.9735 C.ar    
  33 C33           -9.6649    -2.2569    -2.4072 C.ar    
  34 C34           -8.8758    -1.9829    -1.3069 C.ar    
  35 O35          -10.4271    -3.7968    -4.0528 O.3     
  36 C36          -11.2400    -2.7330    -4.5523 C.3     
  37 O37            1.4603    15.5980     4.2059 O.3     
  38 C38            0.1526    15.8219     4.7368 C.3     
  39 S39            1.6831     2.1537    -0.0024 S.3     
  40 H40           -0.5459     1.8868    -0.8726 H       
  41 H41           -0.5289     1.8773     0.9072 H       
  42 H42            0.5123    -0.3556    -0.8948 H       
  43 H43            0.5293    -0.3651     0.8851 H       
  44 H44            0.9072     4.2439     0.9062 H       
  45 H45            0.8903     4.2535    -0.8736 H       
  46 H46            3.3849     4.3408     0.8831 H       
  47 H47            3.3679     4.3503    -0.8968 H       
  48 H48           -5.0964    -1.9059     1.8058 H       
  49 H49            2.1158    10.0612    -1.7295 H       
  50 H50            2.7011    12.5636    -0.9184 H       
  51 H51            0.9355    12.3388    -0.9037 H       
  52 H52           -7.0615    -3.5694     1.0095 H       
  53 H53           -7.6776    -1.8996     1.0312 H       
  54 H54            3.8494    13.5091     0.9980 H       
  55 H55           -7.4079    -4.9967    -0.9213 H       
  56 H56            3.6842    14.9694     2.9726 H       
  57 H57           -0.5552    14.4299     3.0078 H       
  58 H58           -0.3821    12.9752     1.0297 H       
  59 H59           -8.8183    -5.4963    -2.8757 H       
  60 H60          -10.2979    -1.4872    -2.8234 H       
  61 H61           -8.8887    -0.9972    -0.8657 H       
  62 H62          -11.9257    -2.4026    -3.7722 H       
  63 H63          -10.6041    -1.9005    -4.8536 H       
  64 H64          -11.8101    -3.0845    -5.4123 H       
  65 H65           -0.4742    16.2860     3.9753 H       
  66 H66           -0.2854    14.8701     5.0374 H       
  67 H67            0.2200    16.4805     5.6028 H       
@<TRIPOS>BOND
   1    1    2 1
   2    1   39 1
   3    1   40 1
   4    1   41 1
   5    2    6 1
   6    2   42 1
   7    2   43 1
   8    3    4 1
   9    3   39 1
  10    3   44 1
  11    3   45 1
  12    4    5 1
  13    4   46 1
  14    4   47 1
  15    5    7 1
  16    5   10 2
  17    6   11 1
  18    6   12 2
  19    7    8 1
  20    8    9 2
  21    8   18 1
  22    9   10 1
  23   11   14 1
  24   12   13 1
  25   13   14 2
  26   14   15 1
  27   15   16 am
  28   15   48 1
  29   16   17 2
  30   16   22 1
  31   18   19 am
  32   18   49 1
  33   19   20 1
  34   19   21 2
  35   20   23 1
  36   20   50 1
  37   20   51 1
  38   22   24 1
  39   22   52 1
  40   22   53 1
  41   23   25 ar
  42   23   30 ar
  43   24   26 ar
  44   24   34 ar
  45   25   27 ar
  46   25   54 1
  47   26   31 ar
  48   26   55 1
  49   27   28 ar
  50   27   56 1
  51   28   29 ar
  52   28   37 1
  53   29   30 ar
  54   29   57 1
  55   30   58 1
  56   31   32 ar
  57   31   59 1
  58   32   33 ar
  59   32   35 1
  60   33   34 ar
  61   33   60 1
  62   34   61 1
  63   35   36 1
  64   36   62 1
  65   36   63 1
  66   36   64 1
  67   37   38 1
  68   38   65 1
  69   38   66 1
  70   38   67 1

#	End of record

