#	Name: ASD01420087
#	Creating user name:	WinNT
#	Creation time:	15. 06. 2019 19:20

#	Modifying user name:	WinNT
#	Modification time:	15. 06. 2019 19:20

#	Program:	/corina/corina34_cracker 3.40 0067  02.08.2006

@<TRIPOS>MOLECULE
ASD01420087
  41   43    0    0    0
SMALL
NO_CHARGES


@<TRIPOS>ATOM
   1 C1            -0.0144     1.2122     0.0087 C.2     
   2 O2             0.0021    -0.0041     0.0020 O.2     
   3 C3             1.2498     1.9652     0.0007 C.ar    
   4 C4             1.8430     2.3319    -1.2146 C.ar    
   5 C5             3.0274     3.0379    -1.2158 C.ar    
   6 C6             3.6353     3.3867    -0.0149 C.ar    
   7 C7             3.0556     3.0281     1.1938 C.ar    
   8 C8             1.8641     2.3245     1.2103 C.ar    
   9 C9             3.6653     3.4323    -2.5229 C.3     
  10 C10            3.7808     4.9562    -2.5948 C.3     
  11 C11            5.0599     2.8102    -2.6180 C.3     
  12 O12            1.2946     1.9784     2.3919 O.3     
  13 O13            4.8014     4.0808    -0.0249 O.3     
  14 F14            1.2556     1.9940    -2.3834 F       
  15 C15           -2.5280     1.2687     0.0209 C.3     
  16 N16           -1.1906     1.8701     0.0179 N.am    
  17 C17           -1.3780     3.3244     0.0272 C.3     
  18 C18           -2.8612     3.5956     0.0360 C.ar    
  19 C19           -3.5709     4.7842     0.0459 C.ar    
  20 C20           -4.9522     4.7663     0.0526 C.ar    
  21 C21           -5.6272     3.5597     0.0490 C.ar    
  22 C22           -4.9195     2.3733     0.0386 C.ar    
  23 C23           -3.5352     2.3906     0.0323 C.ar    
  24 H24            3.5331     3.3018     2.1230 H       
  25 H25            3.0510     3.0751    -3.3494 H       
  26 H26            4.3951     5.3135    -1.7683 H       
  27 H27            4.2422     5.2415    -3.5402 H       
  28 H28            2.7872     5.3995    -2.5270 H       
  29 H29            5.5213     3.0954    -3.5634 H       
  30 H30            5.6742     3.1674    -1.7915 H       
  31 H31            4.9777     1.7245    -2.5668 H       
  32 H32            1.5818     1.1192     2.7302 H       
  33 H33            4.6876     5.0411    -0.0196 H       
  34 H34           -2.6618     0.6611    -0.8741 H       
  35 H35           -2.6531     0.6508     0.9101 H       
  36 H36           -0.9192     3.7503     0.9195 H       
  37 H37           -0.9280     3.7606    -0.8647 H       
  38 H38           -3.0439     5.7269     0.0488 H       
  39 H39           -5.5046     5.6943     0.0611 H       
  40 H40           -6.7071     3.5446     0.0545 H       
  41 H41           -5.4470     1.4309     0.0361 H       
@<TRIPOS>BOND
   1    1    2 2
   2    1    3 1
   3    1   16 am
   4    3    4 ar
   5    3    8 ar
   6    4    5 ar
   7    4   14 1
   8    5    6 ar
   9    5    9 1
  10    6    7 ar
  11    6   13 1
  12    7    8 ar
  13    7   24 1
  14    8   12 1
  15    9   10 1
  16    9   11 1
  17    9   25 1
  18   10   26 1
  19   10   27 1
  20   10   28 1
  21   11   29 1
  22   11   30 1
  23   11   31 1
  24   12   32 1
  25   13   33 1
  26   15   16 1
  27   15   23 1
  28   15   34 1
  29   15   35 1
  30   16   17 1
  31   17   18 1
  32   17   36 1
  33   17   37 1
  34   18   19 ar
  35   18   23 ar
  36   19   20 ar
  37   19   38 1
  38   20   21 ar
  39   20   39 1
  40   21   22 ar
  41   21   40 1
  42   22   23 ar
  43   22   41 1

#	End of record

