#	Name: ASD03091052
#	Creating user name:	WinNT
#	Creation time:	15. 06. 2019 20:30

#	Modifying user name:	WinNT
#	Modification time:	15. 06. 2019 20:30

#	Program:	/corina/corina34_cracker 3.40 0067  02.08.2006

@<TRIPOS>MOLECULE
ASD03091052
  57   60    0    0    0
SMALL
NO_CHARGES


@<TRIPOS>ATOM
   1 C1             0.0312     2.2389    -1.2820 C.2     
   2 C2            -0.2103     0.7879    -1.1381 C.ar    
   3 C3             0.8619    -0.0851    -0.9461 C.ar    
   4 C4             0.6302    -1.4407    -0.8122 C.ar    
   5 C5            -0.6635    -1.9339    -0.8683 C.ar    
   6 C6            -1.7311    -1.0723    -1.0590 C.ar    
   7 C7            -1.5117     0.2862    -1.1879 C.ar    
   8 O8             1.0155     2.7440    -0.7788 O.2     
   9 N9            -0.8372     3.0011    -1.9759 N.am    
  10 F10           -2.9898    -1.5602    -1.1135 F       
  11 F11            1.6669    -2.2869    -0.6268 F       
  12 N12            4.2400    -0.9559    -1.2548 N.3     
  13 C13            3.1342    -0.2621    -1.9296 C.3     
  14 C14            2.2695     0.4497    -0.8855 C.3     
  15 C15            2.8587     0.1894     0.5066 C.3     
  16 C16            4.2994     0.7149     0.5342 C.3     
  17 C17            5.1084    -0.0037    -0.5495 C.3     
  18 C18            3.7330    -1.9868    -0.3387 C.3     
  19 C19            2.8855    -1.3247     0.7512 C.3     
  20 C20            2.2819    -1.2796    -2.6905 C.3     
  21 C21            3.8541    -2.6956    -4.0374 C.ar    
  22 C22            2.9647    -1.6388    -3.9851 C.ar    
  23 C23            2.7083    -0.9139    -5.1385 C.ar    
  24 C24            3.3592    -1.2806    -6.3069 C.ar    
  25 C25            4.2353    -2.3489    -6.2827 C.ar    
  26 N26            4.4553    -3.0158    -5.1664 N.ar    
  27 C27            0.5264     4.9941    -1.4056 C.2     
  28 C28           -0.6701     4.3726    -2.0212 C.2     
  29 C29           -1.5997     5.1484    -2.6280 C.2     
  30 C30           -1.3745     6.5899    -2.7655 C.2     
  31 O31            0.4591     5.4649    -0.2887 O.2     
  32 O32            1.6884     5.0364    -2.0854 O.3     
  33 O33           -0.3134     7.0747    -2.4233 O.2     
  34 O34           -2.3443     7.3788    -3.2716 O.3     
  35 H35           -0.8399    -2.9942    -0.7631 H       
  36 H36           -2.3453     0.9577    -1.3318 H       
  37 H37           -1.5794     2.5872    -2.4437 H       
  38 H38            3.5372     0.4706    -2.6287 H       
  39 H39            2.2639     1.5213    -1.0851 H       
  40 H40            2.2613     0.6930     1.2667 H       
  41 H41            4.3007     1.7875     0.3400 H       
  42 H42            4.7414     0.5180     1.5109 H       
  43 H43            5.9375    -0.5404    -0.0884 H       
  44 H44            5.4973     0.7276    -1.2580 H       
  45 H45            3.1209    -2.6975    -0.8939 H       
  46 H46            4.5720    -2.5097     0.1204 H       
  47 H47            3.3228    -1.5290     1.7285 H       
  48 H48            1.8698    -1.7187     0.7139 H       
  49 H49            2.1586    -2.1766    -2.0837 H       
  50 H50            1.3040    -0.8477    -2.9032 H       
  51 H51            4.0627    -3.2626    -3.1422 H       
  52 H52            2.0179    -0.0835    -5.1276 H       
  53 H53            3.1832    -0.7384    -7.2241 H       
  54 H54            4.7461    -2.6408    -7.1884 H       
  55 H55           -2.5070     4.7047    -3.0105 H       
  56 H56            2.4412     5.4517    -1.6427 H       
  57 H57           -2.1494     8.3232    -3.3431 H       
@<TRIPOS>BOND
   1    1    2 1
   2    1    8 2
   3    1    9 am
   4    2    3 ar
   5    2    7 ar
   6    3    4 ar
   7    3   14 1
   8    4    5 ar
   9    4   11 1
  10    5    6 ar
  11    5   35 1
  12    6    7 ar
  13    6   10 1
  14    7   36 1
  15    9   28 1
  16    9   37 1
  17   12   17 1
  18   12   18 1
  19   12   13 1
  20   13   14 1
  21   13   20 1
  22   13   38 1
  23   14   15 1
  24   14   39 1
  25   15   16 1
  26   15   19 1
  27   15   40 1
  28   16   17 1
  29   16   41 1
  30   16   42 1
  31   17   43 1
  32   17   44 1
  33   18   19 1
  34   18   45 1
  35   18   46 1
  36   19   47 1
  37   19   48 1
  38   20   22 1
  39   20   49 1
  40   20   50 1
  41   21   22 ar
  42   21   26 ar
  43   21   51 1
  44   22   23 ar
  45   23   24 ar
  46   23   52 1
  47   24   25 ar
  48   24   53 1
  49   25   26 ar
  50   25   54 1
  51   27   28 1
  52   27   31 2
  53   27   32 1
  54   28   29 2
  55   29   30 1
  56   29   55 1
  57   30   33 2
  58   30   34 1
  59   32   56 1
  60   34   57 1

#	End of record

