#	Name: ASD02508231
#	Creating user name:	WinNT
#	Creation time:	15. 06. 2019 20:24

#	Modifying user name:	WinNT
#	Modification time:	15. 06. 2019 20:24

#	Program:	/corina/corina34_cracker 3.40 0067  02.08.2006

@<TRIPOS>MOLECULE
ASD02508231
  33   35    0    0    0
SMALL
NO_CHARGES


@<TRIPOS>ATOM
   1 C1             0.2484     0.6123    -0.3443 C.ar    
   2 C2             0.0012    -0.7454    -0.5454 C.ar    
   3 C3            -1.2921    -1.2321    -0.4366 C.ar    
   4 C4            -2.3284    -0.3719    -0.1302 C.ar    
   5 C5            -2.0821     0.9756     0.0687 C.ar    
   6 C6            -0.7958     1.4688    -0.0322 C.ar    
   7 S7            -3.9716    -0.9926     0.0076 S.o2    
   8 N8            -4.2470    -1.2990     1.6115 N.am    
   9 C9            -3.4672    -2.2408     2.2865 C.ar    
  10 N10            1.6197     0.7977    -0.5177 N.am    
  11 C11            2.1572    -0.4035    -0.8090 C.2     
  12 O12            1.1897    -1.3336    -0.8269 O.3     
  13 O13           -4.8359     0.0769    -0.3508 O.2     
  14 O14           -3.9810    -2.2527    -0.6491 O.2     
  15 C15            2.3437     2.0662    -0.4038 C.3     
  16 O16            3.3360    -0.6121    -1.0225 O.2     
  17 C17           -2.9432    -1.9423     3.5378 C.ar    
  18 C18           -3.2190    -3.4801     1.7104 C.ar    
  19 C19           -2.4478    -4.4100     2.3803 C.ar    
  20 C20           -1.9233    -4.1090     3.6234 C.ar    
  21 C21           -2.1725    -2.8768     4.2030 C.ar    
  22 Cl22          -1.5118    -2.5032     5.7643 Cl      
  23 H23           -1.4893    -2.2826    -0.5916 H       
  24 H24           -2.8974     1.6425     0.3073 H       
  25 H25           -0.6054     2.5204     0.1237 H       
  26 H26           -4.9499    -0.8243     2.0822 H       
  27 H27            2.6736     2.2052     0.6257 H       
  28 H28            3.2108     2.0502    -1.0641 H       
  29 H29            1.6854     2.8870    -0.6884 H       
  30 H30           -3.1375    -0.9810     3.9901 H       
  31 H31           -3.6288    -3.7166     0.7396 H       
  32 H32           -2.2547    -5.3736     1.9324 H       
  33 H33           -1.3210    -4.8380     4.1451 H       
@<TRIPOS>BOND
   1    1    2 ar
   2    1   10 1
   3    1    6 ar
   4    2    3 ar
   5    2   12 1
   6    3    4 ar
   7    3   23 1
   8    4    5 ar
   9    4    7 1
  10    5    6 ar
  11    5   24 1
  12    6   25 1
  13    7    8 am
  14    7   13 2
  15    7   14 2
  16    8    9 1
  17    8   26 1
  18    9   17 ar
  19    9   18 ar
  20   10   11 am
  21   10   15 1
  22   11   12 1
  23   11   16 2
  24   15   27 1
  25   15   28 1
  26   15   29 1
  27   17   21 ar
  28   17   30 1
  29   18   19 ar
  30   18   31 1
  31   19   20 ar
  32   19   32 1
  33   20   21 ar
  34   20   33 1
  35   21   22 1

#	End of record

