#	Name: ASD01180219
#	Creating user name:	WinNT
#	Creation time:	15. 06. 2019 19:07

#	Modifying user name:	WinNT
#	Modification time:	15. 06. 2019 19:07

#	Program:	/corina/corina34_cracker 3.40 0067  02.08.2006

@<TRIPOS>MOLECULE
ASD01180219
  63   65    0    0    0
SMALL
NO_CHARGES


@<TRIPOS>ATOM
   1 C1            -0.0166     1.3759     0.0096 C.ar    
   2 C2             0.0021    -0.0041     0.0020 C.ar    
   3 C3             1.2199    -0.6818    -0.0132 C.ar    
   4 C4             2.4126     0.0393    -0.0207 C.ar    
   5 C5             2.3818     1.4190    -0.0130 C.ar    
   6 C6             1.1702     2.0863     0.0021 C.ar    
   7 C7             1.2465    -2.1646    -0.0210 C.ar    
   8 C8             2.2440    -2.8324    -0.7287 C.ar    
   9 C9             2.2595    -4.2151    -0.7287 C.ar    
  10 C10            1.2701    -4.8903    -0.0159 C.ar    
  11 C11            0.3062    -4.1573     0.6673 C.ar    
  12 N12            0.3235    -2.8410     0.6506 N.ar    
  13 N13            1.2469    -6.2860     0.0113 N.pl3   
  14 C14            0.2030    -6.9868     0.7632 C.3     
  15 C15            0.0009    -8.3616     0.1800 C.ar    
  16 N16            0.9792    -9.2443     0.2452 N.ar    
  17 C17            0.8542   -10.4587    -0.2487 C.ar    
  18 C18           -0.3329   -10.8553    -0.8653 C.ar    
  19 C19           -1.3895    -9.9404    -0.9497 C.ar    
  20 C20           -1.2096    -8.6792    -0.4099 C.ar    
  21 C21           -0.4726   -12.2183    -1.4205 C.2     
  22 N22            0.5519   -13.0897    -1.3334 N.am    
  23 O23           -1.5114   -12.5531    -1.9555 O.2     
  24 C24            1.1432     3.5931     0.0104 C.3     
  25 F25            1.1223     4.0664    -1.3059 F       
  26 F26           -0.0010     4.0352     0.6832 F       
  27 F27            2.2831     4.0763     0.6617 F       
  28 C28            0.6262    -7.1114     2.2282 C.3     
  29 C29            0.7105    -5.7183     2.8550 C.3     
  30 C30            1.1337    -5.8429     4.3201 C.3     
  31 C31            0.4135   -14.4404    -1.8836 C.3     
  32 C32            1.7101   -15.2197    -1.6547 C.3     
  33 C33            1.5677   -16.6091    -2.2207 C.2     
  34 O34            0.5351   -16.9419    -2.7525 O.2     
  35 O35            2.5880   -17.4770    -2.1339 O.3     
  36 C36            3.2922    -2.0575    -1.4849 C.3     
  37 H37           -0.9598     1.9021     0.0169 H       
  38 H38           -0.9252    -0.5578     0.0082 H       
  39 H39            3.3591    -0.4807    -0.0322 H       
  40 H40            3.3054     1.9788    -0.0188 H       
  41 H41            3.0203    -4.7593    -1.2686 H       
  42 H42           -0.4634    -4.6739     1.2216 H       
  43 H43            1.9220    -6.7917    -0.4677 H       
  44 H44           -0.7290    -6.4250     0.7008 H       
  45 H45            1.6779   -11.1535    -0.1761 H       
  46 H46           -2.3225   -10.2136    -1.4202 H       
  47 H47           -2.0025    -7.9475    -0.4566 H       
  48 H48            1.3809   -12.8226    -0.9064 H       
  49 H49           -0.1076    -7.7093     2.7688 H       
  50 H50            1.6015    -7.5949     2.2848 H       
  51 H51            1.4443    -5.1204     2.3145 H       
  52 H52           -0.2648    -5.2348     2.7985 H       
  53 H53            1.1938    -4.8504     4.7666 H       
  54 H54            0.3999    -6.4407     4.8606 H       
  55 H55            2.1090    -6.3264     4.3766 H       
  56 H56           -0.4107   -14.9524    -1.3868 H       
  57 H57            0.2109   -14.3782    -2.9528 H       
  58 H58            2.5342   -14.7077    -2.1515 H       
  59 H59            1.9127   -15.2819    -0.5855 H       
  60 H60            2.4495   -18.3564    -2.5113 H       
  61 H61            4.1428    -1.8636    -0.8314 H       
  62 H62            3.6213    -2.6375    -2.3471 H       
  63 H63            2.8708    -1.1109    -1.8233 H       
@<TRIPOS>BOND
   1    1    2 ar
   2    1    6 ar
   3    1   37 1
   4    2    3 ar
   5    2   38 1
   6    3    4 ar
   7    3    7 1
   8    4    5 ar
   9    4   39 1
  10    5    6 ar
  11    5   40 1
  12    6   24 1
  13    7    8 ar
  14    7   12 ar
  15    8    9 ar
  16    8   36 1
  17    9   10 ar
  18    9   41 1
  19   10   11 ar
  20   10   13 1
  21   11   12 ar
  22   11   42 1
  23   13   14 1
  24   13   43 1
  25   14   15 1
  26   14   28 1
  27   14   44 1
  28   15   16 ar
  29   15   20 ar
  30   16   17 ar
  31   17   18 ar
  32   17   45 1
  33   18   19 ar
  34   18   21 1
  35   19   20 ar
  36   19   46 1
  37   20   47 1
  38   21   22 am
  39   21   23 2
  40   22   31 1
  41   22   48 1
  42   24   25 1
  43   24   26 1
  44   24   27 1
  45   28   29 1
  46   28   49 1
  47   28   50 1
  48   29   30 1
  49   29   51 1
  50   29   52 1
  51   30   53 1
  52   30   54 1
  53   30   55 1
  54   31   32 1
  55   31   56 1
  56   31   57 1
  57   32   33 1
  58   32   58 1
  59   32   59 1
  60   33   34 2
  61   33   35 1
  62   35   60 1
  63   36   61 1
  64   36   62 1
  65   36   63 1

#	End of record

