#	Name: ASD05060123
#	Creating user name:	WinNT
#	Creation time:	15. 06. 2019 20:56

#	Modifying user name:	WinNT
#	Modification time:	15. 06. 2019 20:56

#	Program:	/corina/corina34_cracker 3.40 0067  02.08.2006

@<TRIPOS>MOLECULE
ASD05060123
  26   27    0    0    0
SMALL
NO_CHARGES


@<TRIPOS>ATOM
   1 C1            -0.0167     1.3792     0.0096 C.ar    
   2 C2             0.0021    -0.0041     0.0020 C.ar    
   3 C3             1.2192    -0.6695    -0.0132 C.ar    
   4 N4             2.3541    -0.0073    -0.0200 N.ar    
   5 C5             2.3873     1.3206    -0.0132 C.ar    
   6 C6             1.1991     2.0592     0.0017 C.ar    
   7 C7             3.6883     2.0226    -0.0213 C.2     
   8 N8             4.8356     1.3155    -0.0357 N.am    
   9 O9             3.7233     3.2377    -0.0151 O.2     
  10 O10            1.2304     3.4153     0.0087 O.3     
  11 C11            6.1248     2.0112    -0.0437 C.3     
  12 C12            7.2415     0.9994    -0.0594 C.2     
  13 C13            9.0729    -0.6618     0.3626 C.2     
  14 S14            8.0009     0.3053     1.3671 S.3     
  15 C15            7.8014     0.4890    -1.1573 C.2     
  16 C16            8.8129    -0.4268    -0.9244 C.2     
  17 H17           -0.9520     1.9192     0.0170 H       
  18 H18           -0.9231    -0.5612     0.0082 H       
  19 H19            1.2342    -1.7494    -0.0191 H       
  20 H20            4.8076     0.3459    -0.0406 H       
  21 H21            1.2480     3.8038     0.8940 H       
  22 H22            6.1924     2.6407    -0.9310 H       
  23 H23            6.2087     2.6312     0.8488 H       
  24 H24            9.8248    -1.3438     0.7314 H       
  25 H25            7.4888     0.7687    -2.1525 H       
  26 H26            9.3519    -0.9129    -1.7241 H       
@<TRIPOS>BOND
   1    1    2 ar
   2    1    6 ar
   3    1   17 1
   4    2    3 ar
   5    2   18 1
   6    3    4 ar
   7    3   19 1
   8    4    5 ar
   9    5    6 ar
  10    5    7 1
  11    6   10 1
  12    7    8 am
  13    7    9 2
  14    8   11 1
  15    8   20 1
  16   10   21 1
  17   11   12 1
  18   11   22 1
  19   11   23 1
  20   12   15 2
  21   12   14 1
  22   13   14 1
  23   13   16 2
  24   13   24 1
  25   15   16 1
  26   15   25 1
  27   16   26 1

#	End of record

