#	Name: ASD01903162
#	Creating user name:	WinNT
#	Creation time:	15. 06. 2019 19:54

#	Modifying user name:	WinNT
#	Modification time:	15. 06. 2019 19:54

#	Program:	/corina/corina34_cracker 3.40 0067  02.08.2006

@<TRIPOS>MOLECULE
ASD01903162
  64   67    0    0    0
SMALL
NO_CHARGES


@<TRIPOS>ATOM
   1 C1            11.3787    11.3546     7.1760 C.ar    
   2 C2            10.5215    12.3663     6.7733 C.ar    
   3 C3             9.9682    12.3226     5.5033 C.ar    
   4 N4            10.2459    11.3362     4.6792 N.ar    
   5 C5            11.0618    10.3480     5.0258 C.ar    
   6 C6            11.6535    10.3275     6.2865 C.ar    
   7 C7            11.3451     9.2579     4.0636 C.2     
   8 N8            10.7756     9.2721     2.8422 N.am    
   9 O9            12.0912     8.3507     4.3757 O.2     
  10 C10           11.1176     8.2974     1.8999 C.ar    
  11 C11           11.3878     6.9979     2.3093 C.ar    
  12 C12           11.7254     6.0376     1.3760 C.ar    
  13 C13           11.7947     6.3685     0.0351 C.ar    
  14 C14           11.5268     7.6614    -0.3758 C.ar    
  15 C15           11.1825     8.6251     0.5517 C.ar    
  16 S16           12.2258     5.1402    -1.1523 S.o2    
  17 O17           12.7461     5.8350    -2.2774 O.2     
  18 O18           12.9537     4.1417    -0.4506 O.2     
  19 N19           10.8177     4.4271    -1.6533 N.am    
  20 C20            9.8724     5.1708    -2.3634 C.ar    
  21 C21            9.5966     4.8616    -3.6891 C.ar    
  22 C22            8.6608     5.5987    -4.3883 C.ar    
  23 C23            7.9994     6.6437    -3.7701 C.ar    
  24 C24            8.2716     6.9543    -2.4501 C.ar    
  25 C25            9.2017     6.2178    -1.7436 C.ar    
  26 S26           10.4398     3.5308    -4.4782 S.o2    
  27 O27            9.9745     3.5007    -5.8205 O.2     
  28 O28           11.8120     3.6650    -4.1341 O.2     
  29 N29            9.9149     2.1291    -3.7697 N.am    
  30 C30            8.6700     1.5021    -4.2204 C.3     
  31 C31           10.6956     1.5160    -2.6923 C.3     
  32 C32            9.7980     1.2979    -1.4726 C.3     
  33 C33           10.6133     0.6576    -0.3473 C.3     
  34 C34           11.1666    -0.6881    -0.8205 C.3     
  35 C35           12.0642    -0.4700    -2.0402 C.3     
  36 C36           11.2489     0.1703    -3.1655 C.3     
  37 H37           11.8260    11.3683     8.1590 H       
  38 H38           10.2867    13.1807     7.4426 H       
  39 H39            9.2995    13.1092     5.1863 H       
  40 H40           12.3167     9.5227     6.5672 H       
  41 H41           10.1283     9.9586     2.6169 H       
  42 H42           11.3342     6.7389     3.3564 H       
  43 H43           11.9359     5.0270     1.6938 H       
  44 H44           11.5821     7.9168    -1.4237 H       
  45 H45           10.9734     9.6347     0.2301 H       
  46 H46           10.6493     3.4929    -1.4536 H       
  47 H47            8.4459     5.3588    -5.4191 H       
  48 H48            7.2687     7.2190    -4.3193 H       
  49 H49            7.7534     7.7714    -1.9703 H       
  50 H50            9.4136     6.4606    -0.7128 H       
  51 H51            8.8968     0.7347    -4.9606 H       
  52 H52            8.1633     1.0474    -3.3692 H       
  53 H53            8.0235     2.2577    -4.6668 H       
  54 H54           11.5217     2.1739    -2.4225 H       
  55 H55            9.4038     2.2566    -1.1355 H       
  56 H56            8.9719     0.6400    -1.7424 H       
  57 H57           11.4394     1.3155    -0.0775 H       
  58 H58            9.9738     0.5022     0.5216 H       
  59 H59           11.7474    -1.1443    -0.0189 H       
  60 H60           10.3405    -1.3460    -1.0904 H       
  61 H61           12.8903     0.1879    -1.7704 H       
  62 H62           12.4584    -1.4287    -2.3773 H       
  63 H63           10.4228    -0.4876    -3.4353 H       
  64 H64           11.8884     0.3257    -4.0344 H       
@<TRIPOS>BOND
   1    1    2 ar
   2    1    6 ar
   3    1   37 1
   4    2    3 ar
   5    2   38 1
   6    3    4 ar
   7    3   39 1
   8    4    5 ar
   9    5    6 ar
  10    5    7 1
  11    6   40 1
  12    7    8 am
  13    7    9 2
  14    8   10 1
  15    8   41 1
  16   10   11 ar
  17   10   15 ar
  18   11   12 ar
  19   11   42 1
  20   12   13 ar
  21   12   43 1
  22   13   14 ar
  23   13   16 1
  24   14   15 ar
  25   14   44 1
  26   15   45 1
  27   16   17 2
  28   16   18 2
  29   16   19 am
  30   19   20 1
  31   19   46 1
  32   20   21 ar
  33   20   25 ar
  34   21   22 ar
  35   21   26 1
  36   22   23 ar
  37   22   47 1
  38   23   24 ar
  39   23   48 1
  40   24   25 ar
  41   24   49 1
  42   25   50 1
  43   26   27 2
  44   26   28 2
  45   26   29 am
  46   29   30 1
  47   29   31 1
  48   30   51 1
  49   30   52 1
  50   30   53 1
  51   31   32 1
  52   31   36 1
  53   31   54 1
  54   32   33 1
  55   32   55 1
  56   32   56 1
  57   33   34 1
  58   33   57 1
  59   33   58 1
  60   34   35 1
  61   34   59 1
  62   34   60 1
  63   35   36 1
  64   35   61 1
  65   35   62 1
  66   36   63 1
  67   36   64 1

#	End of record

