#	Name: ASD01820024
#	Creating user name:	WinNT
#	Creation time:	15. 06. 2019 19:36

#	Modifying user name:	WinNT
#	Modification time:	15. 06. 2019 19:36

#	Program:	/corina/corina34_cracker 3.40 0067  02.08.2006

@<TRIPOS>MOLECULE
ASD01820024
 114  119    0    0    0
SMALL
NO_CHARGES


@<TRIPOS>ATOM
   1 C1             1.1016    -0.6836   -14.0589 C.ar    
   2 C2             1.0947    -2.0076   -13.6691 C.ar    
   3 N3             0.4039    -2.3985   -12.6152 N.ar    
   4 C4            -0.3091    -1.5496   -11.8911 C.ar    
   5 C5            -0.3249    -0.1915   -12.2046 C.ar    
   6 C6             0.3841     0.2456   -13.3201 C.ar    
   7 N7            -1.0854    -2.0388   -10.8355 N.am    
   8 C8            -2.4682    -1.8730   -10.8771 C.ar    
   9 C9            -3.0286    -0.5918   -10.9187 C.ar    
  10 C10           -2.1750     0.6012   -10.8405 C.2     
  11 N11           -0.9909     0.7400   -11.4162 N.am    
  12 C12           -3.2960    -2.9881   -10.8844 C.ar    
  13 C13           -4.6657    -2.8327   -10.9608 C.ar    
  14 C14           -5.2230    -1.5666   -11.0334 C.ar    
  15 C15           -4.4164    -0.4494   -11.0136 C.ar    
  16 C16           -0.5036    -2.6629    -9.7921 C.2     
  17 N17            0.8347    -2.8189    -9.7612 N.am    
  18 C18            1.4769    -3.4041    -8.5817 C.3     
  19 C19            2.9731    -3.5791    -8.8497 C.3     
  20 N20            3.6248    -4.1240    -7.6512 N.3     
  21 O21           -2.5915     1.5412   -10.1917 O.2     
  22 O22           -1.1861    -3.0850    -8.8788 O.2     
  23 C23            3.1901    -5.5034    -7.3969 C.3     
  24 C24            3.9940    -6.0866    -6.2325 C.3     
  25 C25            3.7756    -5.2248    -4.9858 C.3     
  26 C26            4.1907    -3.7832    -5.2923 C.3     
  27 C27            3.3811    -3.2668    -6.4840 C.3     
  28 C28            3.8069    -1.8331    -6.8067 C.3     
  29 N29            3.4493    -0.9523    -5.6867 N.3     
  30 C30            4.5816    -0.7854    -4.7659 C.3     
  31 C31            5.7178    -0.0528    -5.4823 C.3     
  32 C32            6.8931     0.1305    -4.5200 C.3     
  33 C33            2.9695     0.3484    -6.1724 C.3     
  34 C34            2.3326     1.1214    -5.0157 C.3     
  35 C35            1.8650     2.4905    -5.5135 C.3     
  36 C36            1.2281     3.2634    -4.3569 C.3     
  37 C37            0.7605     4.6325    -4.8547 C.3     
  38 C38            0.1236     5.4054    -3.6980 C.3     
  39 N39           -0.3254     6.7199    -4.1760 N.4     
  40 C40            0.8255     7.4724    -4.6928 C.3     
  41 C41           -1.3139     6.5399    -5.2476 C.3     
  42 C42           -0.9369     7.4621    -3.0654 C.3     
  43 C43           -1.4045     8.8312    -3.5632 C.3     
  44 C44           -2.0414     9.6041    -2.4066 C.3     
  45 N45           -2.4892    10.9150    -2.8832 N.am    
  46 C46           -3.7111    11.1649    -3.3874 C.2     
  47 C47           -3.7851    12.5943    -3.7565 C.ar    
  48 C48           -2.5277    13.1423    -3.4304 C.ar    
  49 C49           -1.7345    12.0285    -2.8689 C.2     
  50 C50           -4.7669    13.4020    -4.3065 C.ar    
  51 C51           -4.5055    14.7448    -4.5324 C.ar    
  52 C52           -3.2730    15.2819    -4.2132 C.ar    
  53 C53           -2.2807    14.4856    -3.6620 C.ar    
  54 O54           -0.5903    12.1043    -2.4691 O.2     
  55 O55           -4.6038    10.3519    -3.5181 O.2     
  56 H56            1.6634    -0.3736   -14.9276 H       
  57 H57            1.6617    -2.7327   -14.2340 H       
  58 H58            0.3759     1.2875   -13.6044 H       
  59 H59           -0.5376     1.5853   -11.2717 H       
  60 H60           -2.8677    -3.9781   -10.8299 H       
  61 H61           -5.3058    -3.7025   -10.9643 H       
  62 H62           -6.2947    -1.4545   -11.1063 H       
  63 H63           -4.8558     0.5354   -11.0711 H       
  64 H64            1.3728    -2.5437   -10.5200 H       
  65 H65            1.3359    -2.7438    -7.7260 H       
  66 H66            1.0299    -4.3752    -8.3688 H       
  67 H67            3.1148    -4.2658    -9.6842 H       
  68 H68            3.4137    -2.6129    -9.0953 H       
  69 H69            2.1296    -5.5095    -7.1451 H       
  70 H70            3.3546    -6.1065    -8.2899 H       
  71 H71            3.6603    -7.1050    -6.0339 H       
  72 H72            5.0533    -6.0936    -6.4891 H       
  73 H73            2.7224    -5.2490    -4.7062 H       
  74 H74            4.3803    -5.6114    -4.1654 H       
  75 H75            3.9976    -3.1560    -4.4220 H       
  76 H76            5.2532    -3.7540    -5.5341 H       
  77 H77            2.3197    -3.2833    -6.2365 H       
  78 H78            4.8850    -1.8010    -6.9643 H       
  79 H79            3.2975    -1.4974    -7.7099 H       
  80 H80            4.2634    -0.2043    -3.9003 H       
  81 H81            4.9305    -1.7646    -4.4378 H       
  82 H82            6.0411    -0.6376    -6.3434 H       
  83 H83            5.3667     0.9233    -5.8170 H       
  84 H84            6.5495     0.6398    -3.6196 H       
  85 H85            7.2996    -0.8450    -4.2529 H       
  86 H86            7.6676     0.7273    -5.0018 H       
  87 H87            3.8080     0.9186    -6.5724 H       
  88 H88            2.2289     0.1927    -6.9568 H       
  89 H89            1.4786     0.5631    -4.6323 H       
  90 H90            3.0661     1.2550    -4.2206 H       
  91 H91            2.7190     3.0488    -5.8970 H       
  92 H92            1.1316     2.3568    -6.3087 H       
  93 H93            0.3741     2.7051    -3.9734 H       
  94 H94            1.9616     3.3970    -3.5617 H       
  95 H95            1.6145     5.1908    -5.2381 H       
  96 H96            0.0270     4.4989    -5.6498 H       
  97 H97           -0.7304     4.8471    -3.3145 H       
  98 H98            0.8570     5.5391    -2.9028 H       
  99 H99            1.2793     6.9217    -5.5168 H       
 100 H100           0.4924     8.4478    -5.0474 H       
 101 H101           1.5590     7.6060    -3.8976 H       
 102 H102          -2.1679     5.9816    -4.8641 H       
 103 H103          -1.6470     7.5152    -5.6023 H       
 104 H104          -0.8602     5.9892    -6.0716 H       
 105 H105          -1.7909     6.9038    -2.6819 H       
 106 H106          -0.2034     7.5957    -2.2702 H       
 107 H107          -0.5505     9.3895    -3.9467 H       
 108 H108          -2.1380     8.6976    -4.3584 H       
 109 H109          -2.8954     9.0458    -2.0231 H       
 110 H110          -1.3080     9.7377    -1.6114 H       
 111 H111          -5.7318    12.9875    -4.5585 H       
 112 H112          -5.2704    15.3753    -4.9611 H       
 113 H113          -3.0811    16.3291    -4.3946 H       
 114 H114          -1.3193    14.9108    -3.4142 H       
@<TRIPOS>BOND
   1    1    2 ar
   2    1    6 ar
   3    1   56 1
   4    2    3 ar
   5    2   57 1
   6    3    4 ar
   7    4    5 ar
   8    4    7 1
   9    5    6 ar
  10    5   11 1
  11    6   58 1
  12    7    8 1
  13    7   16 am
  14    8    9 ar
  15    8   12 ar
  16    9   10 1
  17    9   15 ar
  18   10   11 am
  19   10   21 2
  20   11   59 1
  21   12   13 ar
  22   12   60 1
  23   13   14 ar
  24   13   61 1
  25   14   15 ar
  26   14   62 1
  27   15   63 1
  28   16   17 am
  29   16   22 2
  30   17   18 1
  31   17   64 1
  32   18   19 1
  33   18   65 1
  34   18   66 1
  35   19   20 1
  36   19   67 1
  37   19   68 1
  38   20   23 1
  39   20   27 1
  40   23   24 1
  41   23   69 1
  42   23   70 1
  43   24   25 1
  44   24   71 1
  45   24   72 1
  46   25   26 1
  47   25   73 1
  48   25   74 1
  49   26   27 1
  50   26   75 1
  51   26   76 1
  52   27   28 1
  53   27   77 1
  54   28   29 1
  55   28   78 1
  56   28   79 1
  57   29   30 1
  58   29   33 1
  59   30   31 1
  60   30   80 1
  61   30   81 1
  62   31   32 1
  63   31   82 1
  64   31   83 1
  65   32   84 1
  66   32   85 1
  67   32   86 1
  68   33   34 1
  69   33   87 1
  70   33   88 1
  71   34   35 1
  72   34   89 1
  73   34   90 1
  74   35   36 1
  75   35   91 1
  76   35   92 1
  77   36   37 1
  78   36   93 1
  79   36   94 1
  80   37   38 1
  81   37   95 1
  82   37   96 1
  83   38   39 1
  84   38   97 1
  85   38   98 1
  86   39   40 1
  87   39   41 1
  88   39   42 1
  89   40   99 1
  90   40  100 1
  91   40  101 1
  92   41  102 1
  93   41  103 1
  94   41  104 1
  95   42   43 1
  96   42  105 1
  97   42  106 1
  98   43   44 1
  99   43  107 1
 100   43  108 1
 101   44   45 1
 102   44  109 1
 103   44  110 1
 104   45   46 am
 105   45   49 am
 106   46   47 1
 107   46   55 2
 108   47   48 ar
 109   47   50 ar
 110   48   49 1
 111   48   53 ar
 112   49   54 2
 113   50   51 ar
 114   50  111 1
 115   51   52 ar
 116   51  112 1
 117   52   53 ar
 118   52  113 1
 119   53  114 1

#	End of record

