#	Name: ASD05170115
#	Creating user name:	WinNT
#	Creation time:	15. 06. 2019 20:57

#	Modifying user name:	WinNT
#	Modification time:	15. 06. 2019 20:57

#	Program:	/corina/corina34_cracker 3.40 0067  02.08.2006

@<TRIPOS>MOLECULE
ASD05170115
  42   45    0    0    0
SMALL
NO_CHARGES


@<TRIPOS>ATOM
   1 C1            -0.2245     1.4603    -1.1201 C.ar    
   2 C2            -0.2359     0.0851    -1.2733 C.ar    
   3 C3             0.9613    -0.6065    -1.1380 C.ar    
   4 C4             2.1180     0.0946    -0.8566 C.ar    
   5 N5             2.0962     1.4066    -0.7162 N.ar    
   6 C6             0.9762     2.0991    -0.8378 C.ar    
   7 O7             1.0002     3.4473    -0.6852 O.3     
   8 C8             2.2655     4.0451    -0.3960 C.3     
   9 C9             2.0974     5.5366    -0.2617 C.2     
  10 C10            0.8954     6.2456    -0.3902 C.2     
  11 N11            3.0501     6.4003     0.0020 N.2     
  12 C12            1.2326     7.5541    -0.1910 C.2     
  13 C13            0.4248     8.7832    -0.1914 C.2     
  14 N14            2.5867     7.5872     0.0602 N.pl3   
  15 C15            3.2737     8.8504     0.3547 C.3     
  16 C16            2.5570     9.9931    -0.3634 C.3     
  17 N17            1.1093     9.9527    -0.1718 N.am    
  18 O18           -0.7910     8.7518    -0.2087 O.2     
  19 C19            3.2540     9.1031     1.8636 C.3     
  20 Cl20           1.0033    -2.3324    -1.3198 Cl      
  21 C21            0.4147    11.1477     0.0413 C.ar    
  22 C22            0.3116    12.0933    -0.9711 C.ar    
  23 N23           -0.3417    13.2206    -0.7737 N.ar    
  24 C24           -0.9193    13.4964     0.3795 C.ar    
  25 C25           -0.8603    12.6053     1.4346 C.ar    
  26 C26           -0.1887    11.4048     1.2698 C.ar    
  27 H27           -1.1363     2.0298    -1.2230 H       
  28 H28           -1.1546    -0.4387    -1.4928 H       
  29 H29            3.0517    -0.4377    -0.7499 H       
  30 H30            2.6550     3.6378     0.5370 H       
  31 H31            2.9628     3.8295    -1.2057 H       
  32 H32           -0.0848     5.8443    -0.6013 H       
  33 H33            4.3055     8.7930     0.0080 H       
  34 H34            2.9362    10.9415     0.0173 H       
  35 H35            2.7749     9.9311    -1.4296 H       
  36 H36            3.7619     8.2857     2.3754 H       
  37 H37            3.7644    10.0412     2.0816 H       
  38 H38            2.2218     9.1622     2.2086 H       
  39 H39            0.7717    11.9028    -1.9294 H       
  40 H40           -1.4454    14.4317     0.5012 H       
  41 H41           -1.3359    12.8405     2.3753 H       
  42 H42           -0.1308    10.6880     2.0755 H       
@<TRIPOS>BOND
   1    1    2 ar
   2    1    6 ar
   3    1   27 1
   4    2    3 ar
   5    2   28 1
   6    3    4 ar
   7    3   20 1
   8    4    5 ar
   9    4   29 1
  10    5    6 ar
  11    6    7 1
  12    7    8 1
  13    8    9 1
  14    8   30 1
  15    8   31 1
  16    9   11 2
  17    9   10 1
  18   10   12 2
  19   10   32 1
  20   11   14 1
  21   12   14 1
  22   12   13 1
  23   13   17 am
  24   13   18 2
  25   14   15 1
  26   15   16 1
  27   15   19 1
  28   15   33 1
  29   16   17 1
  30   16   34 1
  31   16   35 1
  32   17   21 1
  33   19   36 1
  34   19   37 1
  35   19   38 1
  36   21   22 ar
  37   21   26 ar
  38   22   23 ar
  39   22   39 1
  40   23   24 ar
  41   24   25 ar
  42   24   40 1
  43   25   26 ar
  44   25   41 1
  45   26   42 1

#	End of record

