#	Name: ASD03240697
#	Creating user name:	WinNT
#	Creation time:	15. 06. 2019 20:35

#	Modifying user name:	WinNT
#	Modification time:	15. 06. 2019 20:35

#	Program:	/corina/corina34_cracker 3.40 0067  02.08.2006

@<TRIPOS>MOLECULE
ASD03240697
  55   60    0    0    0
SMALL
NO_CHARGES


@<TRIPOS>ATOM
   1 C1            -0.0188     1.5336     0.0105 C.3     
   2 C2             0.0021    -0.0041     0.0020 C.3     
   3 C3             1.3815     0.0967    -0.6702 C.3     
   4 C4             1.5179     1.4762    -0.0045 C.3     
   5 O5            -0.5818     2.1049    -1.1721 O.3     
   6 C6             2.3746    -0.9181    -0.1653 C.ar    
   7 C7             3.3681    -1.3872    -1.0061 C.ar    
   8 C8             4.2801    -2.3167    -0.5499 C.ar    
   9 C9             4.1992    -2.7830     0.7624 C.ar    
  10 C10            3.1954    -2.3058     1.6054 C.ar    
  11 C11            2.2926    -1.3725     1.1389 C.ar    
  12 C12            7.8707    -7.5256     0.4017 C.2     
  13 N13            8.3267    -7.5362     1.6667 N.2     
  14 C14            7.9359    -6.6568     2.5527 C.2     
  15 C15            6.9745    -5.6296     2.1574 C.ar    
  16 C16            6.4992    -5.6240     0.8286 C.ar    
  17 N17            6.9693    -6.5939    -0.0366 N.pl3   
  18 C18            6.5192    -4.6621     3.0592 C.ar    
  19 C19            5.6028    -3.7221     2.5985 C.ar    
  20 C20            5.1744    -3.7808     1.2582 C.ar    
  21 N21            5.6285    -4.7124     0.4328 N.ar    
  22 N22            6.7019    -6.8568    -1.3856 N.2     
  23 C23            7.4039    -7.8993    -1.7602 C.2     
  24 C24            8.1453    -8.3549    -0.6775 C.2     
  25 C25            5.0736    -1.3659     3.1816 C.2     
  26 C26            5.0833    -2.6721     3.5073 C.2     
  27 C27            4.5641    -2.9558     4.7696 C.2     
  28 C28            4.1415    -1.8954     5.4530 C.2     
  29 S29            4.3858    -0.4348     4.5055 S.3     
  30 C30            7.4017    -8.5078    -3.1389 C.3     
  31 C31           -0.5973     2.1316     1.2944 C.3     
  32 N32            1.3186     0.1546    -2.1367 N.3     
  33 H33            0.0329    -0.4458     0.9980 H       
  34 H34           -0.7629    -0.4476    -0.6353 H       
  35 H35            1.9766     2.2276    -0.6471 H       
  36 H36            1.9632     1.4391     0.9897 H       
  37 H37           -0.5977     3.0718    -1.1727 H       
  38 H38            3.4297    -1.0254    -2.0218 H       
  39 H39            5.0548    -2.6826    -1.2074 H       
  40 H40            3.1274    -2.6634     2.6222 H       
  41 H41            1.5177    -0.9990     1.7919 H       
  42 H42            8.3185    -6.6892     3.5621 H       
  43 H43            6.8675    -4.6458     4.0814 H       
  44 H44            8.8166    -9.2010    -0.6760 H       
  45 H45            5.4366    -0.9528     2.2521 H       
  46 H46            4.5087    -3.9601     5.1627 H       
  47 H47            3.7116    -1.9272     6.4432 H       
  48 H48            8.1744    -8.0357    -3.7457 H       
  49 H49            7.6008    -9.5769    -3.0646 H       
  50 H50            6.4283    -8.3509    -3.6037 H       
  51 H51            0.0010     1.8098     2.1469 H       
  52 H52           -0.5800     3.2195     1.2285 H       
  53 H53           -1.6249     1.7917     1.4227 H       
  54 H54            2.2430     0.2199    -2.5360 H       
  55 H55            0.8193    -0.6393    -2.5089 H       
@<TRIPOS>BOND
   1    1    2 1
   2    1    4 1
   3    1    5 1
   4    1   31 1
   5    2    3 1
   6    2   33 1
   7    2   34 1
   8    3    4 1
   9    3    6 1
  10    3   32 1
  11    4   35 1
  12    4   36 1
  13    5   37 1
  14    6    7 ar
  15    6   11 ar
  16    7    8 ar
  17    7   38 1
  18    8    9 ar
  19    8   39 1
  20    9   10 ar
  21    9   20 1
  22   10   11 ar
  23   10   40 1
  24   11   41 1
  25   12   13 1
  26   12   17 1
  27   12   24 2
  28   13   14 2
  29   14   15 1
  30   14   42 1
  31   15   16 ar
  32   15   18 ar
  33   16   17 1
  34   16   21 ar
  35   17   22 1
  36   18   19 ar
  37   18   43 1
  38   19   20 ar
  39   19   26 1
  40   20   21 ar
  41   22   23 2
  42   23   24 1
  43   23   30 1
  44   24   44 1
  45   25   26 2
  46   25   29 1
  47   25   45 1
  48   26   27 1
  49   27   28 2
  50   27   46 1
  51   28   29 1
  52   28   47 1
  53   30   48 1
  54   30   49 1
  55   30   50 1
  56   31   51 1
  57   31   52 1
  58   31   53 1
  59   32   54 1
  60   32   55 1

#	End of record

