#	Name: ASD01882318
#	Creating user name:	WinNT
#	Creation time:	15. 06. 2019 19:44

#	Modifying user name:	WinNT
#	Modification time:	15. 06. 2019 19:44

#	Program:	/corina/corina34_cracker 3.40 0067  02.08.2006

@<TRIPOS>MOLECULE
ASD01882318
  54   59    0    0    0
SMALL
NO_CHARGES


@<TRIPOS>ATOM
   1 C1             0.0272     1.5728     0.1934 C.3     
   2 O2             0.0842     0.1423     0.3130 O.3     
   3 C3             1.3221    -0.2322    -0.3204 C.3     
   4 C4             2.2452     0.9536    -0.1626 C.ar    
   5 C5             3.6152     1.0952    -0.2727 C.ar    
   6 C6             4.1997     2.3344    -0.0689 C.ar    
   7 C7             3.4125     3.4266     0.2440 C.ar    
   8 C8             2.0413     3.2841     0.3534 C.ar    
   9 C9             1.4572     2.0506     0.1502 C.ar    
  10 N10           -2.7788     1.8751     0.1718 N.pl3   
  11 C11           -2.1259     1.4081    -1.0588 C.3     
  12 C12           -0.6956     1.9570    -1.0964 C.3     
  13 C13           -0.6918     2.1671     1.4027 C.3     
  14 C14           -2.1226     1.6211     1.4615 C.3     
  15 F15            4.3834     0.0267    -0.5783 F       
  16 C16           -6.3397     2.6739     0.5807 C.2     
  17 C17           -5.1216     1.9764     0.6482 C.2     
  18 C18           -3.9967     2.5462     0.1167 C.2     
  19 C19           -4.0794     3.8197    -0.4874 C.2     
  20 C20           -5.2578     4.4708    -0.5410 C.2     
  21 N21           -6.3852     3.9114    -0.0142 N.pl3   
  22 N22           -8.3508     3.3757     0.6857 N.2     
  23 N23           -7.5700     2.3982     0.9860 N.2     
  24 C24           -7.6834     4.3201     0.0768 C.2     
  25 C25           -5.0550     0.6183     1.2979 C.3     
  26 F26           -4.6900     0.7612     2.6408 F       
  27 F27           -6.3080     0.0013     1.2184 F       
  28 F28           -4.1051    -0.1684     0.6376 F       
  29 C29           -8.2457     5.6220    -0.4330 C.3     
  30 C30           -8.7203     5.4421    -1.8764 C.3     
  31 C31           -9.4334     6.6231    -2.5379 C.3     
  32 C32           -8.0097     6.2552    -2.9602 C.3     
  33 H33            1.7466    -1.1067     0.1726 H       
  34 H34            1.1552    -0.4402    -1.3773 H       
  35 H35            5.2704     2.4470    -0.1540 H       
  36 H36            3.8688     4.3924     0.4035 H       
  37 H37            1.4275     4.1384     0.5982 H       
  38 H38           -2.0995     0.3184    -1.0677 H       
  39 H39           -2.6789     1.7695    -1.9258 H       
  40 H40           -0.7250     3.0428    -1.1873 H       
  41 H41           -0.1660     1.5342    -1.9500 H       
  42 H42           -0.1599     1.8921     2.3135 H       
  43 H43           -0.7204     3.2529     1.3115 H       
  44 H44           -2.6730     2.1236     2.2568 H       
  45 H45           -2.0967     0.5485     1.6534 H       
  46 H46           -3.1945     4.2740    -0.9080 H       
  47 H47           -5.3105     5.4444    -1.0054 H       
  48 H48           -9.0868     5.9237     0.1911 H       
  49 H49           -7.4731     6.3901    -0.3976 H       
  50 H50           -9.0577     4.4394    -2.1388 H       
  51 H51          -10.2397     6.3974    -3.2358 H       
  52 H52           -9.5645     7.5282    -1.9448 H       
  53 H53           -7.2040     6.9183    -2.6450 H       
  54 H54           -7.8792     5.7874    -3.9361 H       
@<TRIPOS>BOND
   1    1    2 1
   2    1    9 1
   3    1   12 1
   4    1   13 1
   5    2    3 1
   6    3    4 1
   7    3   33 1
   8    3   34 1
   9    4    5 ar
  10    4    9 ar
  11    5    6 ar
  12    5   15 1
  13    6    7 ar
  14    6   35 1
  15    7    8 ar
  16    7   36 1
  17    8    9 ar
  18    8   37 1
  19   10   11 1
  20   10   14 1
  21   10   18 1
  22   11   12 1
  23   11   38 1
  24   11   39 1
  25   12   40 1
  26   12   41 1
  27   13   14 1
  28   13   42 1
  29   13   43 1
  30   14   44 1
  31   14   45 1
  32   16   17 1
  33   16   21 1
  34   16   23 2
  35   17   18 2
  36   17   25 1
  37   18   19 1
  38   19   20 2
  39   19   46 1
  40   20   21 1
  41   20   47 1
  42   21   24 1
  43   22   23 1
  44   22   24 2
  45   24   29 1
  46   25   26 1
  47   25   27 1
  48   25   28 1
  49   29   30 1
  50   29   48 1
  51   29   49 1
  52   30   31 1
  53   30   32 1
  54   30   50 1
  55   31   32 1
  56   31   51 1
  57   31   52 1
  58   32   53 1
  59   32   54 1

#	End of record

