#	Name: ASD01882746
#	Creating user name:	WinNT
#	Creation time:	15. 06. 2019 19:45

#	Modifying user name:	WinNT
#	Modification time:	15. 06. 2019 19:45

#	Program:	/corina/corina34_cracker 3.40 0067  02.08.2006

@<TRIPOS>MOLECULE
ASD01882746
  47   49    0    0    0
SMALL
NO_CHARGES


@<TRIPOS>ATOM
   1 C1            -0.0180     1.4780     0.0102 C.ar    
   2 C2             0.0021    -0.0041     0.0020 C.ar    
   3 N3             1.1657    -0.6425    -0.0071 N.ar    
   4 C4            -1.2011    -0.7074     0.0097 C.ar    
   5 C5            -1.1755    -2.0916     0.0020 C.ar    
   6 C6             1.2294    -1.9628    -0.0146 C.ar    
   7 N7             2.2904    -2.8596    -0.0245 N.am    
   8 C8             0.0584    -2.7282    -0.0132 C.ar    
   9 N9             0.4477    -4.0643    -0.0248 N.am    
  10 C10            1.7935    -4.1104    -0.0288 C.2     
  11 C11            3.7114    -2.5036    -0.0298 C.3     
  12 C12           -0.4514    -5.2210    -0.0219 C.3     
  13 C13           -0.7795    -5.6155    -1.4633 C.3     
  14 C14            0.5122    -5.9754    -2.2002 C.3     
  15 C15           -1.7184    -6.8235    -1.4603 C.3     
  16 C16           -1.4603    -4.4421    -2.1709 C.3     
  17 O17            2.4595    -5.1287    -0.0381 O.2     
  18 C18            1.1533     3.5823     0.0108 C.ar    
  19 C19           -0.0567     4.2500     0.0264 C.ar    
  20 C20           -1.2452     3.5415     0.0393 C.ar    
  21 C21           -1.2319     2.1614     0.0313 C.ar    
  22 C22            1.1818     2.1971     0.0026 C.ar    
  23 O23            2.3703     1.5399    -0.0123 O.3     
  24 C24            3.5542     2.3401    -0.0193 C.3     
  25 H25           -2.1427    -0.1787     0.0219 H       
  26 H26           -2.0925    -2.6621     0.0081 H       
  27 H27            4.0690    -2.4206     0.9965 H       
  28 H28            4.2775    -3.2760    -0.5504 H       
  29 H29            3.8450    -1.5494    -0.5394 H       
  30 H30            0.0336    -6.0569     0.4822 H       
  31 H31           -1.3716    -4.9646     0.5030 H       
  32 H32            0.9972    -6.8113    -1.6961 H       
  33 H33            0.2785    -6.2564    -3.2270 H       
  34 H34            1.1811    -5.1148    -2.2023 H       
  35 H35           -2.6387    -6.5671    -0.9354 H       
  36 H36           -1.9522    -7.1045    -2.4872 H       
  37 H37           -1.2334    -7.6594    -0.9562 H       
  38 H38           -0.7913    -3.5815    -2.1730 H       
  39 H39           -1.6940    -4.7232    -3.1977 H       
  40 H40           -2.3805    -4.1857    -1.6459 H       
  41 H41            2.0776     4.1410     0.0008 H       
  42 H42           -0.0747     5.3298     0.0331 H       
  43 H43           -2.1867     4.0704     0.0514 H       
  44 H44           -2.1616     1.6118     0.0410 H       
  45 H45            3.5590     2.9741    -0.9060 H       
  46 H46            3.5760     2.9645     0.8739 H       
  47 H47            4.4307     1.6922    -0.0312 H       
@<TRIPOS>BOND
   1    1    2 1
   2    1   22 ar
   3    1   21 ar
   4    2    4 ar
   5    2    3 ar
   6    3    6 ar
   7    4    5 ar
   8    4   25 1
   9    5    8 ar
  10    5   26 1
  11    6    8 ar
  12    6    7 1
  13    7   10 am
  14    7   11 1
  15    8    9 1
  16    9   10 am
  17    9   12 1
  18   10   17 2
  19   11   27 1
  20   11   28 1
  21   11   29 1
  22   12   13 1
  23   12   30 1
  24   12   31 1
  25   13   14 1
  26   13   15 1
  27   13   16 1
  28   14   32 1
  29   14   33 1
  30   14   34 1
  31   15   35 1
  32   15   36 1
  33   15   37 1
  34   16   38 1
  35   16   39 1
  36   16   40 1
  37   18   19 ar
  38   18   22 ar
  39   18   41 1
  40   19   20 ar
  41   19   42 1
  42   20   21 ar
  43   20   43 1
  44   21   44 1
  45   22   23 1
  46   23   24 1
  47   24   45 1
  48   24   46 1
  49   24   47 1

#	End of record

