#	Name: ASD01180099
#	Creating user name:	WinNT
#	Creation time:	15. 06. 2019 19:06

#	Modifying user name:	WinNT
#	Modification time:	15. 06. 2019 19:06

#	Program:	/corina/corina34_cracker 3.40 0067  02.08.2006

@<TRIPOS>MOLECULE
ASD01180099
  56   58    0    0    0
SMALL
NO_CHARGES


@<TRIPOS>ATOM
   1 C1             0.6611     1.4623    -0.9023 C.2     
   2 C2             0.6015    -0.0389    -0.7846 C.3     
   3 C3             2.0208    -0.6095    -0.8147 C.3     
   4 O4             1.7291     2.0187    -1.0002 O.2     
   5 O5            -0.4727     2.1809    -0.9040 O.3     
   6 N6             1.9630    -2.0689    -0.7003 N.am    
   7 C7             3.1011    -2.7908    -0.7042 C.2     
   8 C8             3.0427    -4.2636    -0.5887 C.ar    
   9 C9             4.2194    -5.0142    -0.5925 C.ar    
  10 C10            4.1580    -6.3881    -0.4839 C.ar    
  11 C11            2.9333    -7.0221    -0.3720 C.ar    
  12 C12            1.7631    -6.2840    -0.3676 C.ar    
  13 C13            1.8108    -4.9090    -0.4697 C.ar    
  14 O14            4.1755    -2.2310    -0.8027 O.2     
  15 C15            2.8738    -8.5234    -0.2548 C.3     
  16 C16            2.6773    -8.9131     1.2117 C.3     
  17 C17            3.9168    -8.5152     2.0156 C.3     
  18 C18            3.6682    -8.7819     3.5015 C.3     
  19 N19            1.7526    -9.0312    -1.0494 N.pl3   
  20 N20            0.8313   -10.6969    -2.3837 N.ar    
  21 C21            1.8075   -10.3037    -1.5888 C.ar    
  22 N22            2.8441   -11.0824    -1.2850 N.ar    
  23 C23            2.9538   -12.3028    -1.7668 C.ar    
  24 C24            1.9431   -12.7801    -2.6215 C.ar    
  25 C25            1.9843   -14.0675    -3.1764 C.ar    
  26 C26            0.9770   -14.4767    -3.9976 C.ar    
  27 C27           -0.0929   -13.6350    -4.2939 C.ar    
  28 C28           -0.1643   -12.3783    -3.7727 C.ar    
  29 C29            0.8540   -11.9221    -2.9227 C.ar    
  30 C30            5.1168    -9.3386     1.5434 C.3     
  31 H31            0.1204    -0.3109     0.1548 H       
  32 H32            0.0285    -0.4462    -1.6176 H       
  33 H33            2.5020    -0.3375    -1.7542 H       
  34 H34            2.5939    -0.2022     0.0183 H       
  35 H35           -0.3840     3.1406    -0.9816 H       
  36 H36            1.1055    -2.5156    -0.6217 H       
  37 H37            5.1760    -4.5205    -0.6805 H       
  38 H38            5.0677    -6.9700    -0.4867 H       
  39 H39            0.8103    -6.7850    -0.2800 H       
  40 H40            0.8969    -4.3336    -0.4617 H       
  41 H41            3.8048    -8.9538    -0.6235 H       
  42 H42            1.8042    -8.3969     1.6109 H       
  43 H43            2.5274    -9.9903     1.2844 H       
  44 H44            4.1220    -7.4552     1.8660 H       
  45 H45            3.4630    -9.8419     3.6510 H       
  46 H46            4.5512    -8.4985     4.0742 H       
  47 H47            2.8133    -8.1953     3.8378 H       
  48 H48            0.9718    -8.4750    -1.1973 H       
  49 H49            3.8004   -12.9232    -1.5121 H       
  50 H50            2.8084   -14.7294    -2.9547 H       
  51 H51            1.0086   -15.4679    -4.4253 H       
  52 H52           -0.8782   -13.9842    -4.9478 H       
  53 H53           -0.9998   -11.7374    -4.0124 H       
  54 H54            5.3535    -9.0773     0.5120 H       
  55 H55            5.9764    -9.1252     2.1787 H       
  56 H56            4.8754   -10.3998     1.6031 H       
@<TRIPOS>BOND
   1    1    2 1
   2    1    4 2
   3    1    5 1
   4    2    3 1
   5    2   31 1
   6    2   32 1
   7    3    6 1
   8    3   33 1
   9    3   34 1
  10    5   35 1
  11    6    7 am
  12    6   36 1
  13    7    8 1
  14    7   14 2
  15    8    9 ar
  16    8   13 ar
  17    9   10 ar
  18    9   37 1
  19   10   11 ar
  20   10   38 1
  21   11   12 ar
  22   11   15 1
  23   12   13 ar
  24   12   39 1
  25   13   40 1
  26   15   16 1
  27   15   19 1
  28   15   41 1
  29   16   17 1
  30   16   42 1
  31   16   43 1
  32   17   18 1
  33   17   30 1
  34   17   44 1
  35   18   45 1
  36   18   46 1
  37   18   47 1
  38   19   21 1
  39   19   48 1
  40   20   21 ar
  41   20   29 ar
  42   21   22 ar
  43   22   23 ar
  44   23   24 ar
  45   23   49 1
  46   24   25 ar
  47   24   29 ar
  48   25   26 ar
  49   25   50 1
  50   26   27 ar
  51   26   51 1
  52   27   28 ar
  53   27   52 1
  54   28   29 ar
  55   28   53 1
  56   30   54 1
  57   30   55 1
  58   30   56 1

#	End of record

