#	Name: ASD08150525
#	Creating user name:	WinNT
#	Creation time:	15. 06. 2019 21:16

#	Modifying user name:	WinNT
#	Modification time:	15. 06. 2019 21:16

#	Program:	/corina/corina34_cracker 3.40 0067  02.08.2006

@<TRIPOS>MOLECULE
ASD08150525
  32   33    0    0    0
SMALL
NO_CHARGES


@<TRIPOS>ATOM
   1 C1            -0.0183     1.4685     0.0188 C.2     
   2 C2             0.0010    -0.0045    -0.0108 C.ar    
   3 C3             0.0028    -0.7355     1.1880 C.ar    
   4 C4             0.0211    -2.1235     1.1466 C.ar    
   5 C5             0.0379    -2.7798    -0.0677 C.ar    
   6 C6             0.0363    -2.0631    -1.2529 C.ar    
   7 C7             0.0119    -0.6838    -1.2331 C.ar    
   8 O8             1.0270     2.0901     0.0378 O.2     
   9 N9            -1.1941     2.1271     0.0193 N.am    
  10 C10           -1.2149     3.5230     0.1327 C.ar    
  11 C11           -2.3341     4.1646     0.6595 C.ar    
  12 C12           -2.3490     5.5451     0.7692 C.ar    
  13 C13           -1.2551     6.2837     0.3565 C.ar    
  14 C14           -0.1444     5.6480    -0.1662 C.ar    
  15 C15           -0.1193     4.2700    -0.2738 C.ar    
  16 O16           -3.4092     3.4370     1.0645 O.3     
  17 C17           -4.5208     4.1620     1.5944 C.3     
  18 Cl18           0.0027     0.2072    -2.7230 Cl      
  19 N19           -0.0132    -0.0738     2.4091 N.pl3   
  20 H20            0.0226    -2.6904     2.0659 H       
  21 H21            0.0529    -3.8594    -0.0938 H       
  22 H22            0.0495    -2.5867    -2.1974 H       
  23 H23           -2.0260     1.6345    -0.0589 H       
  24 H24           -3.2152     6.0450     1.1768 H       
  25 H25           -1.2686     7.3602     0.4425 H       
  26 H26            0.7075     6.2290    -0.4872 H       
  27 H27            0.7516     3.7756    -0.6781 H       
  28 H28           -4.2021     4.7263     2.4708 H       
  29 H29           -4.9002     4.8491     0.8380 H       
  30 H30           -5.3079     3.4636     1.8784 H       
  31 H31           -0.0257     0.8958     2.4351 H       
  32 H32           -0.0120    -0.5812     3.2358 H       
@<TRIPOS>BOND
   1    1    2 1
   2    1    8 2
   3    1    9 am
   4    2    3 ar
   5    2    7 ar
   6    3    4 ar
   7    3   19 1
   8    4    5 ar
   9    4   20 1
  10    5    6 ar
  11    5   21 1
  12    6    7 ar
  13    6   22 1
  14    7   18 1
  15    9   10 1
  16    9   23 1
  17   10   11 ar
  18   10   15 ar
  19   11   12 ar
  20   11   16 1
  21   12   13 ar
  22   12   24 1
  23   13   14 ar
  24   13   25 1
  25   14   15 ar
  26   14   26 1
  27   15   27 1
  28   16   17 1
  29   17   28 1
  30   17   29 1
  31   17   30 1
  32   19   31 1
  33   19   32 1

#	End of record

