#	Name: ASD01910465
#	Creating user name:	WinNT
#	Creation time:	15. 06. 2019 19:55

#	Modifying user name:	WinNT
#	Modification time:	15. 06. 2019 19:55

#	Program:	/corina/corina34_cracker 3.40 0067  02.08.2006

@<TRIPOS>MOLECULE
ASD01910465
  49   52    0    0    0
SMALL
NO_CHARGES


@<TRIPOS>ATOM
   1 C1             0.0434     1.4721     0.0559 C.ar    
   2 C2             0.0489    -0.0116     0.0359 C.2     
   3 N3            -1.0363    -0.8185     0.0407 N.2     
   4 C4            -0.5659    -2.0407     0.0170 C.2     
   5 O5             0.7675    -1.9490    -0.0014 O.3     
   6 N6             1.1039    -0.7838     0.0044 N.2     
   7 C7            -1.3759    -3.3115     0.0118 C.3     
   8 C8            -1.0611    -4.1127    -1.2535 C.3     
   9 C9            -1.9075    -5.3876    -1.2758 C.3     
  10 C10           -1.5578    -6.2492    -0.0584 C.3     
  11 N11           -1.7192    -5.4389     1.1566 N.am    
  12 C12           -1.0202    -4.1495     1.2438 C.3     
  13 C13           -2.4938    -5.8702     2.1717 C.2     
  14 C14           -3.2622    -7.1194     2.0326 C.ar    
  15 O15           -2.5584    -5.2281     3.2025 O.2     
  16 C16           -2.6130    -8.3096     1.6930 C.ar    
  17 C17           -3.3357    -9.4744     1.5648 C.ar    
  18 C18           -4.7089    -9.4738     1.7713 C.ar    
  19 C19           -5.3648    -8.3038     2.1078 C.ar    
  20 C20           -4.6504    -7.1220     2.2463 C.ar    
  21 F21           -5.4081   -10.6226     1.6423 F       
  22 C22            1.2464     2.1754     0.0480 C.ar    
  23 C23            1.2368     3.5548     0.0662 C.ar    
  24 C24            0.0332     4.2410     0.0929 C.ar    
  25 C25           -1.1652     3.5456     0.1009 C.ar    
  26 C26           -1.1648     2.1662     0.0770 C.ar    
  27 F27            0.0283     5.5918     0.1116 F       
  28 N28           -5.3065    -5.9456     2.5847 N.pl3   
  29 C29           -6.7677    -5.9257     2.6889 C.3     
  30 H30           -2.4378    -3.0662     0.0323 H       
  31 H31           -1.2903    -3.5093    -2.1318 H       
  32 H32           -0.0040    -4.3784    -1.2615 H       
  33 H33           -2.9644    -5.1233    -1.2429 H       
  34 H34           -1.6999    -5.9462    -2.1885 H       
  35 H35           -2.2259    -7.1094    -0.0154 H       
  36 H36           -0.5252    -6.5896    -0.1360 H       
  37 H37            0.0562    -4.3186     1.2723 H       
  38 H38           -1.3337    -3.6243     2.1460 H       
  39 H39           -1.5453    -8.3155     1.5310 H       
  40 H40           -2.8322   -10.3929     1.3019 H       
  41 H41           -6.4330    -8.3105     2.2666 H       
  42 H42            2.1850     1.6414     0.0279 H       
  43 H43            2.1687     4.1007     0.0601 H       
  44 H44           -2.1011     4.0842     0.1221 H       
  45 H45           -2.0994     1.6249     0.0832 H       
  46 H46           -4.7973    -5.1371     2.7521 H       
  47 H47           -7.0872    -6.6345     3.4529 H       
  48 H48           -7.0989    -4.9237     2.9617 H       
  49 H49           -7.2042    -6.2041     1.7297 H       
@<TRIPOS>BOND
   1    1    2 1
   2    1   22 ar
   3    1   26 ar
   4    2    3 1
   5    2    6 2
   6    3    4 2
   7    4    5 1
   8    4    7 1
   9    5    6 1
  10    7    8 1
  11    7   12 1
  12    7   30 1
  13    8    9 1
  14    8   31 1
  15    8   32 1
  16    9   10 1
  17    9   33 1
  18    9   34 1
  19   10   11 1
  20   10   35 1
  21   10   36 1
  22   11   12 1
  23   11   13 am
  24   12   37 1
  25   12   38 1
  26   13   14 1
  27   13   15 2
  28   14   16 ar
  29   14   20 ar
  30   16   17 ar
  31   16   39 1
  32   17   18 ar
  33   17   40 1
  34   18   19 ar
  35   18   21 1
  36   19   20 ar
  37   19   41 1
  38   20   28 1
  39   22   23 ar
  40   22   42 1
  41   23   24 ar
  42   23   43 1
  43   24   25 ar
  44   24   27 1
  45   25   26 ar
  46   25   44 1
  47   26   45 1
  48   28   29 1
  49   28   46 1
  50   29   47 1
  51   29   48 1
  52   29   49 1

#	End of record

