#	Name: ASD01917766
#	Creating user name:	WinNT
#	Creation time:	15. 06. 2019 20:10

#	Modifying user name:	WinNT
#	Modification time:	15. 06. 2019 20:10

#	Program:	/corina/corina34_cracker 3.40 0067  02.08.2006

@<TRIPOS>MOLECULE
ASD01917766
  43   46    0    0    0
SMALL
NO_CHARGES


@<TRIPOS>ATOM
   1 C1            -0.0133     1.3218    -0.0058 C.2     
   2 C2            -0.0104    -0.0290     0.0037 C.2     
   3 C3            -1.2516    -0.8853     0.0237 C.3     
   4 C4            -2.4381    -0.0271     0.4797 C.3     
   5 N5            -2.4043     1.2596    -0.2315 N.am    
   6 C6            -1.2657     2.1637     0.0128 C.3     
   7 C7            -3.3893     1.6037    -1.0846 C.2     
   8 O8            -4.2636     0.8044    -1.3578 O.2     
   9 C9            -3.4065     2.9522    -1.6877 C.ar    
  10 O10            1.2626     1.7311    -0.0279 O.3     
  11 C11            2.0409     0.6298    -0.0284 C.2     
  12 N12            1.2620    -0.4339    -0.0088 N.2     
  13 C13            3.5062     0.6173    -0.0471 C.2     
  14 C14            4.1893     1.7778    -0.0654 C.2     
  15 C15            5.6617     1.7653    -0.0842 C.ar    
  16 C16            6.3743     2.9680    -0.1032 C.ar    
  17 C17            7.7530     2.9481    -0.1208 C.ar    
  18 C18            8.4313     1.7418    -0.1197 C.ar    
  19 C19            7.7329     0.5471    -0.1009 C.ar    
  20 C20            6.3541     0.5508    -0.0774 C.ar    
  21 C21           -2.9666     4.0545    -0.9519 C.ar    
  22 C22           -2.9848     5.3105    -1.5194 C.ar    
  23 C23           -3.4390     5.4805    -2.8184 C.ar    
  24 C24           -3.8774     4.3895    -3.5533 C.ar    
  25 C25           -3.8575     3.1282    -2.9976 C.ar    
  26 F26           -3.4548     6.7137    -3.3699 F       
  27 H27           -1.4442    -1.2727    -0.9768 H       
  28 H28           -1.1123    -1.7142     0.7178 H       
  29 H29           -3.3703    -0.5443     0.2528 H       
  30 H30           -2.3696     0.1483     1.5533 H       
  31 H31           -1.3755     2.6441     0.9850 H       
  32 H32           -1.2167     2.9189    -0.7717 H       
  33 H33            4.0383    -0.3225    -0.0463 H       
  34 H34            3.6572     2.7177    -0.0663 H       
  35 H35            5.8464     3.9101    -0.1045 H       
  36 H36            8.3050     3.8763    -0.1359 H       
  37 H37            9.5112     1.7326    -0.1339 H       
  38 H38            8.2691    -0.3903    -0.1002 H       
  39 H39            5.8104    -0.3823    -0.0624 H       
  40 H40           -2.6130     3.9233     0.0601 H       
  41 H41           -2.6452     6.1638    -0.9511 H       
  42 H42           -4.2304     4.5275    -4.5646 H       
  43 H43           -4.1989     2.2790    -3.5710 H       
@<TRIPOS>BOND
   1    1    2 2
   2    1   10 1
   3    1    6 1
   4    2    3 1
   5    2   12 1
   6    3    4 1
   7    3   27 1
   8    3   28 1
   9    4    5 1
  10    4   29 1
  11    4   30 1
  12    5    6 1
  13    5    7 am
  14    6   31 1
  15    6   32 1
  16    7    8 2
  17    7    9 1
  18    9   21 ar
  19    9   25 ar
  20   10   11 1
  21   11   12 2
  22   11   13 1
  23   13   14 2
  24   13   33 1
  25   14   15 1
  26   14   34 1
  27   15   16 ar
  28   15   20 ar
  29   16   17 ar
  30   16   35 1
  31   17   18 ar
  32   17   36 1
  33   18   19 ar
  34   18   37 1
  35   19   20 ar
  36   19   38 1
  37   20   39 1
  38   21   22 ar
  39   21   40 1
  40   22   23 ar
  41   22   41 1
  42   23   24 ar
  43   23   26 1
  44   24   25 ar
  45   24   42 1
  46   25   43 1

#	End of record

