#	Name: ASD01913063
#	Creating user name:	WinNT
#	Creation time:	15. 06. 2019 20:00

#	Modifying user name:	WinNT
#	Modification time:	15. 06. 2019 20:00

#	Program:	/corina/corina34_cracker 3.40 0067  02.08.2006

@<TRIPOS>MOLECULE
ASD01913063
  36   37    0    0    0
SMALL
NO_CHARGES


@<TRIPOS>ATOM
   1 C1            -0.0169     1.3962     0.0097 C.ar    
   2 C2             0.0021    -0.0041     0.0020 C.ar    
   3 C3            -1.2581    -0.7581     0.0095 C.2     
   4 C4            -2.5747    -0.0251     0.0255 C.3     
   5 O5            -1.2393    -1.9709     0.0028 O.2     
   6 C6            -3.7048    -1.0221     0.0305 C.2     
   7 C7            -5.0997    -0.5532     0.0457 C.ar    
   8 O8            -3.4647    -2.2106     0.0219 O.2     
   9 C9            -6.1511    -1.4754     0.0504 C.ar    
  10 C10            1.2269    -0.6828    -0.0133 C.ar    
  11 C11            2.4037     0.0313    -0.0207 C.ar    
  12 C12            2.3731     1.4217    -0.0129 C.ar    
  13 C13            1.1564     2.0953     0.0023 C.ar    
  14 O14            3.5342     2.1234    -0.0198 O.3     
  15 C15            3.4309     3.5486    -0.0112 C.3     
  16 C16            3.7249    -0.6934    -0.0367 C.3     
  17 C17           -7.4554    -1.0282     0.0652 C.ar    
  18 C18           -7.7253     0.3293     0.0750 C.ar    
  19 C19           -6.6902     1.2481     0.0700 C.ar    
  20 C20           -5.3806     0.8167     0.0615 C.ar    
  21 H21           -0.9595     1.9233     0.0170 H       
  22 H22           -2.6341     0.5958     0.9194 H       
  23 H23           -2.6504     0.6054    -0.8605 H       
  24 H24           -5.9421    -2.5349     0.0420 H       
  25 H25            1.2481    -1.7626    -0.0189 H       
  26 H26            1.1393     3.1751     0.0079 H       
  27 H27            4.4296     3.9853    -0.0179 H       
  28 H28            2.8840     3.8786    -0.8944 H       
  29 H29            2.9003     3.8691     0.8855 H       
  30 H30            4.0338    -0.8630    -1.0681 H       
  31 H31            4.4762    -0.0904     0.4732 H       
  32 H32            3.6202    -1.6510     0.4733 H       
  33 H33           -8.2685    -1.7390     0.0688 H       
  34 H34           -8.7489     0.6733     0.0862 H       
  35 H35           -6.9089     2.3057     0.0770 H       
  36 H36           -4.5740     1.5349     0.0576 H       
@<TRIPOS>BOND
   1    1    2 ar
   2    1   13 ar
   3    1   21 1
   4    2    3 1
   5    2   10 ar
   6    3    4 1
   7    3    5 2
   8    4    6 1
   9    4   22 1
  10    4   23 1
  11    6    7 1
  12    6    8 2
  13    7    9 ar
  14    7   20 ar
  15    9   17 ar
  16    9   24 1
  17   10   11 ar
  18   10   25 1
  19   11   12 ar
  20   11   16 1
  21   12   13 ar
  22   12   14 1
  23   13   26 1
  24   14   15 1
  25   15   27 1
  26   15   28 1
  27   15   29 1
  28   16   30 1
  29   16   31 1
  30   16   32 1
  31   17   18 ar
  32   17   33 1
  33   18   19 ar
  34   18   34 1
  35   19   20 ar
  36   19   35 1
  37   20   36 1

#	End of record

