#	Name: ASD00843242
#	Creating user name:	WinNT
#	Creation time:	15. 06. 2019 18:46

#	Modifying user name:	WinNT
#	Modification time:	15. 06. 2019 18:46

#	Program:	/corina/corina34_cracker 3.40 0067  02.08.2006

@<TRIPOS>MOLECULE
ASD00843242
  96  101    0    0    0
SMALL
NO_CHARGES


@<TRIPOS>ATOM
   1 N1             0.9861     1.0760    -0.3360 N.ar    
   2 C2             1.1491    -0.2119    -0.5884 C.ar    
   3 C3             0.9692    -1.1578     0.4130 C.ar    
   4 C4             0.6160    -0.7353     1.6825 C.ar    
   5 C5             0.4545     0.6252     1.9065 C.ar    
   6 C6             0.6495     1.5091     0.8643 C.ar    
   7 C7             1.1556    -2.6243     0.1206 C.3     
   8 C8             0.7626    -3.4587     1.3211 C.2     
   9 C9             0.3385    -3.0329    -1.1068 C.3     
  10 C10           -1.1025    -2.6414    -0.9039 C.2     
  11 N11           -2.0338    -3.0076    -1.8068 N.am    
  12 O12           -1.4243    -1.9968     0.0717 O.2     
  13 C13           -3.4246    -2.5443    -1.6871 C.3     
  14 C14           -3.8539    -1.9412    -3.0288 C.3     
  15 N15           -3.6145    -2.9176    -4.0999 N.3     
  16 C16           -2.1841    -3.2256    -4.2302 C.3     
  17 C17           -1.6850    -3.8763    -2.9412 C.3     
  18 C18           -4.1699    -2.4463    -5.3756 C.3     
  19 C19           -3.7945    -3.4266    -6.4904 C.3     
  20 C20           -4.4266    -2.9631    -7.8048 C.3     
  21 N21           -5.8859    -2.9022    -7.6529 N.3     
  22 C22           -6.2723    -1.9322    -6.6204 C.3     
  23 C23           -5.6953    -2.3649    -5.2706 C.3     
  24 C24           -6.5361    -2.5947    -8.9338 C.3     
  25 O25           -0.3349    -3.5094     1.8349 O.2     
  26 N26            1.8581    -4.1321     1.7107 N.am    
  27 C27            2.6191    -2.9415    -0.0845 C.ar    
  28 C28            2.9645    -3.8514     0.9073 C.ar    
  29 C29            3.5499    -2.5112    -1.0029 C.ar    
  30 C30            4.8493    -2.9863    -0.9446 C.ar    
  31 C31            5.2066    -3.8941     0.0397 C.ar    
  32 C32            4.2727    -4.3264     0.9619 C.ar    
  33 Cl33           6.0266    -2.4471    -2.1009 Cl      
  34 F34            6.4739    -4.3586     0.0979 F       
  35 C35            1.4846    -6.7752     2.3807 C.ar    
  36 C36            0.2229    -7.0173     1.8576 C.ar    
  37 C37            2.4236    -7.7882     2.4134 C.ar    
  38 C38            2.1067    -9.0420     1.9248 C.ar    
  39 C39            0.8496    -9.2859     1.4028 C.ar    
  40 C40           -0.0928    -8.2767     1.3683 C.ar    
  41 H41            0.6045   -10.2662     1.0217 H       
  42 O42           -0.7026    -6.0227     1.8248 O.3     
  43 C43           -1.9807    -6.3438     1.2722 C.3     
  44 C44           -2.8821    -5.1084     1.3201 C.3     
  45 C45           -8.0551    -2.6625    -8.7639 C.3     
  46 C46           -6.1355    -1.1885    -9.3845 C.3     
  47 O47            1.4951    -0.6133    -1.8374 O.3     
  48 C48            1.6228     0.4034    -2.8334 C.3     
  49 C49            2.1112    -0.2224    -4.1414 C.3     
  50 F50            3.3102    -0.9059    -3.9121 F       
  51 F51            1.1479    -1.1178    -4.6182 F       
  52 S52            1.8917    -5.1753     2.9964 S.o2    
  53 O53            3.2454    -5.2422     3.4235 O.2     
  54 O54            0.8247    -4.7913     3.8527 O.2     
  55 H55            0.4689    -1.4478     2.4807 H       
  56 H56            0.1788     0.9882     2.8857 H       
  57 H57            0.5255     2.5686     1.0334 H       
  58 H58            0.7314    -2.5280    -1.9893 H       
  59 H59            0.4058    -4.1119    -1.2453 H       
  60 H60           -4.0712    -3.3864    -1.4405 H       
  61 H61           -3.4921    -1.7864    -0.9066 H       
  62 H62           -4.9147    -1.6930    -2.9932 H       
  63 H63           -3.2751    -1.0383    -3.2236 H       
  64 H64           -2.0338    -3.9089    -5.0660 H       
  65 H65           -1.6285    -2.3048    -4.4083 H       
  66 H66           -0.6033    -4.0017    -2.9893 H       
  67 H67           -2.1635    -4.8471    -2.8120 H       
  68 H68           -3.7666    -1.4604    -5.6064 H       
  69 H69           -2.7103    -3.4566    -6.5986 H       
  70 H70           -4.1635    -4.4212    -6.2399 H       
  71 H71           -4.0466    -1.9743    -8.0617 H       
  72 H72           -4.1729    -3.6667    -8.5977 H       
  73 H73           -5.8837    -0.9482    -6.8828 H       
  74 H74           -7.3593    -1.8871    -6.5530 H       
  75 H75           -6.0942    -3.3428    -5.0010 H       
  76 H76           -5.9692    -1.6365    -4.5074 H       
  77 H77           -6.2217    -3.3201    -9.6842 H       
  78 H78            3.2669    -1.8039    -1.7685 H       
  79 H79            4.5578    -5.0337     1.7266 H       
  80 H80            3.4061    -7.6002     2.8205 H       
  81 H81            2.8424    -9.8323     1.9505 H       
  82 H82           -1.0747    -8.4678     0.9612 H       
  83 H83           -1.8590    -6.6648     0.2377 H       
  84 H84           -2.4353    -7.1478     1.8510 H       
  85 H85           -3.8570    -5.3533     0.8986 H       
  86 H86           -3.0038    -4.7873     2.3546 H       
  87 H87           -2.4275    -4.3043     0.7413 H       
  88 H88           -8.3695    -1.9371    -8.0135 H       
  89 H89           -8.5376    -2.4343    -9.7143 H       
  90 H90           -8.3405    -3.6643    -8.4429 H       
  91 H91           -5.0534    -1.1402    -9.5055 H       
  92 H92           -6.6180    -0.9604   -10.3349 H       
  93 H93           -6.4499    -0.4632    -8.6341 H       
  94 H94            0.6543     0.8762    -2.9963 H       
  95 H95            2.3408     1.1520    -2.4985 H       
  96 H96            2.2757     0.5618    -4.8803 H       
@<TRIPOS>BOND
   1    1    2 ar
   2    1    6 ar
   3    2    3 ar
   4    2   47 1
   5    3    4 ar
   6    3    7 1
   7    4    5 ar
   8    4   55 1
   9    5    6 ar
  10    5   56 1
  11    6   57 1
  12    7    8 1
  13    7    9 1
  14    7   27 1
  15    8   25 2
  16    8   26 am
  17    9   10 1
  18    9   58 1
  19    9   59 1
  20   10   11 am
  21   10   12 2
  22   11   13 1
  23   11   17 1
  24   13   14 1
  25   13   60 1
  26   13   61 1
  27   14   15 1
  28   14   62 1
  29   14   63 1
  30   15   16 1
  31   15   18 1
  32   16   17 1
  33   16   64 1
  34   16   65 1
  35   17   66 1
  36   17   67 1
  37   18   19 1
  38   18   23 1
  39   18   68 1
  40   19   20 1
  41   19   69 1
  42   19   70 1
  43   20   21 1
  44   20   71 1
  45   20   72 1
  46   21   22 1
  47   21   24 1
  48   22   23 1
  49   22   73 1
  50   22   74 1
  51   23   75 1
  52   23   76 1
  53   24   45 1
  54   24   46 1
  55   24   77 1
  56   26   52 am
  57   26   28 1
  58   27   28 ar
  59   27   29 ar
  60   28   32 ar
  61   29   30 ar
  62   29   78 1
  63   30   31 ar
  64   30   33 1
  65   31   32 ar
  66   31   34 1
  67   32   79 1
  68   35   36 ar
  69   35   37 ar
  70   35   52 1
  71   36   42 1
  72   36   40 ar
  73   37   38 ar
  74   37   80 1
  75   38   39 ar
  76   38   81 1
  77   39   40 ar
  78   39   41 1
  79   40   82 1
  80   42   43 1
  81   43   44 1
  82   43   83 1
  83   43   84 1
  84   44   85 1
  85   44   86 1
  86   44   87 1
  87   45   88 1
  88   45   89 1
  89   45   90 1
  90   46   91 1
  91   46   92 1
  92   46   93 1
  93   47   48 1
  94   48   49 1
  95   48   94 1
  96   48   95 1
  97   49   50 1
  98   49   51 1
  99   49   96 1
 100   52   53 2
 101   52   54 2

#	End of record

