#	Name: ASD09116193
#	Creating user name:	WinNT
#	Creation time:	15. 06. 2019 21:21

#	Modifying user name:	WinNT
#	Modification time:	15. 06. 2019 21:21

#	Program:	/corina/corina34_cracker 3.40 0067  02.08.2006

@<TRIPOS>MOLECULE
ASD09116193
  66   72    0    0    0
SMALL
NO_CHARGES


@<TRIPOS>ATOM
   1 N1            -0.0613     1.6026    -0.5383 N.2     
   2 C2            -0.0898     0.2763    -1.1799 C.3     
   3 C3             1.1886     1.9781    -0.5233 C.2     
   4 N4             2.0150     1.0677    -1.0772 N.2     
   5 C5             1.3683     0.0141    -1.5032 C.2     
   6 N6             1.6189     3.1796     0.0037 N.pl3   
   7 C7             2.9869     3.4576     0.0847 C.ar    
   8 C8             3.4384     4.7668    -0.0217 C.ar    
   9 C9             3.8965     2.4255     0.2774 C.ar    
  10 C10            5.2470     2.7030     0.3576 C.ar    
  11 C11            5.6965     4.0034     0.2472 C.ar    
  12 C12            4.7870     5.0406     0.0583 C.ar    
  13 N13            1.8928    -1.0852    -2.1085 N.pl3   
  14 C14           -0.6184    -0.7642    -0.2265 C.ar    
  15 C15           -1.5389    -1.7176    -0.6596 C.ar    
  16 N16           -0.2120    -0.7896     1.0304 N.ar    
  17 C17           -0.6698    -1.6990     1.8740 C.ar    
  18 N18           -1.5393    -2.6135     1.5188 N.ar    
  19 C19           -2.0086    -2.6706     0.2548 C.ar    
  20 C20            7.1630     4.3230     0.3347 C.3     
  21 C21            7.4465     5.1098     1.6149 C.3     
  22 C22            7.3825     6.6171     1.3006 C.3     
  23 C23            5.8696     6.9097     1.2749 C.3     
  24 C24            5.2968     6.4499    -0.0612 C.3     
  25 C25            6.2857     4.8696     2.6033 C.3     
  26 C26            5.2825     6.0158     2.3879 C.3     
  27 N27            8.0429     7.3953     2.3571 N.3     
  28 C28            9.4698     7.0390     2.4622 C.3     
  29 C29           10.2805     8.3388     2.2752 C.3     
  30 C30            9.2564     9.4451     2.6412 C.3     
  31 C31            7.9382     8.8458     2.0910 C.3     
  32 C32           -2.9297    -3.5585    -0.3228 C.2     
  33 C33           -3.1947    -3.3606    -1.6042 C.2     
  34 S34           -2.2862    -1.9932    -2.2263 S.3     
  35 C35           -3.5757    -4.6678     0.4665 C.3     
  36 Cl36          -0.0977    -1.6815     3.5130 Cl      
  37 H37           -0.6893     0.3021    -2.0899 H       
  38 H38            0.9723     3.8309     0.3177 H       
  39 H39            2.7324     5.5709    -0.1676 H       
  40 H40            3.5479     1.4071     0.3647 H       
  41 H41            5.9536     1.9001     0.5074 H       
  42 H42            2.8483    -1.1430    -2.2652 H       
  43 H43            1.3114    -1.8113    -2.3834 H       
  44 H44            7.7359     3.3957     0.3450 H       
  45 H45            7.4562     4.9192    -0.5294 H       
  46 H46            8.4107     4.8347     2.0423 H       
  47 H47            7.8312     6.8268     0.3296 H       
  48 H48            5.6670     7.9664     1.4494 H       
  49 H49            6.0763     6.4886    -0.8220 H       
  50 H50            4.4775     7.1083    -0.3498 H       
  51 H51            5.8092     3.9118     2.3942 H       
  52 H52            6.6578     4.8865     3.6277 H       
  53 H53            5.1684     6.5902     3.3072 H       
  54 H54            4.3184     5.6146     2.0753 H       
  55 H55            9.6742     6.6126     3.4443 H       
  56 H56            9.7317     6.3233     1.6830 H       
  57 H57           11.1327     8.3625     2.9544 H       
  58 H58           10.6077     8.4434     1.2408 H       
  59 H59            9.2012     9.5844     3.7209 H       
  60 H60            9.4983    10.3824     2.1401 H       
  61 H61            7.8556     9.0300     1.0198 H       
  62 H62            7.0813     9.2671     2.6165 H       
  63 H63           -3.8791    -3.9583    -2.1878 H       
  64 H64           -4.5009    -4.3044     0.9137 H       
  65 H65           -3.7968    -5.5044    -0.1964 H       
  66 H66           -2.8968    -4.9971     1.2531 H       
@<TRIPOS>BOND
   1    1    2 1
   2    1    3 2
   3    2   14 1
   4    2    5 1
   5    2   37 1
   6    3    4 1
   7    3    6 1
   8    4    5 2
   9    5   13 1
  10    6    7 1
  11    6   38 1
  12    7    8 ar
  13    7    9 ar
  14    8   12 ar
  15    8   39 1
  16    9   10 ar
  17    9   40 1
  18   10   11 ar
  19   10   41 1
  20   11   12 ar
  21   11   20 1
  22   12   24 1
  23   13   42 1
  24   13   43 1
  25   14   15 ar
  26   14   16 ar
  27   15   19 ar
  28   15   34 1
  29   16   17 ar
  30   17   18 ar
  31   17   36 1
  32   18   19 ar
  33   19   32 1
  34   20   21 1
  35   20   44 1
  36   20   45 1
  37   21   22 1
  38   21   25 1
  39   21   46 1
  40   22   23 1
  41   22   27 1
  42   22   47 1
  43   23   24 1
  44   23   26 1
  45   23   48 1
  46   24   49 1
  47   24   50 1
  48   25   26 1
  49   25   51 1
  50   25   52 1
  51   26   53 1
  52   26   54 1
  53   27   28 1
  54   27   31 1
  55   28   29 1
  56   28   55 1
  57   28   56 1
  58   29   30 1
  59   29   57 1
  60   29   58 1
  61   30   31 1
  62   30   59 1
  63   30   60 1
  64   31   61 1
  65   31   62 1
  66   32   33 2
  67   32   35 1
  68   33   34 1
  69   33   63 1
  70   35   64 1
  71   35   65 1
  72   35   66 1

#	End of record

