#	Name: ASD01883196
#	Creating user name:	WinNT
#	Creation time:	15. 06. 2019 19:45

#	Modifying user name:	WinNT
#	Modification time:	15. 06. 2019 19:45

#	Program:	/corina/corina34_cracker 3.40 0067  02.08.2006

@<TRIPOS>MOLECULE
ASD01883196
  52   54    0    0    0
SMALL
NO_CHARGES


@<TRIPOS>ATOM
   1 N1            -0.0162     1.3417     0.0094 N.am    
   2 C2             0.0021    -0.0041     0.0020 C.2     
   3 C3            -1.2161    -0.7274     0.0102 C.2     
   4 C4            -2.4261    -0.0112     0.0261 C.2     
   5 C5            -2.3786     1.3969     0.0332 C.2     
   6 C6            -1.1851     2.0325     0.0299 C.2     
   7 O7             1.0657    -0.6000    -0.0122 O.2     
   8 C8            -1.2151    -2.1594     0.0021 C.1     
   9 N9            -1.2144    -3.2953    -0.0044 N.1     
  10 C10            1.2513     2.0764     0.0013 C.3     
  11 C11            1.6787     2.3399    -1.4440 C.3     
  12 C12            3.0024     3.1072    -1.4525 C.3     
  13 C13            4.1050     2.2286    -0.8581 C.3     
  14 C14            3.3668     3.4794    -2.8911 C.3     
  15 C15           -3.7218    -0.7213     0.0347 C.ar    
  16 C16           -4.5706    -0.6161     1.1389 C.ar    
  17 C17           -5.7781    -1.2797     1.1437 C.ar    
  18 C18           -6.1525    -2.0529     0.0521 C.ar    
  19 C19           -5.3105    -2.1606    -1.0498 C.ar    
  20 C20           -4.1037    -1.4952    -1.0643 C.ar    
  21 O21           -7.3431    -2.7056     0.0609 O.3     
  22 C22           -8.1586    -2.5519     1.2243 C.3     
  23 C23           -9.4304    -3.3422     1.0543 C.ar    
  24 C24           -9.4870    -4.6589     1.4715 C.ar    
  25 C25          -10.6536    -5.3838     1.3155 C.ar    
  26 C26          -11.7638    -4.7920     0.7427 C.ar    
  27 C27          -11.7075    -3.4750     0.3263 C.ar    
  28 C28          -10.5422    -2.7488     0.4862 C.ar    
  29 Cl29          -5.7835    -3.1282    -2.4112 Cl      
  30 H30           -3.2949     1.9683     0.0450 H       
  31 H31           -1.1610     3.1122     0.0358 H       
  32 H32            1.1242     3.0258     0.5214 H       
  33 H33            2.0168     1.4859     0.5046 H       
  34 H34            1.8057     1.3905    -1.9642 H       
  35 H35            0.9132     2.9304    -1.9474 H       
  36 H36            2.9002     4.0145    -0.8572 H       
  37 H37            4.2071     1.3213    -1.4534 H       
  38 H38            5.0480     2.7753    -0.8642 H       
  39 H39            3.8453     1.9634     0.1668 H       
  40 H40            2.5813     4.1053    -3.3146 H       
  41 H41            4.3098     4.0261    -2.8971 H       
  42 H42            3.4690     2.5721    -3.4864 H       
  43 H43           -4.2804    -0.0156     1.9884 H       
  44 H44           -6.4344    -1.1989     1.9976 H       
  45 H45           -3.4503    -1.5787    -1.9201 H       
  46 H46           -7.6180    -2.9168     2.0977 H       
  47 H47           -8.4012    -1.4981     1.3614 H       
  48 H48           -8.6196    -5.1213     1.9191 H       
  49 H49          -10.6976    -6.4127     1.6408 H       
  50 H50          -12.6750    -5.3586     0.6201 H       
  51 H51          -12.5747    -3.0128    -0.1216 H       
  52 H52          -10.4982    -1.7199     0.1609 H       
@<TRIPOS>BOND
   1    1    2 am
   2    1   10 1
   3    1    6 1
   4    2    3 1
   5    2    7 2
   6    3    4 2
   7    3    8 1
   8    4    5 1
   9    4   15 1
  10    5    6 2
  11    5   30 1
  12    6   31 1
  13    8    9 3
  14   10   11 1
  15   10   32 1
  16   10   33 1
  17   11   12 1
  18   11   34 1
  19   11   35 1
  20   12   13 1
  21   12   14 1
  22   12   36 1
  23   13   37 1
  24   13   38 1
  25   13   39 1
  26   14   40 1
  27   14   41 1
  28   14   42 1
  29   15   16 ar
  30   15   20 ar
  31   16   17 ar
  32   16   43 1
  33   17   18 ar
  34   17   44 1
  35   18   19 ar
  36   18   21 1
  37   19   20 ar
  38   19   29 1
  39   20   45 1
  40   21   22 1
  41   22   23 1
  42   22   46 1
  43   22   47 1
  44   23   24 ar
  45   23   28 ar
  46   24   25 ar
  47   24   48 1
  48   25   26 ar
  49   25   49 1
  50   26   27 ar
  51   26   50 1
  52   27   28 ar
  53   27   51 1
  54   28   52 1

#	End of record

