#	Name: ASD01440005
#	Creating user name:	WinNT
#	Creation time:	15. 06. 2019 19:20

#	Modifying user name:	WinNT
#	Modification time:	15. 06. 2019 19:20

#	Program:	/corina/corina34_cracker 3.40 0067  02.08.2006

@<TRIPOS>MOLECULE
ASD01440005
  43   43    0    0    0
SMALL
NO_CHARGES


@<TRIPOS>ATOM
   1 N1             0.1444     1.8667     0.1363 N.3     
   2 C2             0.1675     0.4038     0.0040 C.3     
   3 C3             0.9505    -0.2015     1.1708 C.3     
   4 O4             0.2580     0.0566     2.3939 O.3     
   5 N5             0.9027    -0.4649     3.5418 N.2     
   6 C6             0.3760    -0.2979     4.7111 C.2     
   7 C7             0.9830    -0.9418     5.8929 C.ar    
   8 C8             2.1257    -1.7315     5.7518 C.ar    
   9 C9             2.6881    -2.3298     6.8603 C.ar    
  10 C10            2.1223    -2.1487     8.1098 C.ar    
  11 C11            0.9897    -1.3678     8.2568 C.ar    
  12 C12            0.4204    -0.7590     7.1575 C.ar    
  13 C13            2.7422    -2.8055     9.3162 C.3     
  14 F14            3.6920    -1.9459     9.8787 F       
  15 F15            1.7469    -3.0822    10.2596 F       
  16 F16            3.3634    -3.9982     8.9303 F       
  17 C17           -0.8574     0.5537     4.8673 C.3     
  18 C18           -2.1037    -0.3199     4.7106 C.3     
  19 C19           -3.3540     0.5255     4.9617 C.3     
  20 C20           -4.6002    -0.3482     4.8050 C.3     
  21 O21           -5.7680     0.4414     5.0394 O.3     
  22 C22           -6.9936    -0.2831     4.9172 C.3     
  23 H23            1.0803     2.2394     0.1940 H       
  24 H24           -0.3673     2.2904    -0.6231 H       
  25 H25           -0.8533     0.0219     0.0144 H       
  26 H26            0.6477     0.1316    -0.9359 H       
  27 H27            1.0438    -1.2778     1.0262 H       
  28 H28            1.9431     0.2468     1.2137 H       
  29 H29            2.5681    -1.8739     4.7769 H       
  30 H30            3.5718    -2.9412     6.7525 H       
  31 H31            0.5529    -1.2309     9.2350 H       
  32 H32           -0.4637    -0.1497     7.2736 H       
  33 H33           -0.8583     1.0141     5.8554 H       
  34 H34           -0.8608     1.3318     4.1040 H       
  35 H35           -2.1373    -0.7270     3.7001 H       
  36 H36           -2.0672    -1.1374     5.4307 H       
  37 H37           -3.3204     0.9326     5.9722 H       
  38 H38           -3.3904     1.3430     4.2416 H       
  39 H39           -4.6338    -0.7553     3.7944 H       
  40 H40           -4.5638    -1.1656     5.5250 H       
  41 H41           -7.0769    -0.6889     3.9090 H       
  42 H42           -7.0068    -1.0992     5.6396 H       
  43 H43           -7.8321     0.3862     5.1099 H       
@<TRIPOS>BOND
   1    1    2 1
   2    1   23 1
   3    1   24 1
   4    2    3 1
   5    2   25 1
   6    2   26 1
   7    3    4 1
   8    3   27 1
   9    3   28 1
  10    4    5 1
  11    5    6 2
  12    6    7 1
  13    6   17 1
  14    7    8 ar
  15    7   12 ar
  16    8    9 ar
  17    8   29 1
  18    9   10 ar
  19    9   30 1
  20   10   11 ar
  21   10   13 1
  22   11   12 ar
  23   11   31 1
  24   12   32 1
  25   13   14 1
  26   13   15 1
  27   13   16 1
  28   17   18 1
  29   17   33 1
  30   17   34 1
  31   18   19 1
  32   18   35 1
  33   18   36 1
  34   19   20 1
  35   19   37 1
  36   19   38 1
  37   20   21 1
  38   20   39 1
  39   20   40 1
  40   21   22 1
  41   22   41 1
  42   22   42 1
  43   22   43 1

#	End of record

