#	Name: ASD03900035
#	Creating user name:	WinNT
#	Creation time:	15. 06. 2019 20:47

#	Modifying user name:	WinNT
#	Modification time:	15. 06. 2019 20:47

#	Program:	/corina/corina34_cracker 3.40 0067  02.08.2006

@<TRIPOS>MOLECULE
ASD03900035
  39   41    0    0    0
SMALL
NO_CHARGES


@<TRIPOS>ATOM
   1 C1             0.0297     1.1155    -0.1146 C.ar    
   2 C2             0.1497    -0.2671    -0.1017 C.ar    
   3 C3             1.4055    -0.8504    -0.0619 C.ar    
   4 C4             2.5430    -0.0530    -0.0347 C.ar    
   5 C5             2.4176     1.3270    -0.0518 C.ar    
   6 C6             1.1612     1.9065    -0.0900 C.ar    
   7 O7             3.7620    -0.6420     0.0110 O.3     
   8 C8             4.8370     0.0557     0.4498 C.ar    
   9 C9             4.8364     1.4415     0.4503 C.ar    
  10 C10            3.6360     2.2099    -0.0321 C.3     
  11 C11            5.9528    -0.6346     0.9070 C.ar    
  12 C12            7.0628     0.0608     1.3574 C.ar    
  13 C13            7.0588     1.4486     1.3509 C.ar    
  14 C14            5.9484     2.1332     0.8985 C.ar    
  15 O15           -0.9628    -1.0472    -0.1277 O.3     
  16 O16            8.1536    -0.6146     1.8054 O.3     
  17 C17            3.9005     2.7232    -1.4240 C.ar    
  18 C18            3.8774     4.0967    -1.6802 C.ar    
  19 C19            4.1237     4.5634    -2.9737 C.ar    
  20 C20            4.3879     3.6669    -3.9882 C.ar    
  21 C21            4.4088     2.3082    -3.7272 C.ar    
  22 C22            4.1717     1.8389    -2.4469 C.ar    
  23 C23            3.5935     5.0494    -0.5900 C.2     
  24 O24            2.4518     5.4481    -0.4081 O.co2   
  25 O25            4.5000     5.4403     0.1318 O.co2   
  26 H26           -0.9483     1.5725    -0.1484 H       
  27 H27            1.5004    -1.9261    -0.0516 H       
  28 H28            1.0654     2.9822    -0.1010 H       
  29 H29            3.4578     3.0540     0.6341 H       
  30 H30            5.9545    -1.7146     0.9115 H       
  31 H31            7.9239     1.9929     1.6998 H       
  32 H32            5.9474     3.2132     0.8944 H       
  33 H33           -1.2599    -1.2791    -1.0183 H       
  34 H34            8.8032    -0.8133     1.1172 H       
  35 H35            4.1071     5.6236    -3.1790 H       
  36 H36            4.5786     4.0262    -4.9886 H       
  37 H37            4.6158     1.6108    -4.5254 H       
  38 H38            4.1895     0.7771    -2.2504 H       
  39 K39           13.8032    10.6236     6.8054 Du      
@<TRIPOS>BOND
   1    1    2 ar
   2    1    6 ar
   3    1   26 1
   4    2    3 ar
   5    2   15 1
   6    3    4 ar
   7    3   27 1
   8    4    5 ar
   9    4    7 1
  10    5    6 ar
  11    5   10 1
  12    6   28 1
  13    7    8 1
  14    8    9 ar
  15    8   11 ar
  16    9   10 1
  17    9   14 ar
  18   10   17 1
  19   10   29 1
  20   11   12 ar
  21   11   30 1
  22   12   13 ar
  23   12   16 1
  24   13   14 ar
  25   13   31 1
  26   14   32 1
  27   15   33 1
  28   16   34 1
  29   17   18 ar
  30   17   22 ar
  31   18   19 ar
  32   18   23 1
  33   19   20 ar
  34   19   35 1
  35   20   21 ar
  36   20   36 1
  37   21   22 ar
  38   21   37 1
  39   22   38 1
  40   23   24 ar
  41   23   25 ar

#	End of record

