#	Name: ASD02198849
#	Creating user name:	WinNT
#	Creation time:	15. 06. 2019 20:20

#	Modifying user name:	WinNT
#	Modification time:	15. 06. 2019 20:20

#	Program:	/corina/corina34_cracker 3.40 0067  02.08.2006

@<TRIPOS>MOLECULE
ASD02198849
  58   62    0    0    0
SMALL
NO_CHARGES


@<TRIPOS>ATOM
   1 C1            -0.0435     1.5032    -0.1144 C.2     
   2 C2            -0.0736     0.1634     0.0983 C.2     
   3 N3             1.0705    -0.5384     0.2610 N.pl3   
   4 N4             2.2352    -0.0040     0.2268 N.2     
   5 C5             2.4070     1.2855     0.0280 C.2     
   6 C6             1.2214     2.1368    -0.1600 C.2     
   7 C7             0.9787    -1.9167     0.4780 C.ar    
   8 C8             1.5809    -2.4875     1.5991 C.ar    
   9 C9             1.4894    -3.8515     1.8129 C.ar    
  10 C10            0.7960    -4.6512     0.9076 C.ar    
  11 C11            0.1956    -4.0764    -0.2116 C.ar    
  12 C12            0.2829    -2.7162    -0.4202 C.ar    
  13 C13            3.7640     1.8675    -0.0048 C.2     
  14 N14            4.3061     2.6070    -1.0182 N.pl3   
  15 N15            5.6080     2.9585    -0.6405 N.2     
  16 C16            5.8518     2.4594     0.5450 C.2     
  17 C17            4.7197     1.7721     0.9829 C.2     
  18 C18            3.6731     2.9516    -2.2192 C.ar    
  19 C19            2.9103     2.0109    -2.8984 C.ar    
  20 C20            2.2869     2.3540    -4.0823 C.ar    
  21 C21            2.4221     3.6324    -4.5914 C.ar    
  22 C22            3.1812     4.5716    -3.9172 C.ar    
  23 C23            3.8023     4.2365    -2.7302 C.ar    
  24 O24            1.3247     3.3399    -0.3484 O.2     
  25 C25            0.6966    -6.1149     1.1342 C.2     
  26 C26            1.2499    -6.8295     2.2147 C.2     
  27 N27            0.9489    -8.0919     2.0631 N.2     
  28 N28            0.1979    -8.2326     0.8899 N.pl3   
  29 C29            0.0477    -7.0121     0.3367 C.2     
  30 C30           -0.3378    -9.4883     0.3583 C.3     
  31 F31           -0.6097   -10.3637     1.4152 F       
  32 F32           -1.5171    -9.2301    -0.3485 F       
  33 C33            7.1404     2.6076     1.3121 C.3     
  34 C34            3.3259     5.9638    -4.4756 C.3     
  35 F35            2.6082     6.0633    -5.6723 F       
  36 F36            2.8265     6.8902    -3.5539 F       
  37 F37            4.6776     6.2305    -4.7190 F       
  38 O38            2.2573    -1.7047     2.4806 O.3     
  39 C39            2.8488    -2.3568     3.6061 C.3     
  40 H40           -0.9548     2.0670    -0.2489 H       
  41 H41           -1.0236    -0.3488     0.1384 H       
  42 H42            1.9553    -4.2955     2.6802 H       
  43 H43           -0.3421    -4.6965    -0.9136 H       
  44 H44           -0.1832    -2.2728    -1.2877 H       
  45 H45            4.6138     1.2531     1.9241 H       
  46 H46            2.8049     1.0120    -2.5016 H       
  47 H47            1.6935     1.6228    -4.6111 H       
  48 H48            1.9343     3.8980    -5.5176 H       
  49 H49            4.3945     4.9705    -2.2040 H       
  50 H50            1.8234    -6.4074     3.0267 H       
  51 H51           -0.4841    -6.7865    -0.5758 H       
  52 H52            0.3944    -9.9418    -0.3098 H       
  53 H53            7.0930     3.5024     1.9328 H       
  54 H54            7.2886     1.7332     1.9459 H       
  55 H55            7.9718     2.6943     0.6125 H       
  56 H56            3.3564    -1.6194     4.2279 H       
  57 H57            2.0718    -2.8508     4.1895 H       
  58 H58            3.5693    -3.0976     3.2595 H       
@<TRIPOS>BOND
   1    1    2 2
   2    1    6 1
   3    1   40 1
   4    2    3 1
   5    2   41 1
   6    3    4 1
   7    3    7 1
   8    4    5 2
   9    5    6 1
  10    5   13 1
  11    6   24 2
  12    7    8 ar
  13    7   12 ar
  14    8    9 ar
  15    8   38 1
  16    9   10 ar
  17    9   42 1
  18   10   11 ar
  19   10   25 1
  20   11   12 ar
  21   11   43 1
  22   12   44 1
  23   13   14 1
  24   13   17 2
  25   14   15 1
  26   14   18 1
  27   15   16 2
  28   16   17 1
  29   16   33 1
  30   17   45 1
  31   18   19 ar
  32   18   23 ar
  33   19   20 ar
  34   19   46 1
  35   20   21 ar
  36   20   47 1
  37   21   22 ar
  38   21   48 1
  39   22   23 ar
  40   22   34 1
  41   23   49 1
  42   25   26 1
  43   25   29 2
  44   26   27 2
  45   26   50 1
  46   27   28 1
  47   28   29 1
  48   28   30 1
  49   29   51 1
  50   30   31 1
  51   30   32 1
  52   30   52 1
  53   33   53 1
  54   33   54 1
  55   33   55 1
  56   34   35 1
  57   34   36 1
  58   34   37 1
  59   38   39 1
  60   39   56 1
  61   39   57 1
  62   39   58 1

#	End of record

