#	Name: ASD07930583
#	Creating user name:	WinNT
#	Creation time:	15. 06. 2019 21:12

#	Modifying user name:	WinNT
#	Modification time:	15. 06. 2019 21:12

#	Program:	/corina/corina34_cracker 3.40 0067  02.08.2006

@<TRIPOS>MOLECULE
ASD07930583
  46   48    0    0    0
SMALL
NO_CHARGES


@<TRIPOS>ATOM
   1 C1            -0.0502     1.4821    -0.0094 C.3     
   2 N2             0.7773    -0.3946    -2.1782 N.2     
   3 N3            -0.8979    -1.7688    -1.3026 N.pl3   
   4 C4            -0.9127    -2.8082    -0.2679 C.3     
   5 C5            -1.2240    -2.1653     1.0907 C.3     
   6 S6             0.0077    -0.8612     1.4012 S.o2    
   7 N7            -0.0234     0.0174    -0.0143 N.am    
   8 C8            -0.0231    -0.7068    -1.1980 C.2     
   9 C9             0.4557    -3.4900    -0.2090 C.3     
  10 C10           -1.9712    -3.8296    -0.5958 C.ar    
  11 N11           -2.9585    -4.0401     0.2534 N.ar    
  12 C12           -3.9096    -4.9270     0.0068 C.ar    
  13 C13           -3.8973    -5.6718    -1.1667 C.ar    
  14 C14           -2.8752    -5.4751    -2.0787 C.ar    
  15 C15           -1.8985    -4.5308    -1.7859 C.ar    
  16 O16           -0.4553     0.0438     2.3940 O.2     
  17 O17            1.3184    -1.4077     1.4540 O.2     
  18 F18           -0.8837    -4.3075    -2.6493 F       
  19 N19           -4.9337    -5.1163     0.9337 N.am    
  20 C20           -4.8970    -4.4754     2.1188 C.2     
  21 O21           -3.9273    -3.8072     2.4184 O.2     
  22 C22           -6.0387    -4.5855     3.0558 C.ar    
  23 N23           -7.1012    -5.3164     2.7298 N.ar    
  24 N24           -7.0208    -4.0296     5.1175 N.ar    
  25 C25           -6.0005    -3.9279     4.2851 C.ar    
  26 C26           -8.1150    -5.4124     3.5665 C.ar    
  27 C27           -8.0761    -4.7527     4.7863 C.ar    
  28 C28           -9.2380    -4.8664     5.7392 C.3     
  29 F29           -9.0390    -5.9600     6.5887 F       
  30 F30           -9.3333    -3.6962     6.5000 F       
  31 F31          -10.4201    -5.0485     5.0136 F       
  32 H32            0.9705     1.8643    -0.0191 H       
  33 H33           -0.5801     1.8388    -0.8927 H       
  34 H34           -0.5611     1.8332     0.8872 H       
  35 H35            0.7641    -0.9119    -2.9987 H       
  36 H36           -1.4993    -1.8299    -2.0612 H       
  37 H37           -2.2231    -1.7299     1.0709 H       
  38 H38           -1.1667    -2.9193     1.8757 H       
  39 H39            1.2200    -2.7506     0.0301 H       
  40 H40            0.4440    -4.2622     0.5601 H       
  41 H41            0.6779    -3.9428    -1.1753 H       
  42 H42           -4.6750    -6.3948    -1.3640 H       
  43 H43           -2.8396    -6.0396    -2.9987 H       
  44 H44           -5.6726    -5.7093     0.7256 H       
  45 H45           -5.1380    -3.3370     4.5560 H       
  46 H46           -8.9779    -6.0054     3.3018 H       
@<TRIPOS>BOND
   1    1    7 1
   2    1   32 1
   3    1   33 1
   4    1   34 1
   5    2    8 2
   6    2   35 1
   7    3    4 1
   8    3    8 1
   9    3   36 1
  10    4    5 1
  11    4    9 1
  12    4   10 1
  13    5    6 1
  14    5   37 1
  15    5   38 1
  16    6    7 am
  17    6   16 2
  18    6   17 2
  19    7    8 1
  20    9   39 1
  21    9   40 1
  22    9   41 1
  23   10   11 ar
  24   10   15 ar
  25   11   12 ar
  26   12   13 ar
  27   12   19 1
  28   13   14 ar
  29   13   42 1
  30   14   15 ar
  31   14   43 1
  32   15   18 1
  33   19   20 am
  34   19   44 1
  35   20   21 2
  36   20   22 1
  37   22   23 ar
  38   22   25 ar
  39   23   26 ar
  40   24   25 ar
  41   24   27 ar
  42   25   45 1
  43   26   27 ar
  44   26   46 1
  45   27   28 1
  46   28   29 1
  47   28   30 1
  48   28   31 1

#	End of record

