#	Name: ASD01660003
#	Creating user name:	WinNT
#	Creation time:	15. 06. 2019 19:22

#	Modifying user name:	WinNT
#	Modification time:	15. 06. 2019 19:22

#	Program:	/corina/corina34_cracker 3.40 0067  02.08.2006

@<TRIPOS>MOLECULE
ASD01660003
 219  224    0    0    0
SMALL
NO_CHARGES


@<TRIPOS>ATOM
   1 S1             1.2386    -0.2279     1.0016 S.3     
   2 S2             1.3974    -2.2650     1.1674 S.3     
   3 O3            14.8753     1.1112     7.1803 O.2     
   4 O4            14.5324    -3.5488     7.2018 O.2     
   5 O5            13.6129    -5.1142    11.1452 O.3     
   6 O6            15.4150     1.3969     2.5638 O.2     
   7 O7            11.0063    -3.6845    10.2332 O.2     
   8 O8            12.6519     5.1134     1.9805 O.2     
   9 O9             8.7229    -7.0495     7.9434 O.2     
  10 O10           10.7574     3.5308    -1.9947 O.2     
  11 O11            6.3600     5.2280    -1.2291 O.2     
  12 O12            5.0148    -8.0991     9.6814 O.3     
  13 O13            4.4016     0.8870    -1.6073 O.2     
  14 O14            4.4207    -5.2789     8.6279 O.2     
  15 O15           10.2444     7.2138    -0.6720 O.2     
  16 O16            1.4511    -7.4560     6.3685 O.3     
  17 O17            3.0491    -5.8938     4.2079 O.2     
  18 O18            1.8552     4.1423    -0.3150 O.2     
  19 O19           -0.2397    -4.7634     1.6507 O.3     
  20 O20           -0.7790    -4.5648     3.7845 O.2     
  21 O21           -2.3141     4.6092    -2.4940 O.2     
  22 N22           15.3042    -1.0429     6.7689 N.am    
  23 N23           15.3058     2.0020     4.7160 N.am    
  24 N24           13.3129    -3.1430     9.0351 N.am    
  25 N25           14.1072     3.4700     1.5605 N.am    
  26 N26           18.7998    -2.4262     6.3637 N.pl3   
  27 N27           10.5843    -5.5998     9.1618 N.am    
  28 N28           11.2284     4.8509    -0.2496 N.am    
  29 N29            8.0740     3.8939    -1.7527 N.am    
  30 N30            4.6634     3.0478    -1.0853 N.am    
  31 N31            6.9479    -6.0783     8.9016 N.am    
  32 N32           19.0897     1.7280    11.3924 N.3     
  33 N33            4.0692    -6.2349     6.6387 N.am    
  34 N34            1.6519     1.9516    -0.6000 N.am    
  35 N35            2.1825     1.9663    -7.0922 N.3     
  36 N36           10.0338     8.3269    -2.5795 N.am    
  37 N37            1.6845    -4.1969     4.7265 N.am    
  38 N38           -0.3838     4.9120    -1.4433 N.am    
  39 N39           -3.0729     7.1135    -2.6953 N.3     
  40 C40           14.7681    -1.3737     8.1034 C.3     
  41 C41           15.8437     0.6708     5.0684 C.3     
  42 C42           15.8916    -1.3005     9.1393 C.3     
  43 C43           17.3714     0.7333     5.1248 C.3     
  44 C44           16.3895     0.1420     9.2505 C.3     
  45 C45           15.3043     0.2716     6.4175 C.2     
  46 C46           17.9222    -0.6487     5.3650 C.2     
  47 C47           12.8023    -4.5274     8.9454 C.3     
  48 C48           14.2022    -2.7698     8.0708 C.2     
  49 C49           14.5889     3.5800     2.9512 C.3     
  50 C50           17.5130     0.2152    10.2865 C.3     
  51 C51           15.1340     2.2439     3.3852 C.2     
  52 C52           18.0609    -1.7163     4.3716 C.ar    
  53 C53           13.7006    -5.4592     9.7612 C.3     
  54 C54           15.6949     4.6344     3.0286 C.3     
  55 C55           12.5793     4.2506    -0.2205 C.3     
  56 C56           18.3795    -1.1346     6.5298 C.2     
  57 C57           18.6186    -2.8127     5.0546 C.ar    
  58 C58           11.4009    -4.5649     9.4984 C.2     
  59 C59            9.2244    -5.5870     9.7347 C.3     
  60 C60           18.0109     1.6577    10.3977 C.3     
  61 C61            5.7512     3.1094    -2.0850 C.3     
  62 C62           13.1089     4.3165     1.1887 C.2     
  63 C63            5.1716     3.4791    -3.4518 C.3     
  64 C64           13.5073     5.0302    -1.1542 C.3     
  65 C65            8.9977     4.9576    -1.3127 C.3     
  66 C66            9.2306    -6.3060    11.0852 C.3     
  67 C67           15.1135     5.9944     2.7399 C.ar    
  68 C68           17.7665    -1.8198     3.0110 C.ar    
  69 C69            4.2451     2.3604    -3.9324 C.3     
  70 C70           15.1489    -5.3130     9.2899 C.3     
  71 C71            8.2895    -6.2965     8.7896 C.2     
  72 C72           10.3893     4.3876    -1.2194 C.2     
  73 C73            6.7432     4.1594    -1.6559 C.2     
  74 C74           18.8696    -3.9917     4.3607 C.ar    
  75 C75            6.0901    -6.8084     7.9441 C.3     
  76 C76            3.6655     2.7301    -5.2993 C.3     
  77 C77            8.9801     6.1033    -2.3267 C.3     
  78 C78           13.0343     4.8754    -2.5767 C.ar    
  79 C79           18.0221    -2.9876     2.3485 C.ar    
  80 C80           10.0806    -5.5342    12.0613 C.ar    
  81 C81            5.7913    -8.2074     8.4867 C.3     
  82 C82           18.5706    -4.0724     3.0181 C.ar    
  83 C83           14.6213     6.7692     3.7735 C.ar    
  84 C84           15.0776     6.4695     1.4423 C.ar    
  85 C85            4.0522     1.8378    -0.9404 C.2     
  86 C86            2.9346     1.7013     0.0618 C.3     
  87 C87            2.7389     1.6114    -5.7798 C.3     
  88 C88            4.8008    -6.0478     7.7705 C.2     
  89 C89           12.1271     5.7746    -3.1051 C.ar    
  90 C90           13.5120     3.8375    -3.3548 C.ar    
  91 C91            9.7981     7.2537    -1.7990 C.2     
  92 C92            9.5099    -4.5513    12.8482 C.ar    
  93 C93           11.4299    -5.8128    12.1738 C.ar    
  94 C94            2.8145    -5.4666     6.5235 C.3     
  95 C95           14.0879     8.0167     3.5087 C.ar    
  96 C96           14.5443     7.7171     1.1775 C.ar    
  97 C97            2.9410     0.2860     0.6432 C.3     
  98 C98           14.0473     8.4897     2.2104 C.ar    
  99 C99           11.6931     5.6325    -4.4099 C.ar    
 100 C100          13.0781     3.6955    -4.6596 C.ar    
 101 C101          10.2895    -3.8433    13.7436 C.ar    
 102 C102          12.2096    -5.1048    13.0692 C.ar    
 103 C103           1.6642    -6.2690     7.1351 C.3     
 104 C104           2.5317    -5.2100     5.0656 C.2     
 105 C105          12.1668     4.5916    -5.1864 C.ar    
 106 C106          11.6399    -4.1184    13.8524 C.ar    
 107 C107           1.4527    -4.0024     3.2793 C.3     
 108 C108           1.1999     3.2137    -0.7384 C.2     
 109 C109           1.5982    -2.5148     2.9530 C.3     
 110 C110          -0.1197     3.4712    -1.4192 C.3     
 111 C111           0.0629    -4.4641     2.9237 C.2     
 112 C112          -1.5149     5.3804    -2.0068 C.2     
 113 C113          -1.7866     6.8625    -2.0316 C.3     
 114 C114          -1.8397     7.3953    -0.5984 C.3     
 115 H115          13.9822    -0.6658     8.3667 H       
 116 H116          15.5352    -0.0581     4.3189 H       
 117 H117          15.6405    -1.7291     6.1714 H       
 118 H118          12.7947    -4.8472     7.9034 H       
 119 H119          13.7628     3.8663     3.6021 H       
 120 H120          15.0879     2.6635     5.3911 H       
 121 H121          13.0319    -2.5361     9.7377 H       
 122 H122          13.3758    -6.4904     9.6226 H       
 123 H123          12.5239     3.2105    -0.5418 H       
 124 H124           8.8948    -4.5568     9.8693 H       
 125 H125          14.4844     2.8256     0.9413 H       
 126 H126           6.2455     2.1400    -2.1476 H       
 127 H127          19.1736    -2.9848     7.0630 H       
 128 H128          10.8814    -6.3114     8.5734 H       
 129 H129           8.6886     5.3281    -0.3353 H       
 130 H130          10.9553     5.5333     0.3835 H       
 131 H131           6.5997    -6.8878     6.9838 H       
 132 H132           8.4000     3.0465    -2.0941 H       
 133 H133           4.4006     3.8221    -0.5634 H       
 134 H134           6.5786    -5.4800     9.5698 H       
 135 H135           5.2339    -8.7747     7.7413 H       
 136 H136          14.1581    -5.6653    11.7232 H       
 137 H137          19.8363     1.0897    11.1618 H       
 138 H138          19.4358     2.6713    11.4843 H       
 139 H139           3.0764     2.4246     0.8648 H       
 140 H140           2.9186    -4.5167     7.0479 H       
 141 H141           4.3585    -6.8437     5.9412 H       
 142 H142           1.1278     1.2089    -0.9386 H       
 143 H143           4.1656    -7.6529     9.5596 H       
 144 H144           1.5666     1.2426    -7.4315 H       
 145 H145           1.7087     2.8564    -7.0553 H       
 146 H146           2.1865    -4.5746     2.7116 H       
 147 H147          10.5603     9.0673    -2.2399 H       
 148 H148           9.6769     8.3588    -3.4809 H       
 149 H149           1.2590    -3.6373     5.3948 H       
 150 H150           0.7347    -8.0147     6.6996 H       
 151 H151           0.2554     5.5289    -1.0536 H       
 152 H152          -0.9909     7.3687    -2.5782 H       
 153 H153          -1.1440    -5.0552     1.4714 H       
 154 H154          -3.8177     6.6027    -2.2453 H       
 155 H155          -3.2781     8.1010    -2.7246 H       
 156 C156           7.1061    -8.9260     8.7962 C.3     
 157 H157          15.5151    -1.6305    10.1075 H       
 158 H158          16.7137    -1.9458     8.8299 H       
 159 H159          17.7544     1.1179     4.1795 H       
 160 H160          17.6783     1.3929     5.9364 H       
 161 H161          16.7660     0.4721     8.2823 H       
 162 H162          15.5674     0.7873     9.5599 H       
 163 H163          17.1366    -0.1149    11.2547 H       
 164 H164          18.3352    -0.4301     9.9771 H       
 165 H165          16.1314     4.6304     4.0274 H       
 166 H166          16.4669     4.4058     2.2938 H       
 167 H167          18.4107    -0.5873     7.4603 H       
 168 H168          17.1888     2.3030    10.7071 H       
 169 H169          18.3874     1.9877     9.4295 H       
 170 H170           4.6069     4.4077    -3.3680 H       
 171 H171           5.9834     3.6109    -4.1671 H       
 172 H172          13.4957     6.0851    -0.8803 H       
 173 H173          14.5221     4.6426    -1.0646 H       
 174 H174           8.2113    -6.3738    11.4654 H       
 175 H175           9.6396    -7.3087    10.9610 H       
 176 H176          17.3387    -0.9800     2.4836 H       
 177 H177           4.8097     1.4318    -4.0163 H       
 178 H178           3.4332     2.2286    -3.2171 H       
 179 H179          15.7889    -5.9768     9.8712 H       
 180 H180          15.2158    -5.5762     8.2343 H       
 181 H181          15.4737    -4.2818     9.4286 H       
 182 H182          19.2977    -4.8409     4.8725 H       
 183 H183           3.1008     3.6586    -5.2154 H       
 184 H184           4.4773     2.8619    -6.0146 H       
 185 H185           9.4030     5.7595    -3.2706 H       
 186 H186           7.9529     6.4311    -2.4867 H       
 187 H187          17.7942    -3.0672     1.2959 H       
 188 H188          18.7666    -4.9887     2.4810 H       
 189 H189          14.6531     6.3997     4.7878 H       
 190 H190          15.4666     5.8662     0.6354 H       
 191 H191           1.9271     1.4795    -5.0645 H       
 192 H192           3.3036     0.6828    -5.8637 H       
 193 H193          11.7570     6.5878    -2.4985 H       
 194 H194          14.2244     3.1378    -2.9434 H       
 195 H195           8.4549    -4.3364    12.7633 H       
 196 H196          11.8748    -6.5839    11.5624 H       
 197 H197          13.7027     8.6218     4.3161 H       
 198 H198          14.5166     8.0884     0.1637 H       
 199 H199           3.5256     0.2736     1.5631 H       
 200 H200           3.3838    -0.4011    -0.0779 H       
 201 H201          13.6303     9.4642     2.0035 H       
 202 H202          10.9838     6.3346    -4.8225 H       
 203 H203          13.4516     2.8848    -5.2676 H       
 204 H204           9.8438    -3.0750    14.3579 H       
 205 H205          13.2637    -5.3228    13.1574 H       
 206 H206           0.7568    -5.6652     7.1296 H       
 207 H207           1.9148    -6.5390     8.1609 H       
 208 H208          11.8276     4.4804    -6.2056 H       
 209 H209          12.2491    -3.5650    14.5517 H       
 210 H210           2.5861    -2.1706     3.2592 H       
 211 H211           0.8347    -1.9493     3.4872 H       
 212 H212          -0.9154     2.9650    -0.8726 H       
 213 H213          -0.0819     3.0916    -2.4403 H       
 214 H214          -2.6354     6.8892    -0.0518 H       
 215 H215          -0.8852     7.2091    -0.1060 H       
 216 H216          -2.0362     8.4673    -0.6163 H       
 217 H217           7.6634    -8.3586     9.5416 H       
 218 H218           6.8931    -9.9226     9.1828 H       
 219 H219           7.6983    -9.0086     7.8849 H       
@<TRIPOS>BOND
   1    1    2 1
   2    1   97 1
   3    2  109 1
   4    3   45 2
   5    4   48 2
   6    5   53 1
   7    5  136 1
   8    6   51 2
   9    7   58 2
  10    8   62 2
  11    9   71 2
  12   10   72 2
  13   11   73 2
  14   12  143 1
  15   12   81 1
  16   13   85 2
  17   14   88 2
  18   15   91 2
  19   16  103 1
  20   16  150 1
  21   17  104 2
  22   18  108 2
  23   19  111 1
  24   19  153 1
  25   20  111 2
  26   21  112 2
  27   22   40 1
  28   22   45 am
  29   22  117 1
  30   23   41 1
  31   23   51 am
  32   23  120 1
  33   24   47 1
  34   24   48 am
  35   24  121 1
  36   25   49 1
  37   25   62 am
  38   25  125 1
  39   26   56 1
  40   26   57 1
  41   26  127 1
  42   27   58 am
  43   27   59 1
  44   27  128 1
  45   28   55 1
  46   28   72 am
  47   28  130 1
  48   29   65 1
  49   29   73 am
  50   29  132 1
  51   30   61 1
  52   30   85 am
  53   30  133 1
  54   31   71 am
  55   31   75 1
  56   31  134 1
  57   32   60 1
  58   32  137 1
  59   32  138 1
  60   33   88 am
  61   33   94 1
  62   33  141 1
  63   34  108 am
  64   34  142 1
  65   34   86 1
  66   35   87 1
  67   35  144 1
  68   35  145 1
  69   36   91 am
  70   36  147 1
  71   36  148 1
  72   37  107 1
  73   37  149 1
  74   37  104 am
  75   38  110 1
  76   38  112 am
  77   38  151 1
  78   39  154 1
  79   39  155 1
  80   39  113 1
  81   40   42 1
  82   40   48 1
  83   40  115 1
  84   41   43 1
  85   41   45 1
  86   41  116 1
  87   42   44 1
  88   42  157 1
  89   42  158 1
  90   43   46 1
  91   43  159 1
  92   43  160 1
  93   44   50 1
  94   44  161 1
  95   44  162 1
  96   46   52 1
  97   46   56 2
  98   47   53 1
  99   47   58 1
 100   47  118 1
 101   49   51 1
 102   49   54 1
 103   49  119 1
 104   50   60 1
 105   50  163 1
 106   50  164 1
 107   52   57 ar
 108   52   68 ar
 109   53   70 1
 110   53  122 1
 111   54   67 1
 112   54  165 1
 113   54  166 1
 114   55   62 1
 115   55   64 1
 116   55  123 1
 117   56  167 1
 118   57   74 ar
 119   59   66 1
 120   59   71 1
 121   59  124 1
 122   60  168 1
 123   60  169 1
 124   61   63 1
 125   61   73 1
 126   61  126 1
 127   63   69 1
 128   63  170 1
 129   63  171 1
 130   64   78 1
 131   64  172 1
 132   64  173 1
 133   65   72 1
 134   65   77 1
 135   65  129 1
 136   66   80 1
 137   66  174 1
 138   66  175 1
 139   67   83 ar
 140   67   84 ar
 141   68   79 ar
 142   68  176 1
 143   69   76 1
 144   69  177 1
 145   69  178 1
 146   70  179 1
 147   70  180 1
 148   70  181 1
 149   74   82 ar
 150   74  182 1
 151   75   81 1
 152   75   88 1
 153   75  131 1
 154   76   87 1
 155   76  183 1
 156   76  184 1
 157   77   91 1
 158   77  185 1
 159   77  186 1
 160   78   89 ar
 161   78   90 ar
 162   79   82 ar
 163   79  187 1
 164   80   92 ar
 165   80   93 ar
 166   81  135 1
 167   81  156 1
 168   82  188 1
 169   83   95 ar
 170   83  189 1
 171   84   96 ar
 172   84  190 1
 173   85   86 1
 174   86   97 1
 175   86  139 1
 176   87  191 1
 177   87  192 1
 178   89   99 ar
 179   89  193 1
 180   90  100 ar
 181   90  194 1
 182   92  101 ar
 183   92  195 1
 184   93  102 ar
 185   93  196 1
 186   94  103 1
 187   94  104 1
 188   94  140 1
 189   95   98 ar
 190   95  197 1
 191   96   98 ar
 192   96  198 1
 193   97  199 1
 194   97  200 1
 195   98  201 1
 196   99  105 ar
 197   99  202 1
 198  100  105 ar
 199  100  203 1
 200  101  106 ar
 201  101  204 1
 202  102  106 ar
 203  102  205 1
 204  103  206 1
 205  103  207 1
 206  105  208 1
 207  106  209 1
 208  107  109 1
 209  107  111 1
 210  107  146 1
 211  108  110 1
 212  109  210 1
 213  109  211 1
 214  110  212 1
 215  110  213 1
 216  112  113 1
 217  113  114 1
 218  113  152 1
 219  114  214 1
 220  114  215 1
 221  114  216 1
 222  156  217 1
 223  156  218 1
 224  156  219 1

#	End of record

