#	Name: ASD01914961
#	Creating user name:	WinNT
#	Creation time:	15. 06. 2019 20:04

#	Modifying user name:	WinNT
#	Modification time:	15. 06. 2019 20:04

#	Program:	/corina/corina34_cracker 3.40 0067  02.08.2006

@<TRIPOS>MOLECULE
ASD01914961
  61   64    0    0    0
SMALL
NO_CHARGES


@<TRIPOS>ATOM
   1 C1            -0.0158     1.3120     0.0093 C.2     
   2 N2             0.0021    -0.0041     0.0020 N.2     
   3 C3             1.3183     1.7636    -0.0011 C.2     
   4 C4             2.1227     0.6785    -0.0146 C.2     
   5 N5             1.3391    -0.4213    -0.0130 N.pl3   
   6 C6            -1.2277     2.1688     0.0199 C.ar    
   7 C7            -2.4942     1.5876     0.0235 C.ar    
   8 C8            -3.6181     2.3878     0.0339 C.ar    
   9 C9            -3.4888     3.7673     0.0403 C.ar    
  10 C10           -2.2317     4.3491     0.0367 C.ar    
  11 C11           -1.1022     3.5562     0.0321 C.ar    
  12 C12            3.6296     0.6927    -0.0293 C.3     
  13 C13            1.8063    -1.8097    -0.0245 C.3     
  14 C14            1.9797    -2.2931     1.3923 C.2     
  15 N15            2.4045    -3.5502     1.6282 N.am    
  16 O16            1.7369    -1.5510     2.3203 O.2     
  17 C17            2.5842    -4.0535     3.0005 C.3     
  18 C18            1.6359    -5.2368     3.2032 C.3     
  19 N19            1.7106    -6.1575     2.0770 N.am    
  20 C20            2.1465    -5.8307     0.8595 C.2     
  21 C21            2.7016    -4.4770     0.5258 C.3     
  22 C22            4.1525     0.8152     1.4033 C.3     
  23 C23            1.2989    -7.4696     2.2860 C.ar    
  24 C24            0.7379    -7.8484     3.5017 C.ar    
  25 C25            0.3421    -9.1711     3.6608 C.ar    
  26 N26            0.5123   -10.0219     2.6530 N.ar    
  27 C27            1.0476    -9.6256     1.5163 C.ar    
  28 N28            1.4308    -8.3797     1.3245 N.ar    
  29 O29            2.0879    -6.6647    -0.0190 O.2     
  30 F30           -4.5919     4.5472     0.0495 F       
  31 C31           -4.9883     1.7604     0.0378 C.3     
  32 C32            5.6823     0.8297     1.3883 C.3     
  33 O33           -0.2092    -9.5881     4.8267 O.3     
  34 C34           -0.5890   -10.9632     4.9095 C.3     
  35 H35            1.6408     2.7944     0.0011 H       
  36 H36           -2.5959     0.5124     0.0179 H       
  37 H37           -2.1353     5.4248     0.0417 H       
  38 H38           -0.1224     4.0106     0.0294 H       
  39 H39            3.9973    -0.2327    -0.4724 H       
  40 H40            3.9792     1.5412    -0.6175 H       
  41 H41            1.0740    -2.4353    -0.5348 H       
  42 H42            2.7609    -1.8675    -0.5475 H       
  43 H43            3.6147    -4.3799     3.1405 H       
  44 H44            2.3471    -3.2655     3.7152 H       
  45 H45            1.9105    -5.7643     4.1166 H       
  46 H46            0.6150    -4.8665     3.2967 H       
  47 H47            2.2463    -4.1126    -0.3951 H       
  48 H48            3.7818    -4.5467     0.3983 H       
  49 H49            3.7847     1.7407     1.8464 H       
  50 H50            3.8029    -0.0332     1.9915 H       
  51 H51            0.6135    -7.1330     4.3012 H       
  52 H52            1.1720   -10.3415     0.7173 H       
  53 H53           -5.3131     1.6036     1.0664 H       
  54 H54           -5.6918     2.4212    -0.4686 H       
  55 H55           -4.9510     0.8028    -0.4814 H       
  56 H56            6.0549     0.9170     2.4090 H       
  57 H57            6.0501    -0.0958     0.9452 H       
  58 H58            6.0319     1.6782     0.8001 H       
  59 H59           -1.3297   -11.1825     4.1404 H       
  60 H60            0.2883   -11.5922     4.7589 H       
  61 H61           -1.0155   -11.1638     5.8924 H       
@<TRIPOS>BOND
   1    1    2 2
   2    1    3 1
   3    1    6 1
   4    2    5 1
   5    3    4 2
   6    3   35 1
   7    4    5 1
   8    4   12 1
   9    5   13 1
  10    6    7 ar
  11    6   11 ar
  12    7    8 ar
  13    7   36 1
  14    8    9 ar
  15    8   31 1
  16    9   10 ar
  17    9   30 1
  18   10   11 ar
  19   10   37 1
  20   11   38 1
  21   12   22 1
  22   12   39 1
  23   12   40 1
  24   13   14 1
  25   13   41 1
  26   13   42 1
  27   14   15 am
  28   14   16 2
  29   15   17 1
  30   15   21 1
  31   17   18 1
  32   17   43 1
  33   17   44 1
  34   18   19 1
  35   18   45 1
  36   18   46 1
  37   19   20 am
  38   19   23 1
  39   20   21 1
  40   20   29 2
  41   21   47 1
  42   21   48 1
  43   22   32 1
  44   22   49 1
  45   22   50 1
  46   23   24 ar
  47   23   28 ar
  48   24   25 ar
  49   24   51 1
  50   25   26 ar
  51   25   33 1
  52   26   27 ar
  53   27   28 ar
  54   27   52 1
  55   31   53 1
  56   31   54 1
  57   31   55 1
  58   32   56 1
  59   32   57 1
  60   32   58 1
  61   33   34 1
  62   34   59 1
  63   34   60 1
  64   34   61 1

#	End of record

