#	Name: ASD02560236
#	Creating user name:	WinNT
#	Creation time:	15. 06. 2019 20:24

#	Modifying user name:	WinNT
#	Modification time:	15. 06. 2019 20:24

#	Program:	/corina/corina34_cracker 3.40 0067  02.08.2006

@<TRIPOS>MOLECULE
ASD02560236
  32   34    0    0    0
SMALL
NO_CHARGES


@<TRIPOS>ATOM
   1 N1             0.5662     2.0872     1.9279 N.2     
   2 N2             0.9222     1.1299     2.8889 N.2     
   3 C3             2.0682     0.6139     2.5219 C.2     
   4 O4             2.4471     1.2040     1.3746 O.3     
   5 C5             1.5136     2.1060     1.0240 C.2     
   6 N6             1.5478     2.9159    -0.1008 N.pl3   
   7 N7             2.7705    -0.3713     3.1999 N.pl3   
   8 C8             2.3256    -0.8128     4.4435 C.ar    
   9 C9             2.5783    -2.1207     4.8471 C.ar    
  10 C10            2.1400    -2.5604     6.0756 C.ar    
  11 C11            1.4403    -1.6915     6.9184 C.ar    
  12 C12            1.1882    -0.3783     6.5098 C.ar    
  13 C13            1.6343     0.0565     5.2824 C.ar    
  14 C14            0.5661     3.8945    -0.2881 C.ar    
  15 C15            0.8148     5.2106     0.0826 C.ar    
  16 C16           -0.1575     6.1749    -0.1045 C.ar    
  17 C17           -1.3766     5.8315    -0.6597 C.ar    
  18 C18           -1.6279     4.5229    -1.0294 C.ar    
  19 C19           -0.6583     3.5542    -0.8506 C.ar    
  20 Cl20          -0.9749     1.9117    -1.3151 Cl      
  21 Cl21           2.3446     5.6428     0.7802 Cl      
  22 C22            0.9824    -2.1456     8.1969 C.1     
  23 N23            0.6192    -2.5059     9.2112 N.1     
  24 H24            2.2526     2.8038    -0.7578 H       
  25 H25            3.5715    -0.7528     2.8079 H       
  26 H26            3.1185    -2.7915     4.1955 H       
  27 H27            2.3360    -3.5754     6.3880 H       
  28 H28            0.6480     0.2954     7.1584 H       
  29 H29            1.4402     1.0708     4.9663 H       
  30 H30            0.0349     7.1979     0.1836 H       
  31 H31           -2.1344     6.5872    -0.8047 H       
  32 H32           -2.5814     4.2583    -1.4620 H       
@<TRIPOS>BOND
   1    1    2 1
   2    1    5 2
   3    2    3 2
   4    3    4 1
   5    3    7 1
   6    4    5 1
   7    5    6 1
   8    6   14 1
   9    6   24 1
  10    7    8 1
  11    7   25 1
  12    8    9 ar
  13    8   13 ar
  14    9   10 ar
  15    9   26 1
  16   10   11 ar
  17   10   27 1
  18   11   12 ar
  19   11   22 1
  20   12   13 ar
  21   12   28 1
  22   13   29 1
  23   14   15 ar
  24   14   19 ar
  25   15   16 ar
  26   15   21 1
  27   16   17 ar
  28   16   30 1
  29   17   18 ar
  30   17   31 1
  31   18   19 ar
  32   18   32 1
  33   19   20 1
  34   22   23 3

#	End of record

