#	Name: ASD01028283
#	Creating user name:	WinNT
#	Creation time:	15. 06. 2019 18:56

#	Modifying user name:	WinNT
#	Modification time:	15. 06. 2019 18:56

#	Program:	/corina/corina34_cracker 3.40 0067  02.08.2006

@<TRIPOS>MOLECULE
ASD01028283
  50   54    0    0    0
SMALL
NO_CHARGES


@<TRIPOS>ATOM
   1 C1            -0.0166     1.3719     0.0096 C.ar    
   2 C2             0.0021    -0.0041     0.0020 C.ar    
   3 C3             1.1750     2.1035     0.0021 C.ar    
   4 C4             2.3797     1.4715    -0.0128 C.ar    
   5 C5             2.4326     0.0695    -0.0208 C.ar    
   6 C6             1.2322    -0.6815    -0.0134 C.ar    
   7 C7             3.6676    -0.6170    -0.0367 C.ar    
   8 C8             3.6411    -2.0003    -0.0444 C.ar    
   9 C9             2.4221    -2.6660    -0.0364 C.ar    
  10 N10            1.2804    -2.0188    -0.0211 N.ar    
  11 O11            4.8427     0.0593    -0.0447 O.3     
  12 C12            6.0400    -0.7207    -0.0607 C.3     
  13 C13            7.2364     0.1957    -0.0676 C.2     
  14 N14            7.8865     0.6793     1.0264 N.pl3   
  15 C15            8.9044     1.4641     0.5424 C.2     
  16 N16            8.8264     1.4209    -0.7777 N.2     
  17 N17            7.8436     0.6671    -1.1258 N.2     
  18 C18            7.7071     0.5259     2.3679 C.2     
  19 C19            8.5372     1.1510     3.2499 C.2     
  20 C20            9.5939     1.9659     2.7743 C.2     
  21 C21            9.7744     2.1185     1.4378 C.2     
  22 C22            8.3344     0.9788     4.7040 C.2     
  23 O23           -1.2065     2.0271     0.0188 O.3     
  24 C24           -1.1606     3.4553     0.0263 C.3     
  25 C25            8.4039    -0.2322     5.2114 C.2     
  26 C26            8.2067    -0.5210     6.6718 C.3     
  27 N27            8.3414     0.7127     7.4566 N.3     
  28 C28            7.4836     1.7698     6.8961 C.3     
  29 C29            8.0631     2.1962     5.5433 C.3     
  30 H30           -0.9239    -0.5598     0.0082 H       
  31 H31            1.1387     3.1829     0.0079 H       
  32 H32            3.2932     2.0476    -0.0188 H       
  33 H33            4.5646    -2.5602    -0.0569 H       
  34 H34            2.4134    -3.7460    -0.0425 H       
  35 H35            6.0728    -1.3543     0.8256 H       
  36 H36            6.0552    -1.3447    -0.9543 H       
  37 H37            6.9025    -0.0942     2.7347 H       
  38 H38           10.2527     2.4624     3.4714 H       
  39 H39           10.5767     2.7370     1.0636 H       
  40 H40           -0.6312     3.7971     0.9157 H       
  41 H41           -0.6396     3.8068    -0.8642 H       
  42 H42           -2.1761     3.8514     0.0333 H       
  43 H43            8.6121    -1.0577     4.5469 H       
  44 H44            7.2124    -0.9401     6.8259 H       
  45 H45            8.9548    -1.2420     7.0015 H       
  46 H46            8.1248     0.5487     8.4283 H       
  47 H47            6.4721     1.3870     6.7605 H       
  48 H48            7.4671     2.6247     7.5720 H       
  49 H49            8.9899     2.7471     5.7032 H       
  50 H50            7.3466     2.8351     5.0270 H       
@<TRIPOS>BOND
   1    1    2 ar
   2    1    3 ar
   3    1   23 1
   4    2    6 ar
   5    2   30 1
   6    3    4 ar
   7    3   31 1
   8    4    5 ar
   9    4   32 1
  10    5    6 ar
  11    5    7 ar
  12    6   10 ar
  13    7    8 ar
  14    7   11 1
  15    8    9 ar
  16    8   33 1
  17    9   10 ar
  18    9   34 1
  19   11   12 1
  20   12   13 1
  21   12   35 1
  22   12   36 1
  23   13   14 1
  24   13   17 2
  25   14   15 1
  26   14   18 1
  27   15   16 2
  28   15   21 1
  29   16   17 1
  30   18   19 2
  31   18   37 1
  32   19   20 1
  33   19   22 1
  34   20   21 2
  35   20   38 1
  36   21   39 1
  37   22   25 2
  38   22   29 1
  39   23   24 1
  40   24   40 1
  41   24   41 1
  42   24   42 1
  43   25   26 1
  44   25   43 1
  45   26   27 1
  46   26   44 1
  47   26   45 1
  48   27   28 1
  49   27   46 1
  50   28   29 1
  51   28   47 1
  52   28   48 1
  53   29   49 1
  54   29   50 1

#	End of record

