#	Name: ASD01911622
#	Creating user name:	WinNT
#	Creation time:	15. 06. 2019 19:58

#	Modifying user name:	WinNT
#	Modification time:	15. 06. 2019 19:58

#	Program:	/corina/corina34_cracker 3.40 0067  02.08.2006

@<TRIPOS>MOLECULE
ASD01911622
  37   39    0    0    0
SMALL
NO_CHARGES


@<TRIPOS>ATOM
   1 N1             0.0316     1.1537    -0.6874 N.am    
   2 C2             0.0021    -0.0041     0.0020 C.2     
   3 C3            -1.2508    -0.7543     0.1205 C.2     
   4 C4            -1.3862    -2.1135     0.0310 C.2     
   5 S5            -2.8471    -0.0659     0.4110 S.3     
   6 C6            -3.5481    -1.6813     0.3766 C.2     
   7 N7            -2.6015    -2.5625     0.1688 N.2     
   8 C8            -4.9365    -1.9845     0.5531 C.1     
   9 C9            -6.0747    -2.2331     0.6978 C.1     
  10 C10           -7.4631    -2.5364     0.8742 C.ar    
  11 C11           -7.9039    -3.8623     0.8264 C.ar    
  12 C12          -10.1508    -3.1202     1.2160 C.ar    
  13 C13           -9.7191    -1.8071     1.2699 C.ar    
  14 C14           -8.3832    -1.5085     1.1008 C.ar    
  15 O15            1.0162    -0.4263     0.5261 O.2     
  16 C16           -1.1498     1.6127    -1.4305 C.3     
  17 C17           -1.4877     3.0395    -0.9868 C.3     
  18 C18           -0.2535     3.9282    -1.1572 C.3     
  19 C19            0.8809     3.4036    -0.2740 C.3     
  20 C20            1.2438     1.9837    -0.7050 C.3     
  21 F21            0.1521     3.9108    -2.4960 F       
  22 F22           -0.5677     5.2390    -0.7827 F       
  23 C23           -9.2446    -4.1464     0.9975 C.ar    
  24 F24           -9.6737    -5.4266     0.9514 F       
  25 H25           -0.5446    -2.7679    -0.1420 H       
  26 H26           -7.1983    -4.6619     0.6558 H       
  27 H27          -11.1981    -3.3475     1.3495 H       
  28 H28          -10.4308    -1.0129     1.4405 H       
  29 H29           -8.0485    -0.4825     1.1437 H       
  30 H30           -0.9356     1.6035    -2.4992 H       
  31 H31           -1.9929     0.9550    -1.2190 H       
  32 H32           -2.3025     3.4273    -1.5983 H       
  33 H33           -1.7895     3.0330     0.0605 H       
  34 H34            1.7519     4.0505    -0.3781 H       
  35 H35            0.5568     3.3936     0.7667 H       
  36 H36            1.9813     1.5702    -0.0171 H       
  37 H37            1.6531     2.0018    -1.7151 H       
@<TRIPOS>BOND
   1    1    2 am
   2    1   16 1
   3    1   20 1
   4    2    3 1
   5    2   15 2
   6    3    4 2
   7    3    5 1
   8    4    7 1
   9    4   25 1
  10    5    6 1
  11    6    7 2
  12    6    8 1
  13    8    9 3
  14    9   10 1
  15   10   11 ar
  16   10   14 ar
  17   11   23 ar
  18   11   26 1
  19   12   13 ar
  20   12   23 ar
  21   12   27 1
  22   13   14 ar
  23   13   28 1
  24   14   29 1
  25   16   17 1
  26   16   30 1
  27   16   31 1
  28   17   18 1
  29   17   32 1
  30   17   33 1
  31   18   19 1
  32   18   21 1
  33   18   22 1
  34   19   20 1
  35   19   34 1
  36   19   35 1
  37   20   36 1
  38   20   37 1
  39   23   24 1

#	End of record

