#	Name: ASD01918251
#	Creating user name:	WinNT
#	Creation time:	15. 06. 2019 20:11

#	Modifying user name:	WinNT
#	Modification time:	15. 06. 2019 20:11

#	Program:	/corina/corina34_cracker 3.40 0067  02.08.2006

@<TRIPOS>MOLECULE
ASD01918251
  63   67    0    0    0
SMALL
NO_CHARGES


@<TRIPOS>ATOM
   1 C1            -0.0184     1.5028     0.0103 C.3     
   2 C2             0.0021    -0.0041     0.0020 C.ar    
   3 C3             0.0055    -0.6808    -1.2071 C.ar    
   4 C4             0.0243    -2.0669    -1.2100 C.ar    
   5 C5             0.0391    -2.7303     0.0067 C.ar    
   6 C6             0.0346    -1.9852     1.1838 C.ar    
   7 N7             0.0218    -0.6588     1.1425 N.ar    
   8 C8             0.0498    -2.6794     2.4927 C.2     
   9 O9             0.0661    -3.8937     2.5363 O.2     
  10 N10            0.0455    -1.9641     3.6350 N.am    
  11 C11            0.0605    -2.6505     4.9292 C.3     
  12 C12           -1.1765    -3.5431     5.0474 C.3     
  13 C13           -1.1609    -4.2599     6.3990 C.3     
  14 C14            0.1004    -5.1194     6.5059 C.3     
  15 C15            1.3374    -4.2268     6.3876 C.3     
  16 C16            1.3217    -3.5099     5.0360 C.3     
  17 C17            1.3287    -3.1915     7.5141 C.3     
  18 C18            0.0675    -2.3320     7.4072 C.3     
  19 C19           -1.1695    -3.2246     7.5255 C.3     
  20 C20            0.0518    -1.6151     6.0556 C.3     
  21 C21            0.0590    -1.3122     8.5168 C.2     
  22 O22           -0.8472    -1.3006     9.3228 O.2     
  23 N23            1.0585    -0.4132     8.6134 N.am    
  24 C24            1.0502     0.5781     9.6921 C.3     
  25 C25            2.2872     1.4708     9.5738 C.3     
  26 O26            2.2144     2.2278     8.3640 O.3     
  27 C27            2.3436     2.4096    10.7513 C.ar    
  28 C28            1.5595     3.5480    10.7658 C.ar    
  29 C29            1.6112     4.4092    11.8459 C.ar    
  30 C30            2.4467     4.1318    12.9117 C.ar    
  31 C31            3.2301     2.9929    12.8976 C.ar    
  32 C32            3.1752     2.1295    11.8194 C.ar    
  33 H33            1.0042     1.8801     0.0026 H       
  34 H34           -0.5455     1.8639    -0.8728 H       
  35 H35           -0.5286     1.8543     0.9071 H       
  36 H36           -0.0067    -0.1337    -2.1382 H       
  37 H37            0.0271    -2.6173    -2.1392 H       
  38 H38            0.0536    -3.8097     0.0418 H       
  39 H39            0.0325    -0.9948     3.6002 H       
  40 H40           -2.0751    -2.9308     4.9712 H       
  41 H41           -1.1704    -4.2807     4.2449 H       
  42 H42           -2.0421    -4.8958     6.4832 H       
  43 H43            0.1115    -5.6301     7.4688 H       
  44 H44            0.1065    -5.8570     5.7033 H       
  45 H45            2.2359    -4.8391     6.4638 H       
  46 H46            1.3278    -4.2475     4.2335 H       
  47 H47            2.2030    -2.8740     4.9518 H       
  48 H48            1.3399    -3.7021     8.4770 H       
  49 H49            2.2100    -2.5555     7.4299 H       
  50 H50           -2.0680    -2.6123     7.4493 H       
  51 H51           -1.1583    -3.7353     8.4884 H       
  52 H52            0.9331    -0.9792     5.9714 H       
  53 H53           -0.8467    -1.0028     5.9795 H       
  54 H54            1.7832    -0.4225     7.9688 H       
  55 H55            0.1517     1.1904     9.6159 H       
  56 H56            1.0614     0.0674    10.6550 H       
  57 H57            3.1832     0.8502     9.5608 H       
  58 H58            1.4401     2.8042     8.3067 H       
  59 H59            0.9067     3.7647     9.9331 H       
  60 H60            0.9991     5.2989    11.8568 H       
  61 H61            2.4876     4.8050    13.7552 H       
  62 H62            3.8831     2.7764    13.7301 H       
  63 H63            3.7844     1.2378    11.8101 H       
@<TRIPOS>BOND
   1    1    2 1
   2    1   33 1
   3    1   34 1
   4    1   35 1
   5    2    7 ar
   6    2    3 ar
   7    3    4 ar
   8    3   36 1
   9    4    5 ar
  10    4   37 1
  11    5    6 ar
  12    5   38 1
  13    6    7 ar
  14    6    8 1
  15    8    9 2
  16    8   10 am
  17   10   11 1
  18   10   39 1
  19   11   16 1
  20   11   20 1
  21   11   12 1
  22   12   13 1
  23   12   40 1
  24   12   41 1
  25   13   19 1
  26   13   14 1
  27   13   42 1
  28   14   15 1
  29   14   43 1
  30   14   44 1
  31   15   16 1
  32   15   17 1
  33   15   45 1
  34   16   46 1
  35   16   47 1
  36   17   18 1
  37   17   48 1
  38   17   49 1
  39   18   19 1
  40   18   20 1
  41   18   21 1
  42   19   50 1
  43   19   51 1
  44   20   52 1
  45   20   53 1
  46   21   22 2
  47   21   23 am
  48   23   24 1
  49   23   54 1
  50   24   25 1
  51   24   55 1
  52   24   56 1
  53   25   26 1
  54   25   27 1
  55   25   57 1
  56   26   58 1
  57   27   32 ar
  58   27   28 ar
  59   28   29 ar
  60   28   59 1
  61   29   30 ar
  62   29   60 1
  63   30   31 ar
  64   30   61 1
  65   31   32 ar
  66   31   62 1
  67   32   63 1

#	End of record

