#	Name: ASD01148151
#	Creating user name:	WinNT
#	Creation time:	15. 06. 2019 19:02

#	Modifying user name:	WinNT
#	Modification time:	15. 06. 2019 19:02

#	Program:	/corina/corina34_cracker 3.40 0067  02.08.2006

@<TRIPOS>MOLECULE
ASD01148151
  34   35    0    0    0
SMALL
NO_CHARGES


@<TRIPOS>ATOM
   1 N1            -0.0161     1.3349     0.0094 N.pl3   
   2 C2             0.0021    -0.0041     0.0020 C.2     
   3 C3             1.1786    -0.7254    -0.0126 C.2     
   4 C4             2.4571     0.0048    -0.0208 C.2     
   5 C5             2.3897     1.4769    -0.0128 C.ar    
   6 C6             3.5483     2.2559    -0.0201 C.ar    
   7 C7             3.4036     3.6372    -0.0123 C.ar    
   8 C8             2.1231     4.1850     0.0024 C.ar    
   9 N9             1.0496     3.4244     0.0095 N.ar    
  10 C10            1.1294     2.0993     0.0025 C.ar    
  11 C11            1.1558    -2.1951    -0.0193 C.2     
  12 O12            0.0937    -2.7865    -0.0120 O.2     
  13 O13            2.3125    -2.8871    -0.0336 O.3     
  14 O14            3.5246    -0.5826    -0.0334 O.2     
  15 N15            4.5294     4.4676    -0.0187 N.pl3   
  16 C16           -1.3125     2.0171     0.0191 C.3     
  17 C17           -1.7571     2.2468     1.4650 C.3     
  18 C18            2.2140    -4.3357    -0.0395 C.3     
  19 C19            3.6185    -4.9424    -0.0558 C.3     
  20 H20           -0.9366    -0.5381     0.0081 H       
  21 H21            4.5266     1.7987    -0.0312 H       
  22 H22            2.0088     5.2589     0.0085 H       
  23 H23            5.4183     4.0795    -0.0286 H       
  24 H24            4.4211     5.4315    -0.0131 H       
  25 H25           -1.2220     2.9767    -0.4899 H       
  26 H26           -2.0509     1.4015    -0.4946 H       
  27 H27           -1.8477     1.2872     1.9740 H       
  28 H28           -1.0187     2.8624     1.9787 H       
  29 H29           -2.7217     2.7544     1.4722 H       
  30 H30            1.6852    -4.6676     0.8540 H       
  31 H31            1.6682    -4.6592    -0.9259 H       
  32 H32            4.1473    -4.6105    -0.9493 H       
  33 H33            4.1642    -4.6190     0.8306 H       
  34 H34            3.5445    -6.0299    -0.0602 H       
@<TRIPOS>BOND
   1    1    2 1
   2    1   10 1
   3    1   16 1
   4    2    3 2
   5    2   20 1
   6    3    4 1
   7    3   11 1
   8    4    5 1
   9    4   14 2
  10    5    6 ar
  11    5   10 ar
  12    6    7 ar
  13    6   21 1
  14    7    8 ar
  15    7   15 1
  16    8    9 ar
  17    8   22 1
  18    9   10 ar
  19   11   12 2
  20   11   13 1
  21   13   18 1
  22   15   23 1
  23   15   24 1
  24   16   17 1
  25   16   25 1
  26   16   26 1
  27   17   27 1
  28   17   28 1
  29   17   29 1
  30   18   19 1
  31   18   30 1
  32   18   31 1
  33   19   32 1
  34   19   33 1
  35   19   34 1

#	End of record

