#	Name: ASD05430167
#	Creating user name:	WinNT
#	Creation time:	15. 06. 2019 20:59

#	Modifying user name:	WinNT
#	Modification time:	15. 06. 2019 20:59

#	Program:	/corina/corina34_cracker 3.40 0067  02.08.2006

@<TRIPOS>MOLECULE
ASD05430167
  74   79    0    0    0
SMALL
NO_CHARGES


@<TRIPOS>ATOM
   1 C1            -0.0228     1.3678     0.1717 C.ar    
   2 C2            -0.0156    -0.0183     0.3226 C.ar    
   3 C3            -1.2127    -0.7197     0.3839 C.ar    
   4 C4            -2.4134    -0.0493     0.2958 C.ar    
   5 C5            -2.4284     1.3412     0.1442 C.ar    
   6 C6            -1.2232     2.0478     0.0879 C.ar    
   7 O7            -4.8692     0.0181    -0.2409 O.3     
   8 C8            -4.8652     1.3680    -0.0450 C.2     
   9 C9            -3.7096     2.0591     0.0495 C.2     
  10 C10           -6.0827    -0.5999    -0.6758 C.3     
  11 C11           -6.8984     0.3561    -1.5558 C.3     
  12 N12           -7.1738     1.5733    -0.7929 N.pl3   
  13 C13           -6.1750     2.0447     0.0591 C.2     
  14 C14           -8.4290     2.3113    -0.9004 C.3     
  15 C15           -8.7802     2.8707     0.4830 C.3     
  16 O16           -7.6780     3.6020     1.0101 O.3     
  17 N17           -6.4082     3.0004     0.8927 N.2     
  18 C18           -8.2691     3.4447    -1.8807 C.ar    
  19 C19           -9.3347     4.2848    -2.1449 C.ar    
  20 C20           -7.0553     3.6470    -2.5107 C.ar    
  21 C21           -6.9073     4.6866    -3.4092 C.ar    
  22 C22           -7.9754     5.5254    -3.6786 C.ar    
  23 C23           -9.1892     5.3248    -3.0434 C.ar    
  24 O24            1.1511     2.0511     0.1125 O.3     
  25 N25            1.2033    -0.7058     0.4124 N.pl3   
  26 C26            2.2623    -0.5847    -0.4292 C.2     
  27 C27            1.0691     3.4693    -0.0429 C.3     
  28 C28            1.5530    -1.6227     1.3695 C.2     
  29 C29            2.8028    -2.0322     1.0792 C.2     
  30 N30            3.2108    -1.3837    -0.0216 N.2     
  31 C31            3.6055    -3.0417     1.8587 C.3     
  32 C32           -5.7404    -1.8509    -1.4889 C.3     
  33 C33           -4.6803    -2.6706    -0.7374 C.3     
  34 P34           -5.3748    -3.0914     0.9060 P.3     
  35 O35           -6.1110    -1.7510     1.4540 O.3     
  36 C36           -6.9170    -0.9728     0.5525 C.3     
  37 O37           -6.4425    -4.2880     0.7636 O.3     
  38 O38           -4.2881    -3.4867     1.8296 O.2     
  39 C39           -7.0750    -4.9045     1.8869 C.3     
  40 C40           -9.5402     1.3722    -1.3739 C.3     
  41 O41          -10.7661     2.0990    -1.4776 O.3     
  42 F42           -7.8318     6.5420    -4.5567 F       
  43 H43           -1.2025    -1.7934     0.5005 H       
  44 H44           -3.3428    -0.5974     0.3434 H       
  45 H45           -1.2302     3.1214    -0.0291 H       
  46 H46           -3.7252     3.1390     0.0556 H       
  47 H47           -6.3282     0.6062    -2.4504 H       
  48 H48           -7.8379    -0.1188    -1.8386 H       
  49 H49           -9.6437     3.5303     0.3975 H       
  50 H50           -9.0220     2.0473     1.1550 H       
  51 H51          -10.2814     4.1282    -1.6494 H       
  52 H52           -6.2223     2.9925    -2.3004 H       
  53 H53           -5.9587     4.8448    -3.9007 H       
  54 H54          -10.0231     5.9783    -3.2530 H       
  55 H55            2.3114     0.0638    -1.2915 H       
  56 H56            0.5238     3.8961     0.7989 H       
  57 H57            2.0741     3.8899    -0.0756 H       
  58 H58            0.5468     3.7035    -0.9705 H       
  59 H59            0.9434    -1.9532     2.1974 H       
  60 H60            3.4162    -4.0397     1.4636 H       
  61 H61            4.6667    -2.8102     1.7681 H       
  62 H62            3.3140    -3.0052     2.9084 H       
  63 H63           -6.6382    -2.4540    -1.6240 H       
  64 H64           -5.3494    -1.5562    -2.4627 H       
  65 H65           -4.4575    -3.5833    -1.2900 H       
  66 H66           -3.7727    -2.0794    -0.6155 H       
  67 H67           -7.2516    -0.0650     1.0545 H       
  68 H68           -7.7825    -1.5575     0.2409 H       
  69 H69           -6.3167    -5.3445     2.5346 H       
  70 H70           -7.6378    -4.1550     2.4435 H       
  71 H71           -7.7530    -5.6841     1.5396 H       
  72 H72           -9.2778     0.9614    -2.3489 H       
  73 H73           -9.6590     0.5596    -0.6573 H       
  74 H74          -11.5161     1.5651    -1.7734 H       
@<TRIPOS>BOND
   1    1    2 ar
   2    1   24 1
   3    1    6 ar
   4    2    3 ar
   5    2   25 1
   6    3    4 ar
   7    3   43 1
   8    4    5 ar
   9    4   44 1
  10    5    6 ar
  11    5    9 1
  12    6   45 1
  13    7    8 1
  14    7   10 1
  15    8    9 2
  16    8   13 1
  17    9   46 1
  18   10   11 1
  19   10   32 1
  20   10   36 1
  21   11   12 1
  22   11   47 1
  23   11   48 1
  24   12   13 1
  25   12   14 1
  26   13   17 2
  27   14   15 1
  28   14   18 1
  29   14   40 1
  30   15   16 1
  31   15   49 1
  32   15   50 1
  33   16   17 1
  34   18   19 ar
  35   18   20 ar
  36   19   23 ar
  37   19   51 1
  38   20   21 ar
  39   20   52 1
  40   21   22 ar
  41   21   53 1
  42   22   23 ar
  43   22   42 1
  44   23   54 1
  45   24   27 1
  46   25   26 1
  47   25   28 1
  48   26   30 2
  49   26   55 1
  50   27   56 1
  51   27   57 1
  52   27   58 1
  53   28   29 2
  54   28   59 1
  55   29   30 1
  56   29   31 1
  57   31   60 1
  58   31   61 1
  59   31   62 1
  60   32   33 1
  61   32   63 1
  62   32   64 1
  63   33   34 1
  64   33   65 1
  65   33   66 1
  66   34   35 1
  67   34   37 1
  68   34   38 2
  69   35   36 1
  70   36   67 1
  71   36   68 1
  72   37   39 1
  73   39   69 1
  74   39   70 1
  75   39   71 1
  76   40   41 1
  77   40   72 1
  78   40   73 1
  79   41   74 1

#	End of record

