#	Name: ASD08151306
#	Creating user name:	WinNT
#	Creation time:	15. 06. 2019 21:17

#	Modifying user name:	WinNT
#	Modification time:	15. 06. 2019 21:17

#	Program:	/corina/corina34_cracker 3.40 0067  02.08.2006

@<TRIPOS>MOLECULE
ASD08151306
  64   69    0    0    0
SMALL
NO_CHARGES


@<TRIPOS>ATOM
   1 C1            -0.0688     1.9257    -0.8137 C.ar    
   2 C2            -0.0455     0.5382    -0.7264 C.ar    
   3 C3            -1.2039    -0.1741    -0.5109 C.ar    
   4 C4            -2.4178     0.5023    -0.3777 C.ar    
   5 C5            -2.4391     1.9123    -0.4663 C.ar    
   6 C6            -1.2561     2.6165    -0.6796 C.ar    
   7 N7            -3.5820    -0.1615    -0.1650 N.2     
   8 C8            -4.7111     0.4669    -0.0414 C.2     
   9 N9            -4.8251     1.8212    -0.1134 N.am    
  10 C10           -3.7337     2.5939    -0.3221 C.2     
  11 C11           -6.0828     2.4205     0.0303 C.ar    
  12 C12           -6.4703     2.9359     1.2589 C.ar    
  13 C13           -7.7159     3.5284     1.3973 C.ar    
  14 C14           -8.5719     3.6047     0.3078 C.ar    
  15 C15           -8.1841     3.0907    -0.9152 C.ar    
  16 C16           -5.9592    -0.3445     0.1931 C.3     
  17 N17           -6.2199    -1.1884    -0.9756 N.pl3   
  18 O18           -3.8208     3.8062    -0.3887 O.2     
  19 C19           -6.9415     2.5048    -1.0584 C.ar    
  20 C20           -5.7688    -1.2278     1.4278 C.3     
  21 C21           -7.5078    -1.6163    -1.2468 C.ar    
  22 C22           -7.7761    -2.4261    -2.3633 C.ar    
  23 C23           -9.1036    -2.8294    -2.5865 C.ar    
  24 N24          -10.0496    -2.4342    -1.7410 N.ar    
  25 C25           -9.7513    -1.6755    -0.7074 C.ar    
  26 N26           -8.5187    -1.2752    -0.4542 N.ar    
  27 N27           -7.0247    -2.9590    -3.3565 N.2     
  28 C28           -7.7876    -3.6468    -4.1556 C.2     
  29 N29           -9.0794    -3.5975    -3.7231 N.pl3   
  30 C30           -1.2744     4.1203    -0.7747 C.3     
  31 O31           -8.0987     4.0338     2.5994 O.3     
  32 C32           -9.4300     4.5442     2.6943 C.3     
  33 C33           -9.9088     4.4583     4.1468 C.3     
  34 C34          -11.3054     5.0790     4.2500 C.3     
  35 C35          -11.2533     6.5214     3.7397 C.3     
  36 O36          -10.7709     6.5323     2.3946 O.3     
  37 C37           -9.4504     6.0072     2.2441 C.3     
  38 F38            1.0805     2.6033    -1.0261 F       
  39 H39            0.8925     0.0129    -0.8292 H       
  40 H40           -1.1735    -1.2517    -0.4456 H       
  41 H41           -5.8029     2.8753     2.1058 H       
  42 H42           -9.5424     4.0659     0.4157 H       
  43 H43           -8.8521     3.1514    -1.7617 H       
  44 H44           -6.8037     0.3259     0.3528 H       
  45 H45           -5.4898    -1.4474    -1.5594 H       
  46 H46           -6.6407     2.1042    -2.0152 H       
  47 H47           -4.8814    -1.8473     1.2980 H       
  48 H48           -5.6468    -0.5985     2.3094 H       
  49 H49           -6.6425    -1.8668     1.5556 H       
  50 H50          -10.5438    -1.3719    -0.0394 H       
  51 H51           -7.4475    -4.1782    -5.0321 H       
  52 H52           -9.8417    -4.0268    -4.1421 H       
  53 H53           -1.2143     4.5485     0.2258 H       
  54 H54           -0.4229     4.4574    -1.3659 H       
  55 H55           -2.1992     4.4429    -1.2530 H       
  56 H56          -10.0915     3.9569     2.0574 H       
  57 H57           -9.9501     3.4139     4.4560 H       
  58 H58           -9.2189     5.0036     4.7909 H       
  59 H59          -12.0054     4.5034     3.6444 H       
  60 H60          -11.6310     5.0722     5.2902 H       
  61 H61          -12.2531     6.9543     3.7708 H       
  62 H62          -10.5839     7.1062     4.3707 H       
  63 H63           -8.7574     6.5853     2.8554 H       
  64 H64           -9.1514     6.0698     1.1977 H       
@<TRIPOS>BOND
   1    1    2 ar
   2    1   38 1
   3    1    6 ar
   4    2    3 ar
   5    2   39 1
   6    3    4 ar
   7    3   40 1
   8    4    5 ar
   9    4    7 1
  10    5    6 ar
  11    5   10 1
  12    6   30 1
  13    7    8 2
  14    8    9 1
  15    8   16 1
  16    9   10 am
  17    9   11 1
  18   10   18 2
  19   11   12 ar
  20   11   19 ar
  21   12   13 ar
  22   12   41 1
  23   13   14 ar
  24   13   31 1
  25   14   15 ar
  26   14   42 1
  27   15   19 ar
  28   15   43 1
  29   16   17 1
  30   16   20 1
  31   16   44 1
  32   17   21 1
  33   17   45 1
  34   19   46 1
  35   20   47 1
  36   20   48 1
  37   20   49 1
  38   21   22 ar
  39   21   26 ar
  40   22   23 ar
  41   22   27 1
  42   23   24 ar
  43   23   29 1
  44   24   25 ar
  45   25   26 ar
  46   25   50 1
  47   27   28 2
  48   28   29 1
  49   28   51 1
  50   29   52 1
  51   30   53 1
  52   30   54 1
  53   30   55 1
  54   31   32 1
  55   32   33 1
  56   32   37 1
  57   32   56 1
  58   33   34 1
  59   33   57 1
  60   33   58 1
  61   34   35 1
  62   34   59 1
  63   34   60 1
  64   35   36 1
  65   35   61 1
  66   35   62 1
  67   36   37 1
  68   37   63 1
  69   37   64 1

#	End of record

