#	Name: ASD01815990
#	Creating user name:	WinNT
#	Creation time:	15. 06. 2019 19:34

#	Modifying user name:	WinNT
#	Modification time:	15. 06. 2019 19:34

#	Program:	/corina/corina34_cracker 3.40 0067  02.08.2006

@<TRIPOS>MOLECULE
ASD01815990
  49   54    0    0    0
SMALL
NO_CHARGES


@<TRIPOS>ATOM
   1 C1            -0.1569     1.2236     0.2057 C.ar    
   2 C2            -0.0793    -0.1596     0.1897 C.ar    
   3 C3             1.1430    -0.7944     0.1119 C.ar    
   4 C4             2.3134    -0.0466     0.0486 C.ar    
   5 C5             2.2314     1.3558     0.0650 C.ar    
   6 C6             0.9929     1.9841     0.1437 C.ar    
   7 N7             3.5431    -0.6774    -0.0291 N.pl3   
   8 C8             4.7054    -0.0082    -0.0922 C.2     
   9 C9             4.7500     1.3638    -0.0840 C.2     
  10 C10            3.4855     2.1299    -0.0031 C.2     
  11 C11            5.8034     2.3727    -0.1387 C.2     
  12 N12            5.1804     3.5700    -0.0931 N.am    
  13 N13            3.7967     3.3942    -0.0123 N.2     
  14 C14            5.8290     4.8112    -0.1222 C.ar    
  15 O15            7.0053     2.1741    -0.2106 O.2     
  16 C16            3.5779    -2.1419    -0.0427 C.3     
  17 C17            6.1733     5.3881    -1.3373 C.ar    
  18 C18            6.8128     6.6121    -1.3629 C.ar    
  19 C19            7.1114     7.2639    -0.1803 C.ar    
  20 C20            6.7707     6.6937     1.0324 C.ar    
  21 C21            6.1246     5.4712     1.0657 C.ar    
  22 F22            5.7913     4.9141     2.2505 F       
  23 C23            3.4314    -2.6348    -1.4593 C.ar    
  24 C24            3.4775    -4.0099    -1.7550 C.ar    
  25 C25            3.3352    -4.4282    -3.1015 C.ar    
  26 N26            3.1610    -3.5190    -4.0655 N.ar    
  27 C27            3.1181    -2.2371    -3.7937 C.ar    
  28 C28            3.2446    -1.7595    -2.4914 C.ar    
  29 C29            3.6613    -4.9693    -0.7461 C.ar    
  30 C30            3.7006    -6.2902    -1.0729 C.ar    
  31 C31            3.5613    -6.7039    -2.3964 C.ar    
  32 C32            3.3809    -5.8017    -3.3989 C.ar    
  33 H33           -1.1204     1.7082     0.2624 H       
  34 H34           -0.9846    -0.7466     0.2390 H       
  35 H35            1.1908    -1.8733     0.1006 H       
  36 H36            0.9315     3.0623     0.1559 H       
  37 H37            5.6296    -0.5640    -0.1505 H       
  38 H38            4.5280    -2.4866     0.3655 H       
  39 H39            2.7597    -2.5305     0.5636 H       
  40 H40            5.9415     4.8801    -2.2617 H       
  41 H41            7.0806     7.0607    -2.3081 H       
  42 H42            7.6122     8.2205    -0.2040 H       
  43 H43            7.0056     7.2052     1.9542 H       
  44 H44            2.9757    -1.5332    -4.6003 H       
  45 H45            3.2047    -0.6975    -2.2989 H       
  46 H46            3.7711    -4.6609     0.2831 H       
  47 H47            3.8420    -7.0273    -0.2964 H       
  48 H48            3.5964    -7.7577    -2.6301 H       
  49 H49            3.2748    -6.1392    -4.4193 H       
@<TRIPOS>BOND
   1    1    2 ar
   2    1    6 ar
   3    1   33 1
   4    2    3 ar
   5    2   34 1
   6    3    4 ar
   7    3   35 1
   8    4    5 ar
   9    4    7 1
  10    5    6 ar
  11    5   10 1
  12    6   36 1
  13    7    8 1
  14    7   16 1
  15    8    9 2
  16    8   37 1
  17    9   10 1
  18    9   11 1
  19   10   13 2
  20   11   12 am
  21   11   15 2
  22   12   13 1
  23   12   14 1
  24   14   17 ar
  25   14   21 ar
  26   16   23 1
  27   16   38 1
  28   16   39 1
  29   17   18 ar
  30   17   40 1
  31   18   19 ar
  32   18   41 1
  33   19   20 ar
  34   19   42 1
  35   20   21 ar
  36   20   43 1
  37   21   22 1
  38   23   24 ar
  39   23   28 ar
  40   24   25 ar
  41   24   29 ar
  42   25   26 ar
  43   25   32 ar
  44   26   27 ar
  45   27   28 ar
  46   27   44 1
  47   28   45 1
  48   29   30 ar
  49   29   46 1
  50   30   31 ar
  51   30   47 1
  52   31   32 ar
  53   31   48 1
  54   32   49 1

#	End of record

