#	Name: ASD06170026
#	Creating user name:	WinNT
#	Creation time:	15. 06. 2019 21:05

#	Modifying user name:	WinNT
#	Modification time:	15. 06. 2019 21:05

#	Program:	/corina/corina34_cracker 3.40 0067  02.08.2006

@<TRIPOS>MOLECULE
ASD06170026
  64   69    0    0    0
SMALL
NO_CHARGES


@<TRIPOS>ATOM
   1 N1             0.8132     0.6856    -0.2397 N.pl3   
   2 N2             0.6500    -0.4322    -1.0630 N.am    
   3 C3             1.8601    -0.8338    -1.5008 C.2     
   4 C4             2.8508     0.0834    -0.9213 C.2     
   5 C5             2.1367     1.0006    -0.1509 C.2     
   6 C6             4.3031     0.0425    -1.1148 C.2     
   7 O7             5.0028     0.9283    -0.6597 O.2     
   8 N8             4.8637    -0.9759    -1.7967 N.am    
   9 C9             2.7130     2.1173     0.6253 C.ar    
  10 C10            2.2994     3.4286     0.3795 C.ar    
  11 N11            3.6247     1.8770     1.5654 N.ar    
  12 N12            2.8182     4.4229     1.0764 N.ar    
  13 C13            3.7268     4.1782     2.0045 C.ar    
  14 C14            4.1363     2.8765     2.2554 C.ar    
  15 C15           -0.5707    -1.0363    -1.3805 C.ar    
  16 C16           -0.8615    -1.3676    -2.6975 C.ar    
  17 C17           -2.0677    -1.9645    -3.0077 C.ar    
  18 C18           -2.9855    -2.2323    -2.0085 C.ar    
  19 C19           -2.6991    -1.9037    -0.6962 C.ar    
  20 C20           -1.4925    -1.3114    -0.3786 C.ar    
  21 O21            2.0884    -1.7768    -2.2356 O.2     
  22 C22            6.2522    -1.0870    -1.8677 C.ar    
  23 C23            7.0433     0.0382    -1.6639 C.ar    
  24 C24            8.4191    -0.0832    -1.7362 C.ar    
  25 C25            8.9611    -1.3363    -2.0120 C.ar    
  26 C26            8.1107    -2.4133    -2.2038 C.ar    
  27 N27            6.8024    -2.2631    -2.1228 N.ar    
  28 O28           10.3084    -1.5007    -2.0925 O.3     
  29 N29           12.4340    -1.6452     1.4388 N.ar    
  30 C30           11.1225    -1.5988     1.4592 C.ar    
  31 C31           10.3733    -1.5492     0.2907 C.ar    
  32 C32           11.0139    -1.5481    -0.9360 C.ar    
  33 C33           12.4264    -1.5983    -0.9461 C.ar    
  34 C34           13.1456    -1.6000    -2.1502 C.ar    
  35 C35           14.5054    -1.6485    -2.1269 C.ar    
  36 C36           15.1985    -1.6974    -0.9140 C.ar    
  37 C37           14.5214    -1.6971     0.2845 C.ar    
  38 C38           13.1183    -1.6472     0.2887 C.ar    
  39 O39           16.5560    -1.7462    -0.9180 O.3     
  40 C40           17.2014    -1.7443    -2.1930 C.3     
  41 C41           -0.2733     1.4122     0.4219 C.3     
  42 H42            4.3015    -1.6317    -2.2381 H       
  43 H43            1.5572     3.6288    -0.3791 H       
  44 H44            4.1491     4.9941     2.5723 H       
  45 H45            4.8758     2.6818     3.0180 H       
  46 H46           -0.1453    -1.1584    -3.4784 H       
  47 H47           -2.2946    -2.2221    -4.0317 H       
  48 H48           -3.9281    -2.6989    -2.2537 H       
  49 H49           -3.4180    -2.1141     0.0818 H       
  50 H50           -1.2676    -1.0590     0.6471 H       
  51 H51            6.5892     0.9949    -1.4523 H       
  52 H52            9.0584     0.7736    -1.5826 H       
  53 H53            8.5237    -3.3879    -2.4184 H       
  54 H54           10.6118    -1.5992     2.4108 H       
  55 H55            9.2950    -1.5123     0.3393 H       
  56 H56           12.6214    -1.5632    -3.0937 H       
  57 H57           15.0554    -1.6497    -3.0564 H       
  58 H58           15.0663    -1.7355     1.2162 H       
  59 H59           18.2817    -1.7859    -2.0534 H       
  60 H60           16.8755    -2.6120    -2.7665 H       
  61 H61           16.9395    -0.8335    -2.7314 H       
  62 H62           -1.2315     1.0004     0.1050 H       
  63 H63           -0.1735     1.3100     1.5025 H       
  64 H64           -0.2234     2.4667     0.1505 H       
@<TRIPOS>BOND
   1    1    2 1
   2    1    5 1
   3    1   41 1
   4    2    3 am
   5    2   15 1
   6    3    4 1
   7    3   21 2
   8    4    5 2
   9    4    6 1
  10    5    9 1
  11    6    7 2
  12    6    8 am
  13    8   22 1
  14    8   42 1
  15    9   10 ar
  16    9   11 ar
  17   10   12 ar
  18   10   43 1
  19   11   14 ar
  20   12   13 ar
  21   13   14 ar
  22   13   44 1
  23   14   45 1
  24   15   16 ar
  25   15   20 ar
  26   16   17 ar
  27   16   46 1
  28   17   18 ar
  29   17   47 1
  30   18   19 ar
  31   18   48 1
  32   19   20 ar
  33   19   49 1
  34   20   50 1
  35   22   23 ar
  36   22   27 ar
  37   23   24 ar
  38   23   51 1
  39   24   25 ar
  40   24   52 1
  41   25   26 ar
  42   25   28 1
  43   26   27 ar
  44   26   53 1
  45   28   32 1
  46   29   30 ar
  47   29   38 ar
  48   30   31 ar
  49   30   54 1
  50   31   32 ar
  51   31   55 1
  52   32   33 ar
  53   33   34 ar
  54   33   38 ar
  55   34   35 ar
  56   34   56 1
  57   35   36 ar
  58   35   57 1
  59   36   37 ar
  60   36   39 1
  61   37   38 ar
  62   37   58 1
  63   39   40 1
  64   40   59 1
  65   40   60 1
  66   40   61 1
  67   41   62 1
  68   41   63 1
  69   41   64 1

#	End of record

