#	Name: ASD01150969
#	Creating user name:	WinNT
#	Creation time:	15. 06. 2019 19:05

#	Modifying user name:	WinNT
#	Modification time:	15. 06. 2019 19:05

#	Program:	/corina/corina34_cracker 3.40 0067  02.08.2006

@<TRIPOS>MOLECULE
ASD01150969
  17   16    0    0    0
SMALL
NO_CHARGES


@<TRIPOS>ATOM
   1 N1            -0.0178     1.4648     0.0101 N.3     
   2 C2             0.0021    -0.0041     0.0020 C.3     
   3 C3            -1.4074    -0.5262     0.1106 C.2     
   4 C4             0.6061    -0.4797    -1.2532 C.1     
   5 N5             1.0723    -0.8467    -2.2220 N.1     
   6 O6            -1.6270    -1.7851     0.5212 O.3     
   7 O7            -2.3398     0.1885    -0.1718 O.2     
   8 C8            -3.0099    -2.2204     0.6020 C.3     
   9 C9            -3.0605    -3.6714     1.0846 C.3     
  10 H10            0.9191     1.8392     0.0032 H       
  11 H11           -0.5563     1.8234    -0.7642 H       
  12 H12            0.5890    -0.3641     0.8470 H       
  13 H13           -3.5503    -1.5851     1.3037 H       
  14 H14           -3.4715    -2.1487    -0.3828 H       
  15 H15           -4.0986    -3.9981     1.1453 H       
  16 H16           -2.5200    -4.3067     0.3829 H       
  17 H17           -2.5988    -3.7430     2.0694 H       
@<TRIPOS>BOND
   1    1    2 1
   2    1   10 1
   3    1   11 1
   4    2    3 1
   5    2    4 1
   6    2   12 1
   7    3    6 1
   8    3    7 2
   9    4    5 3
  10    6    8 1
  11    8    9 1
  12    8   13 1
  13    8   14 1
  14    9   15 1
  15    9   16 1
  16    9   17 1

#	End of record

