#	Name: ASD03331189
#	Creating user name:	WinNT
#	Creation time:	15. 06. 2019 20:38

#	Modifying user name:	WinNT
#	Modification time:	15. 06. 2019 20:38

#	Program:	/corina/corina34_cracker 3.40 0067  02.08.2006

@<TRIPOS>MOLECULE
ASD03331189
  58   61    0    0    0
SMALL
NO_CHARGES


@<TRIPOS>ATOM
   1 N1            -0.3055     1.6539     0.4188 N.am    
   2 C2            -0.2555     0.3553     1.1073 C.3     
   3 C3             0.3580    -0.6771     0.1555 C.3     
   4 N4             1.6526    -0.1816    -0.3307 N.3     
   5 C5             1.4914     1.0504    -1.1143 C.3     
   6 C6             0.9244     2.1536    -0.2145 C.3     
   7 C7            -1.4493     2.3646     0.3646 C.2     
   8 O8            -2.4803     1.8915     0.8024 O.2     
   9 N9            -1.4504     3.5998    -0.1747 N.am    
  10 C10           -2.6593     4.2773    -0.3692 C.ar    
  11 C11           -2.7096     5.6598    -0.2476 C.ar    
  12 C12           -3.9041     6.3256    -0.4406 C.ar    
  13 C13           -5.0494     5.6171    -0.7546 C.ar    
  14 C14           -5.0027     4.2404    -0.8764 C.ar    
  15 C15           -3.8101     3.5692    -0.6898 C.ar    
  16 C16            2.3524    -1.2126    -1.1088 C.3     
  17 C17            3.5481    -0.6010    -1.7923 C.ar    
  18 C18            4.7735    -0.5800    -1.1526 C.ar    
  19 C19            5.8728    -0.0199    -1.7773 C.ar    
  20 C20            5.7491     0.5202    -3.0424 C.ar    
  21 C21            4.5201     0.5005    -3.6868 C.ar    
  22 C22            3.4200    -0.0668    -3.0600 C.ar    
  23 C23            5.7946     2.8255    -5.6268 C.ar    
  24 C24            5.5223     1.4671    -5.5551 C.ar    
  25 O25            4.3955     1.0316    -4.9313 O.3     
  26 C26            6.9391     3.2678    -6.2609 C.ar    
  27 C27            7.8162     2.3539    -6.8262 C.ar    
  28 C28            7.5440     0.9957    -6.7546 C.ar    
  29 C29            6.3996     0.5532    -6.1205 C.ar    
  30 O30            8.9427     2.7896    -7.4509 O.3     
  31 C31            9.8008     1.7932    -8.0103 C.3     
  32 H32            0.3603     0.4391     2.0028 H       
  33 H33           -1.2645     0.0468     1.3810 H       
  34 H34            0.5045    -1.6184     0.6852 H       
  35 H35           -0.3116    -0.8355    -0.6899 H       
  36 H36            2.4599     1.3620    -1.5054 H       
  37 H37            0.8061     0.8680    -1.9420 H       
  38 H38            0.6955     3.0342    -0.8147 H       
  39 H39            1.6536     2.4103     0.5539 H       
  40 H40           -0.6132     4.0191    -0.4281 H       
  41 H41           -1.8155     6.2137    -0.0020 H       
  42 H42           -3.9439     7.4007    -0.3458 H       
  43 H43           -5.9823     6.1400    -0.9047 H       
  44 H44           -5.8988     3.6899    -1.1218 H       
  45 H45           -3.7733     2.4945    -0.7895 H       
  46 H46            2.6830    -2.0090    -0.4421 H       
  47 H47            1.6761    -1.6236    -1.8584 H       
  48 H48            4.8723    -1.0015    -0.1632 H       
  49 H49            6.8289    -0.0045    -1.2752 H       
  50 H50            6.6078     0.9578    -3.5296 H       
  51 H51            2.4624    -0.0834    -3.5593 H       
  52 H52            5.1095     3.5373    -5.1906 H       
  53 H53            7.1510     4.3254    -6.3170 H       
  54 H54            8.2268     0.2842    -7.1951 H       
  55 H55            6.1878    -0.5044    -6.0645 H       
  56 H56           10.6600     2.2745    -8.4775 H       
  57 H57           10.1437     1.1242    -7.2211 H       
  58 H58            9.2532     1.2210    -8.7592 H       
@<TRIPOS>BOND
   1    1    2 1
   2    1    6 1
   3    1    7 am
   4    2    3 1
   5    2   32 1
   6    2   33 1
   7    3    4 1
   8    3   34 1
   9    3   35 1
  10    4    5 1
  11    4   16 1
  12    5    6 1
  13    5   36 1
  14    5   37 1
  15    6   38 1
  16    6   39 1
  17    7    8 2
  18    7    9 am
  19    9   10 1
  20    9   40 1
  21   10   11 ar
  22   10   15 ar
  23   11   12 ar
  24   11   41 1
  25   12   13 ar
  26   12   42 1
  27   13   14 ar
  28   13   43 1
  29   14   15 ar
  30   14   44 1
  31   15   45 1
  32   16   17 1
  33   16   46 1
  34   16   47 1
  35   17   18 ar
  36   17   22 ar
  37   18   19 ar
  38   18   48 1
  39   19   20 ar
  40   19   49 1
  41   20   21 ar
  42   20   50 1
  43   21   22 ar
  44   21   25 1
  45   22   51 1
  46   23   24 ar
  47   23   26 ar
  48   23   52 1
  49   24   25 1
  50   24   29 ar
  51   26   27 ar
  52   26   53 1
  53   27   28 ar
  54   27   30 1
  55   28   29 ar
  56   28   54 1
  57   29   55 1
  58   30   31 1
  59   31   56 1
  60   31   57 1
  61   31   58 1

#	End of record

