#	Name: ASD01420133
#	Creating user name:	WinNT
#	Creation time:	15. 06. 2019 19:20

#	Modifying user name:	WinNT
#	Modification time:	15. 06. 2019 19:20

#	Program:	/corina/corina34_cracker 3.40 0067  02.08.2006

@<TRIPOS>MOLECULE
ASD01420133
  50   53    0    0    0
SMALL
NO_CHARGES


@<TRIPOS>ATOM
   1 O1             1.6259     0.9319     0.9358 O.3     
   2 C2             1.3096    -0.3125     0.5216 C.ar    
   3 C3             0.5154    -0.1854    -0.6316 C.ar    
   4 C4             0.3872     1.2547    -0.8672 C.2     
   5 C5             1.0860     1.8607     0.1224 C.2     
   6 C6             1.6120    -1.5799     1.0024 C.ar    
   7 C7             1.1347    -2.6968     0.3502 C.ar    
   8 C8             0.3502    -2.5717    -0.7888 C.ar    
   9 C9             0.0378    -1.3239    -1.2829 C.ar    
  10 C10            1.2341     3.3219     0.2856 C.ar    
  11 C11            0.1159     4.1532     0.1957 C.ar    
  12 C12            0.2581     5.5156     0.3490 C.ar    
  13 C13            1.5116     6.0618     0.5922 C.ar    
  14 C14            2.6264     5.2385     0.6819 C.ar    
  15 C15            2.4916     3.8745     0.5359 C.ar    
  16 O16            1.6477     7.4052     0.7423 O.3     
  17 C17           -0.3694     1.9261    -1.9843 C.3     
  18 C18            2.9651     7.9001     0.9902 C.3     
  19 C19            4.3099     9.9184     1.5800 C.3     
  20 C20            2.8906     9.3801     1.3747 C.3     
  21 O21            3.7585     7.7552    -0.1894 O.3     
  22 C22            5.1092     8.1983    -0.0423 C.3     
  23 C23            5.1207     9.6902     0.3006 C.3     
  24 O24            2.1462     9.5219     2.5862 O.3     
  25 C25            5.8666     7.9698    -1.3519 C.3     
  26 O26            4.5376    10.4315    -0.7729 O.3     
  27 O27            4.2538    11.3171     1.8673 O.3     
  28 O28            5.9552     6.5676    -1.6126 O.3     
  29 Cl29          -0.2394    -3.9927    -1.5930 Cl      
  30 H30            2.2214    -1.6905     1.8871 H       
  31 H31            1.3737    -3.6795     0.7290 H       
  32 H32           -0.5726    -1.2273    -2.1686 H       
  33 H33           -0.8592     3.7293     0.0059 H       
  34 H34           -0.6063     6.1593     0.2796 H       
  35 H35            3.5995     5.6671     0.8707 H       
  36 H36            3.3583     3.2344     0.6106 H       
  37 H37           -1.3679     2.1925    -1.6380 H       
  38 H38            0.1610     2.8274    -2.2919 H       
  39 H39           -0.4483     1.2442    -2.8309 H       
  40 H40            3.4184     7.3352     1.8048 H       
  41 H41            4.7826     9.3930     2.4098 H       
  42 H42            2.4007     9.9393     0.5775 H       
  43 H43            5.5905     7.6374     0.7588 H       
  44 H44            6.1478    10.0202     0.4566 H       
  45 H45            1.2360     9.2005     2.5284 H       
  46 H46            5.3355     8.4584    -2.1688 H       
  47 H47            6.8698     8.3881    -1.2691 H       
  48 H48            4.5077    11.3861    -0.6211 H       
  49 H49            3.7488    11.5353     2.6626 H       
  50 H50            6.4240     6.3483    -2.4294 H       
@<TRIPOS>BOND
   1    1    2 1
   2    1    5 1
   3    2    3 ar
   4    2    6 ar
   5    3    4 1
   6    3    9 ar
   7    4    5 2
   8    4   17 1
   9    5   10 1
  10    6    7 ar
  11    6   30 1
  12    7    8 ar
  13    7   31 1
  14    8    9 ar
  15    8   29 1
  16    9   32 1
  17   10   11 ar
  18   10   15 ar
  19   11   12 ar
  20   11   33 1
  21   12   13 ar
  22   12   34 1
  23   13   14 ar
  24   13   16 1
  25   14   15 ar
  26   14   35 1
  27   15   36 1
  28   16   18 1
  29   17   37 1
  30   17   38 1
  31   17   39 1
  32   18   21 1
  33   18   20 1
  34   18   40 1
  35   19   20 1
  36   19   23 1
  37   19   27 1
  38   19   41 1
  39   20   24 1
  40   20   42 1
  41   21   22 1
  42   22   23 1
  43   22   25 1
  44   22   43 1
  45   23   26 1
  46   23   44 1
  47   24   45 1
  48   25   28 1
  49   25   46 1
  50   25   47 1
  51   26   48 1
  52   27   49 1
  53   28   50 1

#	End of record

