#	Name: ASD01917607
#	Creating user name:	WinNT
#	Creation time:	15. 06. 2019 20:09

#	Modifying user name:	WinNT
#	Modification time:	15. 06. 2019 20:09

#	Program:	/corina/corina34_cracker 3.40 0067  02.08.2006

@<TRIPOS>MOLECULE
ASD01917607
  43   46    0    0    0
SMALL
NO_CHARGES


@<TRIPOS>ATOM
   1 C1             0.0790     1.5223    -0.2867 C.ar    
   2 C2             0.1136     0.1796    -0.6857 C.ar    
   3 C3             1.3136    -0.4268    -0.9071 C.ar    
   4 C4             2.5074     0.2718    -0.7418 C.ar    
   5 C5             2.5091     1.5768    -0.3553 C.ar    
   6 C6             1.2898     2.2358    -0.1176 C.ar    
   7 N7             1.2629     3.5175     0.2624 N.ar    
   8 C8             0.1348     4.1474     0.4879 C.ar    
   9 C9            -1.0974     3.5204     0.3457 C.ar    
  10 C10           -1.1492     2.1909    -0.0519 C.ar    
  11 C11           -2.4444     1.4929    -0.2201 C.ar    
  12 C12           -2.8530     0.5408     0.7140 C.ar    
  13 C13           -4.0603    -0.1065     0.5524 C.ar    
  14 C14           -4.8663     0.1874    -0.5347 C.ar    
  15 C15           -4.4654     1.1313    -1.4652 C.ar    
  16 C16           -3.2629     1.7891    -1.3102 C.ar    
  17 S17           -2.5856     4.4095     0.6609 S.o2    
  18 O18           -2.1958     5.7202     1.0473 O.2     
  19 O19           -3.4498     4.1473    -0.4362 O.2     
  20 C20           -3.3407     3.6779     2.0749 C.ar    
  21 C21           -2.9230     4.0342     3.3436 C.ar    
  22 C22           -3.5154     3.4602     4.4529 C.ar    
  23 C23           -4.5257     2.5303     4.2935 C.ar    
  24 C24           -4.9440     2.1747     3.0249 C.ar    
  25 C25           -4.3546     2.7519     1.9157 C.ar    
  26 C26           -5.1708     1.9038     5.5028 C.3     
  27 Cl27          -6.3845    -0.6310    -0.7318 Cl      
  28 H28           -0.8057    -0.3718    -0.8166 H       
  29 H29            1.3395    -1.4618    -1.2143 H       
  30 H30            3.4464    -0.2302    -0.9229 H       
  31 H31            3.4434     2.1042    -0.2313 H       
  32 H32            0.1642     5.1829     0.7932 H       
  33 H33           -2.2250     0.3106     1.5620 H       
  34 H34           -4.3775    -0.8440     1.2748 H       
  35 H35           -5.0977     1.3563    -2.3114 H       
  36 H36           -2.9534     2.5285    -2.0339 H       
  37 H37           -2.1337     4.7607     3.4681 H       
  38 H38           -3.1886     3.7380     5.4441 H       
  39 H39           -5.7331     1.4479     2.9004 H       
  40 H40           -4.6840     2.4768     0.9245 H       
  41 H41           -6.0238     2.5073     5.8133 H       
  42 H42           -5.5088     0.8978     5.2542 H       
  43 H43           -4.4465     1.8532     6.3158 H       
@<TRIPOS>BOND
   1    1    2 ar
   2    1    6 ar
   3    1   10 ar
   4    2    3 ar
   5    2   28 1
   6    3    4 ar
   7    3   29 1
   8    4    5 ar
   9    4   30 1
  10    5    6 ar
  11    5   31 1
  12    6    7 ar
  13    7    8 ar
  14    8    9 ar
  15    8   32 1
  16    9   10 ar
  17    9   17 1
  18   10   11 1
  19   11   12 ar
  20   11   16 ar
  21   12   13 ar
  22   12   33 1
  23   13   14 ar
  24   13   34 1
  25   14   15 ar
  26   14   27 1
  27   15   16 ar
  28   15   35 1
  29   16   36 1
  30   17   18 2
  31   17   20 1
  32   17   19 2
  33   20   21 ar
  34   20   25 ar
  35   21   22 ar
  36   21   37 1
  37   22   23 ar
  38   22   38 1
  39   23   24 ar
  40   23   26 1
  41   24   25 ar
  42   24   39 1
  43   25   40 1
  44   26   41 1
  45   26   42 1
  46   26   43 1

#	End of record

