#	Name: ASD03330957
#	Creating user name:	WinNT
#	Creation time:	15. 06. 2019 20:38

#	Modifying user name:	WinNT
#	Modification time:	15. 06. 2019 20:38

#	Program:	/corina/corina34_cracker 3.40 0067  02.08.2006

@<TRIPOS>MOLECULE
ASD03330957
  67   70    0    0    0
SMALL
NO_CHARGES


@<TRIPOS>ATOM
   1 N1            -0.1144     1.2727     0.4299 N.pl3   
   2 C2            -0.0296    -0.0794     0.3153 C.2     
   3 C3             1.2460    -0.8806     0.2992 C.3     
   4 N4             2.1114    -0.4314     1.4010 N.3     
   5 C5             2.9738     0.6747     0.9808 C.3     
   6 C6             2.2644     1.5638    -0.0365 C.3     
   7 C7             1.0186     2.1869     0.5990 C.3     
   8 C8            -1.4363     1.6056     0.3703 C.2     
   9 N9            -2.1401     0.5053     0.2426 N.2     
  10 C10           -1.3016    -0.5535     0.2082 C.2     
  11 C11           -1.6933    -1.9680     0.0778 C.2     
  12 O12           -0.8413    -2.8357     0.0584 O.2     
  13 N13           -2.9958    -2.3003    -0.0201 N.am    
  14 C14            2.9066    -1.5458     1.9338 C.3     
  15 C15           -4.7250    -3.7957    -0.8342 C.2     
  16 C16           -3.3853    -3.7066    -0.1498 C.3     
  17 C17           -3.4793    -4.3400     1.2398 C.3     
  18 C18           -4.0182    -5.7665     1.1146 C.3     
  19 N19           -4.9798    -4.8073    -1.6875 N.am    
  20 C20           -6.2724    -5.0784    -2.3334 C.3     
  21 C21           -6.0958    -6.3444    -3.1982 C.3     
  22 C22           -4.8710    -7.0409    -2.5487 C.3     
  23 C23           -4.0069    -5.8215    -2.1327 C.3     
  24 O24           -5.5739    -2.9571    -0.6171 O.2     
  25 C25           -2.0901    -4.3740     1.8798 C.3     
  26 C26           -4.4237    -3.5129     2.1144 C.3     
  27 C27           -1.9846     2.9776     0.4387 C.ar    
  28 C28           -2.9539     3.3926    -0.4785 C.ar    
  29 C29           -3.4621     4.6760    -0.4082 C.ar    
  30 C30           -3.0131     5.5479     0.5668 C.ar    
  31 C31           -2.0526     5.1425     1.4778 C.ar    
  32 C32           -1.5407     3.8611     1.4225 C.ar    
  33 F33           -3.3928     2.5416    -1.4316 F       
  34 Cl34          -1.4953     6.2455     2.6970 Cl      
  35 H35            1.0138    -1.9379     0.4262 H       
  36 H36            1.7586    -0.7306    -0.6510 H       
  37 H37            3.2414     1.2714     1.8529 H       
  38 H38            3.8813     0.2707     0.5322 H       
  39 H39            2.9406     2.3552    -0.3599 H       
  40 H40            1.9705     0.9649    -0.8985 H       
  41 H41            0.7968     3.1362     0.1114 H       
  42 H42            1.1964     2.3543     1.6613 H       
  43 H43           -3.6754    -1.6082    -0.0046 H       
  44 H44            3.4807    -2.0009     1.1267 H       
  45 H45            3.5877    -1.1730     2.6988 H       
  46 H46            2.2413    -2.2903     2.3711 H       
  47 H47           -2.6392    -4.2372    -0.7412 H       
  48 H48           -3.3048    -6.3771     0.5613 H       
  49 H49           -4.1634    -6.1886     2.1090 H       
  50 H50           -4.9704    -5.7499     0.5844 H       
  51 H51           -7.0366    -5.2508    -1.5756 H       
  52 H52           -6.5559    -4.2355    -2.9637 H       
  53 H53           -6.9790    -6.9802    -3.1359 H       
  54 H54           -5.8836    -6.0776    -4.2336 H       
  55 H55           -5.1701    -7.6267    -1.6796 H       
  56 H56           -4.3444    -7.6615    -3.2738 H       
  57 H57           -3.4351    -5.4509    -2.9835 H       
  58 H58           -3.3393    -6.0917    -1.3146 H       
  59 H59           -1.7062    -3.3577     1.9690 H       
  60 H60           -2.1571    -4.8252     2.8698 H       
  61 H61           -1.4173    -4.9632     1.2567 H       
  62 H62           -5.4135    -3.4887     1.6584 H       
  63 H63           -4.4907    -3.9642     3.1044 H       
  64 H64           -4.0398    -2.4967     2.2036 H       
  65 H65           -4.2110     4.9987    -1.1164 H       
  66 H66           -3.4133     6.5498     0.6176 H       
  67 H67           -0.7950     3.5450     2.1370 H       
@<TRIPOS>BOND
   1    1    2 1
   2    1    7 1
   3    1    8 1
   4    2    3 1
   5    2   10 2
   6    3    4 1
   7    3   35 1
   8    3   36 1
   9    4    5 1
  10    4   14 1
  11    5    6 1
  12    5   37 1
  13    5   38 1
  14    6    7 1
  15    6   39 1
  16    6   40 1
  17    7   41 1
  18    7   42 1
  19    8    9 2
  20    8   27 1
  21    9   10 1
  22   10   11 1
  23   11   12 2
  24   11   13 am
  25   13   16 1
  26   13   43 1
  27   14   44 1
  28   14   45 1
  29   14   46 1
  30   15   19 am
  31   15   24 2
  32   15   16 1
  33   16   17 1
  34   16   47 1
  35   17   18 1
  36   17   25 1
  37   17   26 1
  38   18   48 1
  39   18   49 1
  40   18   50 1
  41   19   20 1
  42   19   23 1
  43   20   21 1
  44   20   51 1
  45   20   52 1
  46   21   22 1
  47   21   53 1
  48   21   54 1
  49   22   23 1
  50   22   55 1
  51   22   56 1
  52   23   57 1
  53   23   58 1
  54   25   59 1
  55   25   60 1
  56   25   61 1
  57   26   62 1
  58   26   63 1
  59   26   64 1
  60   27   28 ar
  61   27   32 ar
  62   28   29 ar
  63   28   33 1
  64   29   30 ar
  65   29   65 1
  66   30   31 ar
  67   30   66 1
  68   31   32 ar
  69   31   34 1
  70   32   67 1

#	End of record

