#	Name: ASD03092462
#	Creating user name:	WinNT
#	Creation time:	15. 06. 2019 20:32

#	Modifying user name:	WinNT
#	Modification time:	15. 06. 2019 20:32

#	Program:	/corina/corina34_cracker 3.40 0067  02.08.2006

@<TRIPOS>MOLECULE
ASD03092462
  55   57    0    0    0
SMALL
NO_CHARGES


@<TRIPOS>ATOM
   1 C1             0.3377     2.0153     0.1445 C.2     
   2 C2             0.5540     0.5261     0.2242 C.3     
   3 C3             2.0547     0.2278     0.2208 C.3     
   4 O4             1.2900     2.7644     0.0902 O.2     
   5 N5            -0.9141     2.5145     0.1278 N.am    
   6 F6             2.6556     0.8460     1.3226 F       
   7 F7             2.2555    -1.1547     0.2948 F       
   8 F8             2.6251     0.7194    -0.9583 F       
   9 C9            -1.1244     3.9623     0.0503 C.3     
  10 S10           -4.9835     4.7562    -0.6387 S.3     
  11 C11           -4.5799     4.6083     1.0157 C.2     
  12 N12           -3.3134     4.3515     1.1494 N.2     
  13 C13           -2.6025     4.2557     0.0469 C.2     
  14 C14           -3.3091     4.4424    -1.0876 C.2     
  15 C15           -2.5485     5.3138    -4.6606 C.ar    
  16 C16           -3.0708     5.4006    -3.3883 C.ar    
  17 C17           -2.7735     4.3920    -2.4620 C.ar    
  18 C18           -1.9532     3.3345    -2.8772 C.ar    
  19 C19           -1.4749     3.3281    -4.1696 C.ar    
  20 N20           -1.7794     4.2994    -5.0103 N.ar    
  21 C21           -0.5917     2.1969    -4.6294 C.3     
  22 C22           -2.8652     6.3883    -5.6688 C.3     
  23 N23           -5.4737     4.7431     2.0624 N.3     
  24 C24           -6.8270     5.0318     1.5657 C.3     
  25 C25           -7.7695     5.2321     2.7555 C.3     
  26 O26           -7.7344     4.0684     3.5861 O.3     
  27 C27           -6.4316     3.7583     4.0879 C.3     
  28 C28           -5.4755     3.5431     2.9116 C.3     
  29 C29           -6.4991     2.4835     4.9312 C.3     
  30 C30           -9.1951     5.4535     2.2462 C.3     
  31 H31            0.1096     0.1431     1.1429 H       
  32 H32            0.0859     0.0444    -0.6342 H       
  33 H33           -1.6758     1.9152     0.1672 H       
  34 H34           -0.6604     4.4434     0.9113 H       
  35 H35           -0.6757     4.3460    -0.8660 H       
  36 H36           -3.6989     6.2336    -3.1092 H       
  37 H37           -1.6994     2.5369    -2.1947 H       
  38 H38           -1.2085     1.4000    -5.0448 H       
  39 H39            0.0956     2.5601    -5.3935 H       
  40 H40           -0.0232     1.8125    -3.7826 H       
  41 H41           -2.1141     7.1759    -5.6083 H       
  42 H42           -2.8615     5.9589    -6.6706 H       
  43 H43           -3.8488     6.8071    -5.4566 H       
  44 H44           -6.8069     5.9383     0.9607 H       
  45 H45           -7.1781     4.1966     0.9598 H       
  46 H46           -7.4491     6.1002     3.3315 H       
  47 H47           -6.0723     4.5835     4.7026 H       
  48 H48           -5.8051     2.6841     2.3272 H       
  49 H49           -4.4690     3.3627     3.2891 H       
  50 H50           -6.8566     1.6586     4.3149 H       
  51 H51           -5.5058     2.2476     5.3133 H       
  52 H52           -7.1828     2.6360     5.7663 H       
  53 H53           -9.5150     4.5840     1.6720 H       
  54 H54           -9.8657     5.5960     3.0937 H       
  55 H55           -9.2204     6.3383     1.6101 H       
@<TRIPOS>BOND
   1    1    2 1
   2    1    4 2
   3    1    5 am
   4    2    3 1
   5    2   31 1
   6    2   32 1
   7    3    6 1
   8    3    7 1
   9    3    8 1
  10    5    9 1
  11    5   33 1
  12    9   13 1
  13    9   34 1
  14    9   35 1
  15   10   11 1
  16   10   14 1
  17   11   12 2
  18   11   23 1
  19   12   13 1
  20   13   14 2
  21   14   17 1
  22   15   16 ar
  23   15   20 ar
  24   15   22 1
  25   16   17 ar
  26   16   36 1
  27   17   18 ar
  28   18   19 ar
  29   18   37 1
  30   19   20 ar
  31   19   21 1
  32   21   38 1
  33   21   39 1
  34   21   40 1
  35   22   41 1
  36   22   42 1
  37   22   43 1
  38   23   24 1
  39   23   28 1
  40   24   25 1
  41   24   44 1
  42   24   45 1
  43   25   26 1
  44   25   30 1
  45   25   46 1
  46   26   27 1
  47   27   28 1
  48   27   29 1
  49   27   47 1
  50   28   48 1
  51   28   49 1
  52   29   50 1
  53   29   51 1
  54   29   52 1
  55   30   53 1
  56   30   54 1
  57   30   55 1

#	End of record

