#	Name: ASD01884202
#	Creating user name:	WinNT
#	Creation time:	15. 06. 2019 19:47

#	Modifying user name:	WinNT
#	Modification time:	15. 06. 2019 19:47

#	Program:	/corina/corina34_cracker 3.40 0067  02.08.2006

@<TRIPOS>MOLECULE
ASD01884202
  34   37    0    0    0
SMALL
NO_CHARGES


@<TRIPOS>ATOM
   1 S1            -0.0219     1.7672     0.0118 S.3     
   2 C2             0.0021    -0.0041     0.0020 C.2     
   3 N3             1.2907    -0.3576    -0.0122 N.am    
   4 C4             2.2515     0.6352    -0.0160 C.ar    
   5 C5             1.7392     1.9352    -0.0042 C.ar    
   6 C6             2.5665     3.0400    -0.0061 C.ar    
   7 C7             3.9506     2.8696    -0.0203 C.ar    
   8 C8             4.4770     1.5761    -0.0322 C.ar    
   9 C9             3.6481     0.4828    -0.0306 C.ar    
  10 O10           -0.9607    -0.7487     0.0076 O.2     
  11 C11            4.8505     4.0451    -0.0230 C.ar    
  12 C12            5.3083     6.1972    -0.6733 C.ar    
  13 C13            6.5193     6.1501     0.0032 C.ar    
  14 N14            6.8809     5.0585     0.6480 N.ar    
  15 C15            6.0808     3.9958     0.6577 C.ar    
  16 C16            1.6771    -1.7707    -0.0230 C.3     
  17 C17            1.7983    -2.2552    -1.4692 C.3     
  18 C18            2.3088    -3.6795    -1.6966 C.3     
  19 C19            0.8334    -3.3491    -1.9309 C.3     
  20 F20            3.1065    -3.9077    -2.8230 F       
  21 F21            2.6290    -4.4391    -0.5662 F       
  22 N22            4.5031     5.1516    -0.6735 N.ar    
  23 C23            6.4693     2.8084     1.3575 C.1     
  24 N24            6.7775     1.8665     1.9127 N.1     
  25 H25            2.1432     4.0335     0.0029 H       
  26 H26            5.5477     1.4349    -0.0432 H       
  27 H27            4.0753    -0.5091    -0.0400 H       
  28 H28            5.0213     7.0961    -1.1985 H       
  29 H29            7.1715     7.0110    -0.0029 H       
  30 H30            2.6361    -1.8889     0.4814 H       
  31 H31            0.9193    -2.3586     0.4949 H       
  32 H32            2.0844    -1.4959    -2.1970 H       
  33 H33            0.1122    -3.7235    -1.2044 H       
  34 H34            0.4843    -3.3095    -2.9627 H       
@<TRIPOS>BOND
   1    1    2 1
   2    1    5 1
   3    2    3 am
   4    2   10 2
   5    3    4 1
   6    3   16 1
   7    4    5 ar
   8    4    9 ar
   9    5    6 ar
  10    6    7 ar
  11    6   25 1
  12    7    8 ar
  13    7   11 1
  14    8    9 ar
  15    8   26 1
  16    9   27 1
  17   11   22 ar
  18   11   15 ar
  19   12   13 ar
  20   12   22 ar
  21   12   28 1
  22   13   14 ar
  23   13   29 1
  24   14   15 ar
  25   15   23 1
  26   16   17 1
  27   16   30 1
  28   16   31 1
  29   17   18 1
  30   17   19 1
  31   17   32 1
  32   18   19 1
  33   18   20 1
  34   18   21 1
  35   19   33 1
  36   19   34 1
  37   23   24 3

#	End of record

