#	Name: ASD05740129
#	Creating user name:	WinNT
#	Creation time:	15. 06. 2019 21:02

#	Modifying user name:	WinNT
#	Modification time:	15. 06. 2019 21:02

#	Program:	/corina/corina34_cracker 3.40 0067  02.08.2006

@<TRIPOS>MOLECULE
ASD05740129
  52   53    0    0    0
SMALL
NO_CHARGES


@<TRIPOS>ATOM
   1 S1             0.0021     1.9837     0.0505 S.3     
   2 C2            -2.4300    -2.2988     0.9360 C.3     
   3 C3            -4.4070    -0.7012     0.8825 C.2     
   4 C4            -4.9716     0.4841     0.4462 C.2     
   5 C5            -3.0776    -1.0169     0.4797 C.2     
   6 C6            -2.3980    -0.1529    -0.3188 C.2     
   7 C7            -3.0152     1.0376    -0.7351 C.2     
   8 O8            -4.2668     1.3235    -0.3498 O.3     
   9 C9            -0.9907    -0.4701    -0.7545 C.3     
  10 C10            0.0009     0.1583     0.2268 C.3     
  11 C11            1.4361    -0.2744    -0.1133 C.3     
  12 O12           -2.4090     1.8161    -1.4518 O.2     
  13 C13            1.8258     2.1843     0.1888 C.3     
  14 C14            2.3178     0.9024    -0.5336 C.3     
  15 N15            2.2789     3.3904    -0.5085 N.am    
  16 S16            2.5613     4.7823     0.3430 S.o2    
  17 O17            3.0153     5.7441    -0.5994 O.2     
  18 O18            1.4250     4.9830     1.1722 O.2     
  19 S19           -6.6071     0.6347     1.0799 S.3     
  20 C20           -6.4961    -0.9006     1.9186 C.2     
  21 C21           -5.3134    -1.4631     1.7292 C.2     
  22 O22           -7.4919    -1.4397     2.6691 O.3     
  23 C23           -8.7053    -0.6917     2.7708 C.3     
  24 N24            3.8350     4.4857     1.3588 N.am    
  25 C25            5.1621     4.2030     0.8064 C.3     
  26 H26           -3.0910    -2.8110     1.6352 H       
  27 H27           -2.2461    -2.9399     0.0738 H       
  28 H28           -1.4845    -2.0728     1.4289 H       
  29 H29           -0.8502    -1.5509    -0.7708 H       
  30 H30           -0.8196    -0.0664    -1.7524 H       
  31 H31           -0.2492    -0.1234     1.2496 H       
  32 H32            1.8775    -0.7512     0.7619 H       
  33 H33            1.4028    -0.9988    -0.9271 H       
  34 H34            2.1428     2.1938     1.2317 H       
  35 H35            3.3527     0.7010    -0.2569 H       
  36 H36            2.2512     1.0422    -1.6125 H       
  37 H37            2.4135     3.3736    -1.4690 H       
  38 H38           -5.0448    -2.4154     2.1621 H       
  39 H39           -8.4963     0.2808     3.2165 H       
  40 H40           -9.1304    -0.5521     1.7769 H       
  41 H41           -9.4146    -1.2333     3.3966 H       
  42 H42            3.7024     4.4991     2.3196 H       
  43 H43            5.1126     3.3128     0.1794 H       
  44 H44            5.4947     5.0511     0.2079 H       
  45 H45            5.8665     4.0348     1.6211 H       
  46 C46           11.3937    13.4134    10.2649 C.3     
  47 N47           11.4135    11.9486    10.2569 N.2     
  48 C48           11.9543    11.3361     9.3109 C.1     
  49 O49           12.4768    10.7441     8.3966 O.2     
  50 H50           12.4163    13.7907    10.2572 H       
  51 H51           10.8665    13.7745     9.3819 H       
  52 H52           10.8835    13.7650    11.1617 H       
@<TRIPOS>BOND
   1    1   10 1
   2    1   13 1
   3    2    5 1
   4    2   26 1
   5    2   27 1
   6    2   28 1
   7    3    4 2
   8    3    5 1
   9    3   21 1
  10    4   19 1
  11    4    8 1
  12    5    6 2
  13    6    7 1
  14    6    9 1
  15    7    8 1
  16    7   12 2
  17    9   10 1
  18    9   29 1
  19    9   30 1
  20   10   11 1
  21   10   31 1
  22   11   14 1
  23   11   32 1
  24   11   33 1
  25   13   14 1
  26   13   15 1
  27   13   34 1
  28   14   35 1
  29   14   36 1
  30   15   16 am
  31   15   37 1
  32   16   17 2
  33   16   18 2
  34   16   24 am
  35   19   20 1
  36   20   21 2
  37   20   22 1
  38   21   38 1
  39   22   23 1
  40   23   39 1
  41   23   40 1
  42   23   41 1
  43   24   25 1
  44   24   42 1
  45   25   43 1
  46   25   44 1
  47   25   45 1
  48   46   47 1
  49   46   50 1
  50   46   51 1
  51   46   52 1
  52   47   48 2
  53   48   49 2

#	End of record

