#	Name: ASD03430760
#	Creating user name:	WinNT
#	Creation time:	15. 06. 2019 20:41

#	Modifying user name:	WinNT
#	Modification time:	15. 06. 2019 20:41

#	Program:	/corina/corina34_cracker 3.40 0067  02.08.2006

@<TRIPOS>MOLECULE
ASD03430760
  34   38    0    0    0
SMALL
NO_CHARGES


@<TRIPOS>ATOM
   1 C1            -0.0167     1.3819     0.0096 C.ar    
   2 C2             0.0021    -0.0041     0.0020 C.ar    
   3 C3             1.2020    -0.6771    -0.0142 C.ar    
   4 C4             2.4143     0.0164    -0.0125 C.ar    
   5 C5             2.4034     1.4027    -0.0093 C.ar    
   6 C6             1.1928     2.0934     0.0019 C.ar    
   7 O7             3.4729    -0.8436    -0.0015 O.3     
   8 C8             1.5480    -2.1420    -0.0498 C.3     
   9 C9             3.0332    -2.1445    -0.4362 C.3     
  10 C10            0.4174    -3.8540     1.0045 C.ar    
  11 C11            1.3105    -2.8179     1.2678 C.ar    
  12 C12            0.7119    -2.8985    -1.0418 C.2     
  13 N13            0.0868    -3.8738    -0.3526 N.am    
  14 O14            0.6172    -2.6753    -2.2302 O.2     
  15 C15            1.7787    -2.6042     2.5447 C.ar    
  16 C16            1.3637    -3.4221     3.5811 C.ar    
  17 C17            0.4775    -4.4534     3.3313 C.ar    
  18 C18            0.0047    -4.6713     2.0535 C.ar    
  19 O19           -1.0009     2.3081     0.0186 O.3     
  20 C20           -0.4311     3.5233     0.0193 C.2     
  21 N21            0.8633     3.4141     0.0085 N.2     
  22 C22           -1.1853     4.8280     0.0265 C.3     
  23 H23           -0.9261    -0.5562     0.0091 H       
  24 H24            3.3351     1.9488    -0.0150 H       
  25 H25            3.1523    -2.2528    -1.5143 H       
  26 H26            3.5696    -2.9313     0.0942 H       
  27 H27           -0.5216    -4.5147    -0.7524 H       
  28 H28            2.4706    -1.7978     2.7377 H       
  29 H29            1.7316    -3.2552     4.5827 H       
  30 H30            0.1540    -5.0918     4.1401 H       
  31 H31           -0.6879    -5.4786     1.8664 H       
  32 H32           -1.3622     5.1397     1.0559 H       
  33 H33           -0.5990     5.5894    -0.4880 H       
  34 H34           -2.1401     4.6987    -0.4831 H       
@<TRIPOS>BOND
   1    1    2 ar
   2    1    6 ar
   3    1   19 1
   4    2    3 ar
   5    2   23 1
   6    3    4 ar
   7    3    8 1
   8    4    5 ar
   9    4    7 1
  10    5    6 ar
  11    5   24 1
  12    6   21 1
  13    7    9 1
  14    8    9 1
  15    8   11 1
  16    8   12 1
  17    9   25 1
  18    9   26 1
  19   10   11 ar
  20   10   13 1
  21   10   18 ar
  22   11   15 ar
  23   12   13 am
  24   12   14 2
  25   13   27 1
  26   15   16 ar
  27   15   28 1
  28   16   17 ar
  29   16   29 1
  30   17   18 ar
  31   17   30 1
  32   18   31 1
  33   19   20 1
  34   20   21 2
  35   20   22 1
  36   22   32 1
  37   22   33 1
  38   22   34 1

#	End of record

