#	Name: ASD08830183
#	Creating user name:	WinNT
#	Creation time:	15. 06. 2019 21:19

#	Modifying user name:	WinNT
#	Modification time:	15. 06. 2019 21:19

#	Program:	/corina/corina34_cracker 3.40 0067  02.08.2006

@<TRIPOS>MOLECULE
ASD08830183
  37   39    0    0    0
SMALL
NO_CHARGES


@<TRIPOS>ATOM
   1 C1            -0.0177     1.4571     0.0101 C.2     
   2 C2             0.0021    -0.0041     0.0020 C.2     
   3 C3            -1.2926    -0.7753     0.0102 C.3     
   4 C4            -0.9927    -2.2755    -0.0007 C.3     
   5 N5            -2.2547    -3.0273     0.0073 N.3     
   6 O6             1.0614    -0.5966    -0.0113 O.2     
   7 C7            -1.1384     2.2332     0.0308 C.2     
   8 C8            -2.0181    -4.4568    -0.2410 C.3     
   9 C9            -3.3490    -5.2097    -0.1649 C.3     
  10 O10           -4.2665    -4.6418    -1.1035 O.3     
  11 C11           -4.5205    -3.2506    -0.8906 C.3     
  12 C12           -3.2015    -2.4779    -0.9741 C.3     
  13 N13            1.0976     2.2753     0.0038 N.pl3   
  14 C14            0.6844     3.5863     0.0148 C.ar    
  15 C15           -0.7249     3.5855     0.0318 C.ar    
  16 C16            1.3676     4.7995     0.0141 C.ar    
  17 C17            0.6629     5.9820     0.0266 C.ar    
  18 C18           -0.7268     5.9789     0.0399 C.ar    
  19 C19           -1.4189     4.8035     0.0464 C.ar    
  20 H20           -1.8592    -0.5245     0.9070 H       
  21 H21           -1.8762    -0.5150    -0.8728 H       
  22 H22           -0.4261    -2.5263    -0.8975 H       
  23 H23           -0.4091    -2.5358     0.8824 H       
  24 H24           -2.1585     1.8790     0.0439 H       
  25 H25           -1.5824    -4.5869    -1.2316 H       
  26 H26           -1.3346    -4.8488     0.5123 H       
  27 H27           -3.1869    -6.2606    -0.4046 H       
  28 H28           -3.7584    -5.1242     0.8417 H       
  29 H29           -5.2057    -2.8846    -1.6552 H       
  30 H30           -4.9640    -3.1082     0.0948 H       
  31 H31           -3.3819    -1.4252    -0.7560 H       
  32 H32           -2.7847    -2.5763    -1.9764 H       
  33 H33            2.0194     1.9736    -0.0061 H       
  34 H34            2.4474     4.8128     0.0042 H       
  35 H35            1.1953     6.9217     0.0264 H       
  36 H36           -1.2637     6.9159     0.0495 H       
  37 H37           -2.4989     4.8112     0.0563 H       
@<TRIPOS>BOND
   1    1    2 1
   2    1   13 1
   3    1    7 2
   4    2    3 1
   5    2    6 2
   6    3    4 1
   7    3   20 1
   8    3   21 1
   9    4    5 1
  10    4   22 1
  11    4   23 1
  12    5    8 1
  13    5   12 1
  14    7   15 1
  15    7   24 1
  16    8    9 1
  17    8   25 1
  18    8   26 1
  19    9   10 1
  20    9   27 1
  21    9   28 1
  22   10   11 1
  23   11   12 1
  24   11   29 1
  25   11   30 1
  26   12   31 1
  27   12   32 1
  28   13   14 1
  29   13   33 1
  30   14   15 ar
  31   14   16 ar
  32   15   19 ar
  33   16   17 ar
  34   16   34 1
  35   17   18 ar
  36   17   35 1
  37   18   19 ar
  38   18   36 1
  39   19   37 1

#	End of record

