#	Name: ASD01917345
#	Creating user name:	WinNT
#	Creation time:	15. 06. 2019 20:09

#	Modifying user name:	WinNT
#	Modification time:	15. 06. 2019 20:09

#	Program:	/corina/corina34_cracker 3.40 0067  02.08.2006

@<TRIPOS>MOLECULE
ASD01917345
  48   51    0    0    0
SMALL
NO_CHARGES


@<TRIPOS>ATOM
   1 S1            -0.0083     1.7507     0.0108 S.3     
   2 C2             0.0119    -0.0101     0.0049 C.2     
   3 N3             1.2517    -0.4191    -0.0027 N.2     
   4 C4             2.1623     0.5184    -0.0042 C.2     
   5 C5             1.7021     1.7794     0.0022 C.2     
   6 C6            -1.1764    -0.8798     0.0086 C.2     
   7 O7            -2.2892    -0.3890     0.0162 O.2     
   8 N8            -1.0309    -2.2197     0.0034 N.am    
   9 C9            -2.2131    -3.0849     0.0071 C.3     
  10 C10           -3.1110    -2.8518     1.2347 C.3     
  11 C11           -4.4227    -3.6160     1.0454 C.3     
  12 C12           -4.1431    -5.0994     0.7962 C.3     
  13 C13           -3.2008    -5.2358    -0.4126 C.3     
  14 C14           -3.7288    -4.2943    -1.5196 C.3     
  15 C15           -3.0918    -2.8977    -1.2513 C.3     
  16 C16           -1.8503    -4.5935     0.0006 C.3     
  17 C17           -3.0638    -6.6618    -0.8802 C.2     
  18 N18           -4.1531    -7.3475    -1.2801 N.am    
  19 O19           -1.9735    -7.1925    -0.8968 O.2     
  20 C20           -4.0137    -8.6278    -1.8138 C.ar    
  21 C21           -5.1466    -9.3719    -2.1238 C.ar    
  22 C22           -4.9940   -10.6410    -2.6533 C.ar    
  23 C23           -3.7082   -11.1242    -2.8553 C.ar    
  24 C24           -2.6280   -10.3304    -2.5244 C.ar    
  25 N25           -2.8043    -9.1217    -2.0257 N.ar    
  26 C26           -1.2297   -10.8491    -2.7408 C.3     
  27 H27            3.2185     0.2929    -0.0100 H       
  28 H28            2.3137     2.6695     0.0013 H       
  29 H29           -0.1434    -2.6111    -0.0027 H       
  30 H30           -2.6049    -3.2121     2.1304 H       
  31 H31           -3.3207    -1.7870     1.3362 H       
  32 H32           -5.0345    -3.5099     1.9413 H       
  33 H33           -4.9614    -3.2023     0.1929 H       
  34 H34           -3.6714    -5.5346     1.6772 H       
  35 H35           -5.0795    -5.6172     0.5889 H       
  36 H36           -3.4248    -4.6613    -2.4999 H       
  37 H37           -4.8152    -4.2246    -1.4655 H       
  38 H38           -3.8708    -2.1603    -1.0579 H       
  39 H39           -2.4768    -2.5816    -2.0940 H       
  40 H40           -1.0659    -4.8037    -0.7265 H       
  41 H41           -1.5588    -4.9296     0.9957 H       
  42 H42           -5.0340    -6.9501    -1.1966 H       
  43 H43           -6.1323    -8.9649    -1.9533 H       
  44 H44           -5.8556   -11.2423    -2.9034 H       
  45 H45           -3.5545   -12.1110    -3.2665 H       
  46 H46           -0.8927   -10.5788    -3.7415 H       
  47 H47           -0.5607   -10.4097    -2.0010 H       
  48 H48           -1.2245   -11.9341    -2.6363 H       
@<TRIPOS>BOND
   1    1    2 1
   2    1    5 1
   3    2    3 2
   4    2    6 1
   5    3    4 1
   6    4    5 2
   7    4   27 1
   8    5   28 1
   9    6    7 2
  10    6    8 am
  11    8    9 1
  12    8   29 1
  13    9   10 1
  14    9   15 1
  15    9   16 1
  16   10   11 1
  17   10   30 1
  18   10   31 1
  19   11   12 1
  20   11   32 1
  21   11   33 1
  22   12   13 1
  23   12   34 1
  24   12   35 1
  25   13   14 1
  26   13   16 1
  27   13   17 1
  28   14   15 1
  29   14   36 1
  30   14   37 1
  31   15   38 1
  32   15   39 1
  33   16   40 1
  34   16   41 1
  35   17   18 am
  36   17   19 2
  37   18   20 1
  38   18   42 1
  39   20   21 ar
  40   20   25 ar
  41   21   22 ar
  42   21   43 1
  43   22   23 ar
  44   22   44 1
  45   23   24 ar
  46   23   45 1
  47   24   25 ar
  48   24   26 1
  49   26   46 1
  50   26   47 1
  51   26   48 1

#	End of record

