#	Name: ASD07931930
#	Creating user name:	WinNT
#	Creation time:	15. 06. 2019 21:13

#	Modifying user name:	WinNT
#	Modification time:	15. 06. 2019 21:13

#	Program:	/corina/corina34_cracker 3.40 0067  02.08.2006

@<TRIPOS>MOLECULE
ASD07931930
  21   21    0    0    0
SMALL
NO_CHARGES


@<TRIPOS>ATOM
   1 C1            -0.0169     1.3934     0.0097 C.ar    
   2 C2             0.0021    -0.0041     0.0020 C.ar    
   3 N3             1.1248     2.0743     0.0025 N.ar    
   4 N4             1.1516    -0.6476    -0.0120 N.ar    
   5 C5             2.2952     0.0334    -0.0192 C.ar    
   6 C6             2.2757     1.4317    -0.0120 C.ar    
   7 C7            -1.3109     2.1168     0.0197 C.2     
   8 O8            -2.3537     1.4952     0.0213 O.2     
   9 O9            -1.3295     3.4632     0.0272 O.3     
  10 C10            3.5845    -0.6876    -0.0344 C.2     
  11 O11            4.6225    -0.0691    -0.0409 O.2     
  12 C12            3.6052    -2.1944    -0.0417 C.3     
  13 C13           -2.6322     4.1044     0.0368 C.3     
  14 H14           -0.9259    -0.5566     0.0079 H       
  15 H15            3.2032     1.9849    -0.0182 H       
  16 H16            2.5827    -2.5718    -0.0341 H       
  17 H17            4.1158    -2.5464    -0.9380 H       
  18 H18            4.1321    -2.5548     0.8419 H       
  19 H19           -3.1893     3.8087    -0.8522 H       
  20 H20           -3.1809     3.7990     0.9277 H       
  21 H21           -2.5044     5.1869     0.0421 H       
@<TRIPOS>BOND
   1    1    2 ar
   2    1    3 ar
   3    1    7 1
   4    2    4 ar
   5    2   14 1
   6    3    6 ar
   7    4    5 ar
   8    5    6 ar
   9    5   10 1
  10    6   15 1
  11    7    8 2
  12    7    9 1
  13    9   13 1
  14   10   11 2
  15   10   12 1
  16   12   16 1
  17   12   17 1
  18   12   18 1
  19   13   19 1
  20   13   20 1
  21   13   21 1

#	End of record

