#	Name: ASD01811431
#	Creating user name:	WinNT
#	Creation time:	15. 06. 2019 19:26

#	Modifying user name:	WinNT
#	Modification time:	15. 06. 2019 19:26

#	Program:	/corina/corina34_cracker 3.40 0067  02.08.2006

@<TRIPOS>MOLECULE
ASD01811431
  27   27    0    0    0
SMALL
NO_CHARGES


@<TRIPOS>ATOM
   1 C1            -0.0966     1.4713     0.0111 C.2     
   2 C2            -0.0359    -0.0049     0.0027 C.ar    
   3 C3             1.1968    -0.6540     0.0562 C.ar    
   4 C4             1.2449    -2.0450     0.0483 C.ar    
   5 C5             0.0605    -2.7814    -0.0130 C.ar    
   6 C6            -1.1577    -2.1333    -0.0662 C.ar    
   7 C7            -1.2138    -0.7538    -0.0530 C.ar    
   8 O8             0.9284     2.1209     0.0647 O.2     
   9 O9            -1.2883     2.0967    -0.0462 O.3     
  10 C10            0.1115    -4.2876    -0.0215 C.3     
  11 C11            2.5498    -2.7424     0.1044 C.2     
  12 N12            3.7265    -2.0154     0.0415 N.pl3   
  13 N13            2.5907    -4.0378     0.2127 N.2     
  14 O14            3.8387    -4.7047     0.2663 O.3     
  15 C15           -1.2720     3.5486    -0.0339 C.3     
  16 H16            2.1104    -0.0800     0.1032 H       
  17 H17           -2.0709    -2.7080    -0.1139 H       
  18 H18           -2.1698    -0.2528    -0.0900 H       
  19 H19            0.2007    -4.6539     1.0012 H       
  20 H20           -0.8017    -4.6795    -0.4695 H       
  21 H21            0.9723    -4.6186    -0.6025 H       
  22 H22            3.6960    -1.0493    -0.0393 H       
  23 H23            4.5814    -2.4723     0.0782 H       
  24 H24            3.7679    -5.6658     0.3468 H       
  25 H25           -0.8012     3.8989     0.8846 H       
  26 H26           -0.7084     3.9129    -0.8929 H       
  27 H27           -2.2941     3.9239    -0.0844 H       
@<TRIPOS>BOND
   1    1    2 1
   2    1    8 2
   3    1    9 1
   4    2    3 ar
   5    2    7 ar
   6    3    4 ar
   7    3   16 1
   8    4    5 ar
   9    4   11 1
  10    5    6 ar
  11    5   10 1
  12    6    7 ar
  13    6   17 1
  14    7   18 1
  15    9   15 1
  16   10   19 1
  17   10   20 1
  18   10   21 1
  19   11   12 1
  20   11   13 2
  21   12   22 1
  22   12   23 1
  23   13   14 1
  24   14   24 1
  25   15   25 1
  26   15   26 1
  27   15   27 1

#	End of record

