#	Name: ASD04842003
#	Creating user name:	WinNT
#	Creation time:	15. 06. 2019 20:52

#	Modifying user name:	WinNT
#	Modification time:	15. 06. 2019 20:52

#	Program:	/corina/corina34_cracker 3.40 0067  02.08.2006

@<TRIPOS>MOLECULE
ASD04842003
  37   40    0    0    0
SMALL
NO_CHARGES


@<TRIPOS>ATOM
   1 O1             3.1058     4.6344     1.4417 O.3     
   2 N2             3.0495     5.5874     2.1837 N.2     
   3 C3             1.8225     6.0319     2.2998 C.2     
   4 C4             1.0185     5.1904     1.4811 C.2     
   5 C5             1.9004     4.3098     0.9543 C.2     
   6 C6             1.3644     7.1792     3.1190 C.2     
   7 O7             0.1890     7.4832     3.1345 O.2     
   8 O8             2.2517     7.8843     3.8460 O.3     
   9 C9             1.5879     3.1827     0.0040 C.3     
  10 N10            1.6925     3.6640    -1.3757 N.pl3   
  11 C11            0.6425     4.1099    -2.1523 C.2     
  12 C12            1.1219     4.4750    -3.3737 C.2     
  13 C13            2.5178     4.2531    -3.3691 C.ar    
  14 C14            3.5230     4.4458    -4.3425 C.ar    
  15 C15            4.8140     4.1454    -4.0746 C.ar    
  16 C16            5.1823     3.6315    -2.8120 C.ar    
  17 C17            4.1953     3.4286    -1.8183 C.ar    
  18 C18            2.8481     3.7505    -2.1032 C.ar    
  19 C19            4.5702     2.9176    -0.5682 C.ar    
  20 C20            5.8787     2.6222    -0.3232 C.ar    
  21 C21            6.8497     2.8213    -1.2992 C.ar    
  22 C22            6.5190     3.3167    -2.5255 C.ar    
  23 C23           -0.7617     4.1794    -1.7308 C.2     
  24 O24           -1.6080     4.5908    -2.5008 O.2     
  25 O25           -1.1133     3.7869    -0.4894 O.3     
  26 H26           -0.0479     5.2426     1.3180 H       
  27 H27            1.9057     8.6238     4.3643 H       
  28 H28            2.2964     2.3691     0.1597 H       
  29 H29            0.5755     2.8229     0.1875 H       
  30 H30            0.5406     4.8634    -4.1968 H       
  31 H31            3.2571     4.8377    -5.3132 H       
  32 H32            5.5686     4.2992    -4.8318 H       
  33 H33            3.8258     2.7589     0.1980 H       
  34 H34            6.1649     2.2289     0.6410 H       
  35 H35            7.8799     2.5801    -1.0825 H       
  36 H36            7.2834     3.4665    -3.2736 H       
  37 H37           -2.0499     3.8511    -0.2574 H       
@<TRIPOS>BOND
   1    1    2 1
   2    1    5 1
   3    2    3 2
   4    3    4 1
   5    3    6 1
   6    4    5 2
   7    4   26 1
   8    5    9 1
   9    6    7 2
  10    6    8 1
  11    8   27 1
  12    9   10 1
  13    9   28 1
  14    9   29 1
  15   10   11 1
  16   10   18 1
  17   11   12 2
  18   11   23 1
  19   12   13 1
  20   12   30 1
  21   13   14 ar
  22   13   18 ar
  23   14   15 ar
  24   14   31 1
  25   15   16 ar
  26   15   32 1
  27   16   17 ar
  28   16   22 ar
  29   17   18 ar
  30   17   19 ar
  31   19   20 ar
  32   19   33 1
  33   20   21 ar
  34   20   34 1
  35   21   22 ar
  36   21   35 1
  37   22   36 1
  38   23   24 2
  39   23   25 1
  40   25   37 1

#	End of record

