#	Name: ASD05842001
#	Creating user name:	WinNT
#	Creation time:	15. 06. 2019 21:03

#	Modifying user name:	WinNT
#	Modification time:	15. 06. 2019 21:03

#	Program:	/corina/corina34_cracker 3.40 0067  02.08.2006

@<TRIPOS>MOLECULE
ASD05842001
  75   77    0    0    0
SMALL
NO_CHARGES


@<TRIPOS>ATOM
   1 C1             0.3948     0.9759     0.5095 C.2     
   2 C2             0.4777    -0.4996     0.5522 C.ar    
   3 C3             1.4711    -1.1669    -0.1661 C.ar    
   4 C4             1.5431    -2.5439    -0.1216 C.ar    
   5 C5             0.6332    -3.2632     0.6327 C.ar    
   6 C6            -0.3539    -2.6079     1.3471 C.ar    
   7 C7            -0.4336    -1.2310     1.3157 C.ar    
   8 O8             1.4105     1.6400     0.4400 O.2     
   9 N9            -0.8073     1.5846     0.5420 N.am    
  10 C10           -0.8868     3.0455     0.6171 C.3     
  11 C11           -0.9160     3.6281    -0.7973 C.3     
  12 C12           -1.1244     5.1419    -0.7212 C.3     
  13 C13           -1.2782     5.7073    -2.1345 C.3     
  14 C14            0.3907     3.3350    -1.4884 C.ar    
  15 C15            0.4042     2.5922    -2.6543 C.ar    
  16 C16            1.6032     2.3233    -3.2891 C.ar    
  17 C17            2.7897     2.7986    -2.7561 C.ar    
  18 C18            2.7744     3.5415    -1.5897 C.ar    
  19 C19            1.5745     3.8138    -0.9593 C.ar    
  20 Cl20           4.2956     2.4615    -3.5514 Cl      
  21 Cl21           1.6208     1.3902    -4.7529 Cl      
  22 N22           -1.4783     7.1607    -2.0614 N.3     
  23 C23           -1.3935     7.7713    -3.3943 C.3     
  24 C24           -1.4607     9.2947    -3.2642 C.3     
  25 C25           -2.7761     9.6866    -2.5855 C.3     
  26 C26           -2.8613     8.9991    -1.2199 C.3     
  27 C27           -2.7536     7.4843    -1.4093 C.3     
  28 C28           -2.8214    11.1815    -2.4004 C.ar    
  29 C29           -2.2316    11.7588    -1.2914 C.ar    
  30 C30           -2.2732    13.1301    -1.1216 C.ar    
  31 C31           -2.9042    13.9240    -2.0610 C.ar    
  32 C32           -3.4932    13.3467    -3.1704 C.ar    
  33 C33           -3.4478    11.9759    -3.3424 C.ar    
  34 N34           -3.9030     9.2608    -3.4192 N.am    
  35 C35           -5.1627     9.5840    -3.0655 C.2     
  36 O36           -5.3713    10.1466    -2.0116 O.2     
  37 C37           -6.3121     9.2462    -3.9798 C.3     
  38 C38           -2.0344     0.7853     0.5022 C.3     
  39 H39            2.1815    -0.6065    -0.7558 H       
  40 H40            2.3113    -3.0614    -0.6769 H       
  41 H41            0.6935    -4.3411     0.6636 H       
  42 H42           -1.0612    -3.1753     1.9339 H       
  43 H43           -1.2018    -0.7203     1.8773 H       
  44 H44           -1.7947     3.3331     1.1474 H       
  45 H45           -0.0174     3.4298     1.1505 H       
  46 H46           -1.7336     3.1766    -1.3594 H       
  47 H47           -2.0239     5.3563    -0.1442 H       
  48 H48           -0.2636     5.6032    -0.2370 H       
  49 H49           -0.3787     5.4929    -2.7115 H       
  50 H50           -2.1390     5.2459    -2.6187 H       
  51 H51           -0.5215     2.2216    -3.0692 H       
  52 H52            3.6994     3.9124    -1.1734 H       
  53 H53            1.5624     4.3974    -0.0506 H       
  54 H54           -0.4517     7.4881    -3.8642 H       
  55 H55           -2.2245     7.4222    -4.0072 H       
  56 H56           -0.6221     9.6458    -2.6628 H       
  57 H57           -1.4134     9.7469    -4.2548 H       
  58 H58           -2.0448     9.3456    -0.5864 H       
  59 H59           -3.8148     9.2402    -0.7500 H       
  60 H60           -3.5782     7.1365    -2.0315 H       
  61 H61           -2.7996     6.9926    -0.4376 H       
  62 H62           -1.7387    11.1385    -0.5575 H       
  63 H63           -1.8131    13.5811    -0.2549 H       
  64 H64           -2.9373    14.9953    -1.9280 H       
  65 H65           -3.9864    13.9670    -3.9041 H       
  66 H66           -3.9047    11.5252    -4.2110 H       
  67 H67           -3.7424     8.7464    -4.2257 H       
  68 H68           -5.9326     8.7473    -4.8715 H       
  69 H69           -7.0066     8.5852    -3.4613 H       
  70 H70           -6.8285    10.1619    -4.2678 H       
  71 H71           -2.2928     0.4658     1.5118 H       
  72 H72           -2.8462     1.3860     0.0923 H       
  73 H73           -1.8771    -0.0908    -0.1270 H       
  74 H74            9.2956    19.9953     6.9339 H       
  75 Cl75           9.2956    21.3653     6.9339 Cl      
@<TRIPOS>BOND
   1    1    2 1
   2    1    8 2
   3    1    9 am
   4    2    3 ar
   5    2    7 ar
   6    3    4 ar
   7    3   39 1
   8    4    5 ar
   9    4   40 1
  10    5    6 ar
  11    5   41 1
  12    6    7 ar
  13    6   42 1
  14    7   43 1
  15    9   10 1
  16    9   38 1
  17   10   11 1
  18   10   44 1
  19   10   45 1
  20   11   12 1
  21   11   14 1
  22   11   46 1
  23   12   13 1
  24   12   47 1
  25   12   48 1
  26   13   22 1
  27   13   49 1
  28   13   50 1
  29   14   15 ar
  30   14   19 ar
  31   15   16 ar
  32   15   51 1
  33   16   17 ar
  34   16   21 1
  35   17   18 ar
  36   17   20 1
  37   18   19 ar
  38   18   52 1
  39   19   53 1
  40   22   23 1
  41   22   27 1
  42   23   24 1
  43   23   54 1
  44   23   55 1
  45   24   25 1
  46   24   56 1
  47   24   57 1
  48   25   26 1
  49   25   28 1
  50   25   34 1
  51   26   27 1
  52   26   58 1
  53   26   59 1
  54   27   60 1
  55   27   61 1
  56   28   29 ar
  57   28   33 ar
  58   29   30 ar
  59   29   62 1
  60   30   31 ar
  61   30   63 1
  62   31   32 ar
  63   31   64 1
  64   32   33 ar
  65   32   65 1
  66   33   66 1
  67   34   35 am
  68   34   67 1
  69   35   36 2
  70   35   37 1
  71   37   68 1
  72   37   69 1
  73   37   70 1
  74   38   71 1
  75   38   72 1
  76   38   73 1
  77   74   75 1

#	End of record

