#	Name: ASD03330755
#	Creating user name:	WinNT
#	Creation time:	15. 06. 2019 20:37

#	Modifying user name:	WinNT
#	Modification time:	15. 06. 2019 20:37

#	Program:	/corina/corina34_cracker 3.40 0067  02.08.2006

@<TRIPOS>MOLECULE
ASD03330755
  63   65    0    0    0
SMALL
NO_CHARGES


@<TRIPOS>ATOM
   1 C1            -1.5637     3.8065    -0.1951 C.2     
   2 N2            -1.9501     2.5495     0.1505 N.pl3   
   3 C3            -0.2218     3.8869     0.0223 C.2     
   4 N4             0.1949     2.6847     0.4772 N.2     
   5 C5            -0.8347     1.8741     0.5518 C.2     
   6 C6            -0.7927     0.4642     0.9961 C.ar    
   7 C7             0.6245     5.0725    -0.1996 C.2     
   8 O8             0.1304     6.1032    -0.6151 O.2     
   9 C9             2.8050     6.1582    -0.2602 C.3     
  10 N10            1.9462     5.0147     0.0578 N.am    
  11 C11            3.2505     6.0707    -1.7213 C.3     
  12 C12            4.0164     6.1412     0.6362 C.2     
  13 O13            4.1321     5.2807     1.4830 O.2     
  14 C14           -3.3235     2.0401     0.1058 C.3     
  15 C15           -3.9558     2.4179    -1.2374 C.3     
  16 C16           -4.5926     3.8003    -1.1370 C.3     
  17 N17           -3.8307     4.6673    -0.2360 N.3     
  18 C18           -2.4648     4.8871    -0.7341 C.3     
  19 C19           -1.7298    -0.0090     1.9155 C.ar    
  20 C20            0.1820    -0.4013     0.4928 C.ar    
  21 C21            0.2151    -1.7178     0.9127 C.ar    
  22 C22           -0.7146    -2.1777     1.8287 C.ar    
  23 C23           -1.6860    -1.3246     2.3264 C.ar    
  24 C24           -4.5249     5.9441    -0.0221 C.3     
  25 N25            4.9712     7.0822     0.4967 N.am    
  26 C26            6.1487     7.0656     1.3680 C.3     
  27 C27            3.8766     4.6993    -1.9824 C.3     
  28 C28            5.0038     4.4537    -0.9775 C.3     
  29 F29            1.0892     0.0472    -0.4022 F       
  30 Cl30          -0.6676    -3.8325     2.3514 Cl      
  31 C31            2.8096     3.6137    -1.8274 C.3     
  32 C32            4.4423     4.6592    -3.4033 C.3     
  33 H33            2.2506     7.0836    -0.1041 H       
  34 H34            2.3288     4.2161     0.4536 H       
  35 H35            2.3873     6.2061    -2.3730 H       
  36 H36            3.9849     6.8501    -1.9245 H       
  37 H37           -3.3133     0.9553     0.2113 H       
  38 H38           -3.9021     2.4808     0.9176 H       
  39 H39           -3.1869     2.4283    -2.0099 H       
  40 H40           -4.7196     1.6850    -1.4973 H       
  41 H41           -4.6230     4.2529    -2.1281 H       
  42 H42           -5.6102     3.6987    -0.7598 H       
  43 H43           -2.1070     5.8607    -0.3992 H       
  44 H44           -2.4641     4.8524    -1.8236 H       
  45 H45           -2.4880     0.6543     2.3048 H       
  46 H46            0.9676    -2.3887     0.5251 H       
  47 H47           -2.4086    -1.6900     3.0411 H       
  48 H48           -5.5039     5.7560     0.4188 H       
  49 H49           -3.9374     6.5688     0.6507 H       
  50 H50           -4.6486     6.4549    -0.9770 H       
  51 H51            4.8786     7.7704    -0.1806 H       
  52 H52            6.8045     7.8967     1.1085 H       
  53 H53            5.8334     7.1624     2.4069 H       
  54 H54            6.6845     6.1255     1.2370 H       
  55 H55            4.5767     4.2033    -0.0064 H       
  56 H56            5.6263     3.6288    -1.3242 H       
  57 H57            5.6115     5.3539    -0.8859 H       
  58 H58            1.8704     3.9635    -2.2560 H       
  59 H59            3.1318     2.7109    -2.3462 H       
  60 H60            2.6664     3.3934    -0.7695 H       
  61 H61            5.2024     5.4325    -3.5138 H       
  62 H62            4.8884     3.6821    -3.5893 H       
  63 H63            3.6392     4.8342    -4.1192 H       
@<TRIPOS>BOND
   1    1    2 1
   2    1    3 2
   3    1   18 1
   4    2   14 1
   5    2    5 1
   6    3    4 1
   7    3    7 1
   8    4    5 2
   9    5    6 1
  10    6   20 ar
  11    6   19 ar
  12    7    8 2
  13    7   10 am
  14    9   10 1
  15    9   11 1
  16    9   12 1
  17    9   33 1
  18   10   34 1
  19   11   27 1
  20   11   35 1
  21   11   36 1
  22   12   13 2
  23   12   25 am
  24   14   15 1
  25   14   37 1
  26   14   38 1
  27   15   16 1
  28   15   39 1
  29   15   40 1
  30   16   17 1
  31   16   41 1
  32   16   42 1
  33   17   18 1
  34   17   24 1
  35   18   43 1
  36   18   44 1
  37   19   23 ar
  38   19   45 1
  39   20   21 ar
  40   20   29 1
  41   21   22 ar
  42   21   46 1
  43   22   23 ar
  44   22   30 1
  45   23   47 1
  46   24   48 1
  47   24   49 1
  48   24   50 1
  49   25   26 1
  50   25   51 1
  51   26   52 1
  52   26   53 1
  53   26   54 1
  54   27   31 1
  55   27   32 1
  56   27   28 1
  57   28   55 1
  58   28   56 1
  59   28   57 1
  60   31   58 1
  61   31   59 1
  62   31   60 1
  63   32   61 1
  64   32   62 1
  65   32   63 1

#	End of record

