#	Name: ASD03090327
#	Creating user name:	WinNT
#	Creation time:	15. 06. 2019 20:28

#	Modifying user name:	WinNT
#	Modification time:	15. 06. 2019 20:28

#	Program:	/corina/corina34_cracker 3.40 0067  02.08.2006

@<TRIPOS>MOLECULE
ASD03090327
  49   51    0    0    0
SMALL
NO_CHARGES


@<TRIPOS>ATOM
   1 N1             0.4460     1.5125     1.4686 N.ar    
   2 C2             0.4086     0.1943     1.4352 C.ar    
   3 C3             1.5354    -0.5389     1.1243 C.ar    
   4 C4             2.7278     0.1366     0.8428 C.ar    
   5 C5             2.7215     1.5348     0.8900 C.ar    
   6 C6             1.5490     2.1881     1.2098 C.ar    
   7 C7             3.9618    -0.6075     0.5048 C.2     
   8 N8             5.7413    -3.4561    -0.5308 N.pl3   
   9 C9             4.8141    -4.4464    -0.8758 C.ar    
  10 C10            3.5980    -4.0917    -1.4450 C.ar    
  11 C11            2.6841    -5.0694    -1.7855 C.ar    
  12 C12            2.9804    -6.4054    -1.5591 C.ar    
  13 C13            4.1947    -6.7606    -0.9905 C.ar    
  14 C14            5.1120    -5.7846    -0.6543 C.ar    
  15 N15            4.0263    -1.8634     0.1108 N.2     
  16 C16            5.2979    -2.2025    -0.1052 C.2     
  17 N17            6.0661    -1.1674     0.1476 N.2     
  18 N18            5.2208    -0.1169     0.5401 N.pl3   
  19 C19            5.6243     1.2387     0.9217 C.3     
  20 C20            5.7300     2.1109    -0.3309 C.3     
  21 C21            6.1451     3.5055     0.0616 C.2     
  22 N22            6.3025     4.4529    -0.8839 N.am    
  23 O23            2.0796    -7.3675    -1.8942 O.3     
  24 C24            6.7060     5.8086    -0.5023 C.3     
  25 C25            2.4504    -8.7226    -1.6331 C.3     
  26 O26            6.3374     3.7751     1.2283 O.2     
  27 C27            6.0702     4.1272    -2.2932 C.3     
  28 H28           -0.5166    -0.3180     1.6544 H       
  29 H29            1.4976    -1.6179     1.0992 H       
  30 H30            3.6210     2.0943     0.6795 H       
  31 H31            1.5341     3.2673     1.2488 H       
  32 H32            6.6918    -3.6408    -0.5874 H       
  33 H33            3.3670    -3.0514    -1.6211 H       
  34 H34            1.7382    -4.7937    -2.2279 H       
  35 H35            4.4245    -7.8011    -0.8142 H       
  36 H36            6.0575    -6.0614    -0.2116 H       
  37 H37            4.8815     1.6622     1.5977 H       
  38 H38            6.5920     1.2025     1.4219 H       
  39 H39            6.4728     1.6875    -1.0069 H       
  40 H40            4.7622     2.1471    -0.8311 H       
  41 H41            7.7937     5.8794    -0.5092 H       
  42 H42            6.2909     6.5245    -1.2117 H       
  43 H43            6.3338     6.0306     0.4978 H       
  44 H44            3.3572    -8.9645    -2.1875 H       
  45 H45            2.6321    -8.8505    -0.5660 H       
  46 H46            1.6449    -9.3866    -1.9467 H       
  47 H47            5.7798     3.0802    -2.3810 H       
  48 H48            5.2736     4.7593    -2.6857 H       
  49 H49            6.9842     4.2996    -2.8614 H       
@<TRIPOS>BOND
   1    1    2 ar
   2    1    6 ar
   3    2    3 ar
   4    2   28 1
   5    3    4 ar
   6    3   29 1
   7    4    5 ar
   8    4    7 1
   9    5    6 ar
  10    5   30 1
  11    6   31 1
  12    7   15 2
  13    7   18 1
  14    8    9 1
  15    8   16 1
  16    8   32 1
  17    9   10 ar
  18    9   14 ar
  19   10   11 ar
  20   10   33 1
  21   11   12 ar
  22   11   34 1
  23   12   13 ar
  24   12   23 1
  25   13   14 ar
  26   13   35 1
  27   14   36 1
  28   15   16 1
  29   16   17 2
  30   17   18 1
  31   18   19 1
  32   19   20 1
  33   19   37 1
  34   19   38 1
  35   20   21 1
  36   20   39 1
  37   20   40 1
  38   21   22 am
  39   21   26 2
  40   22   24 1
  41   22   27 1
  42   23   25 1
  43   24   41 1
  44   24   42 1
  45   24   43 1
  46   25   44 1
  47   25   45 1
  48   25   46 1
  49   27   47 1
  50   27   48 1
  51   27   49 1

#	End of record

