#	Name: ASD01912362
#	Creating user name:	WinNT
#	Creation time:	15. 06. 2019 19:59

#	Modifying user name:	WinNT
#	Modification time:	15. 06. 2019 19:59

#	Program:	/corina/corina34_cracker 3.40 0067  02.08.2006

@<TRIPOS>MOLECULE
ASD01912362
  44   46    0    0    0
SMALL
NO_CHARGES


@<TRIPOS>ATOM
   1 C1             0.7354     3.0949     4.5855 C.ar    
   2 C2             0.8098     1.8601     5.2047 C.ar    
   3 C3             2.0117     1.1651     5.1990 C.ar    
   4 C4             3.1026     1.7363     4.5691 C.ar    
   5 C5             2.9577     2.9872     3.9630 C.ar    
   6 N6             1.7874     3.6191     3.9918 N.ar    
   7 C7             4.0768     3.5931     3.3064 C.1     
   8 C8             4.9943     4.0898     2.7681 C.1     
   9 C9             6.1134     4.6956     2.1116 C.2     
  10 N10            5.4386     7.6467    -0.5134 N.am    
  11 C11            6.7156     6.9253    -0.5873 C.3     
  12 C12            7.1507     6.5449     0.8336 C.3     
  13 C13            5.9805     5.8880     1.5323 C.2     
  14 C14            4.6557     6.6184     1.5577 C.3     
  15 C15            4.2831     6.9969     0.1186 C.3     
  16 C16            5.3297     8.8930    -1.0150 C.2     
  17 O17            6.3173     9.4699    -1.4309 O.2     
  18 C18            4.0219     9.5535    -1.0595 C.2     
  19 C19            3.8011    10.8883    -0.8681 C.2     
  20 C20            2.4755    11.2395    -0.9649 C.2     
  21 C21            1.6382    10.2290    -1.2264 C.2     
  22 S22            2.4868     8.7563    -1.3750 S.3     
  23 C23            2.0001    12.6587    -0.7890 C.3     
  24 C24           -0.5699     3.8481     4.5851 C.3     
  25 H25           -0.0596     1.4403     5.6887 H       
  26 H26            2.0932     0.1998     5.6764 H       
  27 H27            4.0526     1.2232     4.5462 H       
  28 H28            7.0653     4.1860     2.0859 H       
  29 H29            6.5912     6.0225    -1.1854 H       
  30 H30            7.4714     7.5659    -1.0417 H       
  31 H31            7.9881     5.8487     0.7870 H       
  32 H32            7.4477     7.4409     1.3787 H       
  33 H33            3.8869     5.9695     1.9772 H       
  34 H34            4.7455     7.5205     2.1629 H       
  35 H35            3.4376     7.6847     0.1289 H       
  36 H36            4.0191     6.0983    -0.4389 H       
  37 H37            4.5895    11.5969    -0.6611 H       
  38 H38            0.5685    10.3325    -1.3332 H       
  39 H39            2.0025    13.1650    -1.7542 H       
  40 H40            0.9885    12.6553    -0.3831 H       
  41 H41            2.6653    13.1822    -0.1024 H       
  42 H42           -0.6207     4.4875     5.4663 H       
  43 H43           -0.6349     4.4618     3.6866 H       
  44 H44           -1.3982     3.1397     4.6019 H       
@<TRIPOS>BOND
   1    1    2 ar
   2    1    6 ar
   3    1   24 1
   4    2    3 ar
   5    2   25 1
   6    3    4 ar
   7    3   26 1
   8    4    5 ar
   9    4   27 1
  10    5    6 ar
  11    5    7 1
  12    7    8 3
  13    8    9 1
  14    9   13 2
  15    9   28 1
  16   10   11 1
  17   10   15 1
  18   10   16 am
  19   11   12 1
  20   11   29 1
  21   11   30 1
  22   12   13 1
  23   12   31 1
  24   12   32 1
  25   13   14 1
  26   14   15 1
  27   14   33 1
  28   14   34 1
  29   15   35 1
  30   15   36 1
  31   16   17 2
  32   16   18 1
  33   18   19 2
  34   18   22 1
  35   19   20 1
  36   19   37 1
  37   20   21 2
  38   20   23 1
  39   21   22 1
  40   21   38 1
  41   23   39 1
  42   23   40 1
  43   23   41 1
  44   24   42 1
  45   24   43 1
  46   24   44 1

#	End of record

