#	Name: ASD06390011
#	Creating user name:	WinNT
#	Creation time:	15. 06. 2019 21:06

#	Modifying user name:	WinNT
#	Modification time:	15. 06. 2019 21:06

#	Program:	/corina/corina34_cracker 3.40 0067  02.08.2006

@<TRIPOS>MOLECULE
ASD06390011
  51   52    0    0    0
SMALL
NO_CHARGES


@<TRIPOS>ATOM
   1 C1            -0.0187     1.5258     0.0104 C.3     
   2 C2             0.0021    -0.0041     0.0020 C.3     
   3 C3             0.7074    -0.4901    -1.2379 C.ar    
   4 C4            -0.0221    -0.8224    -2.3624 C.ar    
   5 C5             0.6245    -1.2683    -3.5016 C.ar    
   6 Cl6           -0.2959    -1.6845    -4.9135 Cl      
   7 C7             2.0044    -1.3826    -3.5175 C.ar    
   8 C8             2.7392    -1.0517    -2.3943 C.ar    
   9 C9             2.0924    -0.5986    -1.2522 C.ar    
  10 N10            2.8324    -0.2633    -0.1152 N.pl3   
  11 C11            4.2919    -0.3897    -0.1276 C.3     
  12 C12            4.8440     0.0314     1.2099 C.2     
  13 O13            4.0923     0.4007     2.0871 O.2     
  14 N14            6.1730    -0.0025     1.4312 N.am    
  15 C15            6.7262     0.4049     2.7299 C.3     
  16 C16            7.7985     1.4737     2.4957 C.3     
  17 C17            8.8391     0.9389     1.5092 C.3     
  18 C18            8.1642     0.6303     0.1707 C.3     
  19 C19            7.0957    -0.4533     0.3804 C.3     
  20 N20            9.8839     1.9460     1.3082 N.am    
  21 S21           11.4540     1.4748     1.0736 S.o2    
  22 O22           12.1705     2.6951     0.9439 O.2     
  23 O23           11.7161     0.5819     2.1475 O.2     
  24 C24           11.4274     0.5814    -0.5050 C.3     
  25 C25           12.8377     0.0894    -0.8364 C.3     
  26 Cl26           2.8120    -1.9424    -4.9486 Cl      
  27 H27            1.0039     1.9031     0.0027 H       
  28 H28           -0.5459     1.8868    -0.8726 H       
  29 H29           -0.5289     1.8773     0.9072 H       
  30 H30            0.5293    -0.3651     0.8851 H       
  31 H31           -1.0205    -0.3814     0.0098 H       
  32 H32           -1.0984    -0.7344    -2.3525 H       
  33 H33            3.8153    -1.1415    -2.4065 H       
  34 H34            2.3798     0.0531     0.6822 H       
  35 H35            4.5651    -1.4266    -0.3234 H       
  36 H36            4.7052     0.2486    -0.9086 H       
  37 H37            5.9315     0.8150     3.3532 H       
  38 H38            7.1723    -0.4581     3.2241 H       
  39 H39            7.3347     2.3704     2.0849 H       
  40 H40            8.2840     1.7152     3.4413 H       
  41 H41            9.2848     0.0284     1.9096 H       
  42 H42            7.6970     1.5350    -0.2183 H       
  43 H43            8.9101     0.2716    -0.5386 H       
  44 H44            7.5743    -1.3849     0.6820 H       
  45 H45            6.5442    -0.6070    -0.5471 H       
  46 H46            9.6560     2.8889     1.3126 H       
  47 H47           10.7535    -0.2719    -0.4282 H       
  48 H48           11.0804     1.2485    -1.2941 H       
  49 H49           12.8217    -0.4474    -1.7849 H       
  50 H50           13.5115     0.9428    -0.9131 H       
  51 H51           13.1846    -0.5776    -0.0472 H       
@<TRIPOS>BOND
   1    1    2 1
   2    1   27 1
   3    1   28 1
   4    1   29 1
   5    2    3 1
   6    2   30 1
   7    2   31 1
   8    3    4 ar
   9    3    9 ar
  10    4    5 ar
  11    4   32 1
  12    5    6 1
  13    5    7 ar
  14    7    8 ar
  15    7   26 1
  16    8    9 ar
  17    8   33 1
  18    9   10 1
  19   10   11 1
  20   10   34 1
  21   11   12 1
  22   11   35 1
  23   11   36 1
  24   12   13 2
  25   12   14 am
  26   14   15 1
  27   14   19 1
  28   15   16 1
  29   15   37 1
  30   15   38 1
  31   16   17 1
  32   16   39 1
  33   16   40 1
  34   17   18 1
  35   17   20 1
  36   17   41 1
  37   18   19 1
  38   18   42 1
  39   18   43 1
  40   19   44 1
  41   19   45 1
  42   20   21 am
  43   20   46 1
  44   21   22 2
  45   21   23 2
  46   21   24 1
  47   24   25 1
  48   24   47 1
  49   24   48 1
  50   25   49 1
  51   25   50 1
  52   25   51 1

#	End of record

