#	Name: ASD02350002
#	Creating user name:	WinNT
#	Creation time:	15. 06. 2019 20:20

#	Modifying user name:	WinNT
#	Modification time:	15. 06. 2019 20:20

#	Program:	/corina/corina34_cracker 3.40 0067  02.08.2006

@<TRIPOS>MOLECULE
ASD02350002
  82   86    0    0    0
SMALL
NO_CHARGES


@<TRIPOS>ATOM
   1 O1            -0.0161     1.3381     0.0094 O.3     
   2 O2             1.0729    -0.1488    -5.8014 O.3     
   3 O3             1.0565    -0.5939    -0.0112 O.2     
   4 O4             0.5654     0.6365    -3.7991 O.2     
   5 N5            -4.0927    -4.1153    -0.6450 N.pl3   
   6 N6            -4.8914    -2.4176    -3.3363 N.pl3   
   7 N7            -7.1728    -3.7135     0.4604 N.pl3   
   8 N8            -7.9265    -1.5677    -2.0431 N.pl3   
   9 C9            -2.9838    -3.4495    -1.0755 C.2     
  10 C10           -3.5602    -2.2152    -3.1245 C.2     
  11 C11           -2.6006    -3.2025    -2.5115 C.3     
  12 C12           -2.2874    -3.0467     0.0075 C.2     
  13 C13           -3.2472    -0.9772    -3.5575 C.2     
  14 C14           -4.0926    -4.1320     0.7178 C.2     
  15 C15           -5.4191    -1.3002    -3.9114 C.2     
  16 C16           -2.9925    -3.4798     1.1474 C.2     
  17 C17           -4.4288    -0.3946    -4.0570 C.2     
  18 C18           -5.1379    -4.7666     1.5975 C.3     
  19 C19           -6.8561    -1.1058    -4.3200 C.3     
  20 C20           -6.3988    -3.9430     1.5605 C.2     
  21 C21           -7.7657    -1.8361    -3.3673 C.2     
  22 C22           -8.8473    -2.4276    -1.5228 C.2     
  23 C23           -8.2283    -2.9317     0.8146 C.2     
  24 C24           -9.3278    -2.4514    -0.0957 C.3     
  25 C25           -0.9927    -2.2755    -0.0007 C.3     
  26 C26           -1.8847    -0.3349    -3.5145 C.3     
  27 C27           -6.9491    -3.3090     2.6124 C.2     
  28 C28           -9.2663    -3.2504    -2.5025 C.2     
  29 C29           -8.5801    -2.8812    -3.6876 C.2     
  30 C30           -8.1211    -2.6581     2.1461 C.2     
  31 C31           -2.5917    -3.2559     2.5828 C.3     
  32 C32           -4.5625     0.9864    -4.6451 C.3     
  33 C33           -1.2926    -0.7753     0.0102 C.3     
  34 C34           -1.1317    -0.6490    -4.8088 C.3     
  35 C35           -6.4192    -3.2928     4.0230 C.3     
  36 C36          -10.2778    -4.3592    -2.3656 C.3     
  37 C37           -8.7206    -3.5103    -5.0178 C.2     
  38 C38           -9.0498    -1.8376     2.9519 C.2     
  39 C39            0.0021    -0.0041     0.0020 C.2     
  40 C40            0.2309    -0.0066    -4.7658 C.2     
  41 C41           -8.6348    -4.8276    -5.1405 C.2     
  42 C42           -9.5247    -2.3060     4.0976 C.2     
  43 H43            0.8394     1.7888     0.0037 H       
  44 H44            1.9358     0.2814    -5.7279 H       
  45 H45           -4.7721    -4.5087    -1.2147 H       
  46 H46           -5.3824    -3.2241    -3.1141 H       
  47 H47           -6.9981    -4.0528    -0.4314 H       
  48 H48           -7.4607    -0.8754    -1.5486 H       
  49 H49           -1.5887    -2.7998    -2.5534 H       
  50 H50           -2.6416    -4.1407    -3.0650 H       
  51 H51           -5.3516    -5.7734     1.2386 H       
  52 H52           -4.7679    -4.8179     2.6215 H       
  53 H53           -7.0956    -0.0426    -4.3056 H       
  54 H54           -7.0012    -1.4941    -5.3281 H       
  55 H55           -9.6291    -1.4467     0.2008 H       
  56 H56          -10.1833    -3.1218    -0.0137 H       
  57 H57           -0.4091    -2.5358     0.8824 H       
  58 H58           -0.4261    -2.5263    -0.8975 H       
  59 H59           -1.9950     0.7446    -3.4111 H       
  60 H60           -1.3253    -0.7259    -2.6646 H       
  61 H61           -3.0219    -2.3196     2.9383 H       
  62 H62           -2.9584    -4.0798     3.1951 H       
  63 H63           -1.5051    -3.2064     2.6531 H       
  64 H64           -4.3863     0.9423    -5.7199 H       
  65 H65           -5.5669     1.3658    -4.4569 H       
  66 H66           -3.8311     1.6501    -4.1840 H       
  67 H67           -1.8762    -0.5150    -0.8728 H       
  68 H68           -1.8592    -0.5245     0.9070 H       
  69 H69           -1.0213    -1.7284    -4.9121 H       
  70 H70           -1.6911    -0.2579    -5.6586 H       
  71 H71           -5.7394    -2.4497     4.1461 H       
  72 H72           -7.2498    -3.1949     4.7220 H       
  73 H73           -5.8851    -4.2221     4.2212 H       
  74 H74          -11.2754    -3.9673    -2.5638 H       
  75 H75          -10.0493    -5.1496    -3.0805 H       
  76 H76          -10.2401    -4.7624    -1.3537 H       
  77 H77           -8.8932    -2.8969    -5.8898 H       
  78 H78           -9.3415    -0.8565     2.6072 H       
  79 H79           -8.7375    -5.2873    -6.1123 H       
  80 H80           -8.4622    -5.4410    -4.2685 H       
  81 H81          -10.2032    -1.7066     4.6863 H       
  82 H82           -9.2330    -3.2871     4.4423 H       
@<TRIPOS>BOND
   1    1   39 1
   2    1   43 1
   3    2   40 1
   4    2   44 1
   5    3   39 2
   6    4   40 2
   7    5    9 1
   8    5   14 1
   9    5   45 1
  10    6   10 1
  11    6   15 1
  12    6   46 1
  13    7   20 1
  14    7   23 1
  15    7   47 1
  16    8   21 1
  17    8   22 1
  18    8   48 1
  19    9   11 1
  20    9   12 2
  21   10   11 1
  22   10   13 2
  23   11   49 1
  24   11   50 1
  25   12   16 1
  26   12   25 1
  27   13   17 1
  28   13   26 1
  29   14   16 2
  30   14   18 1
  31   15   17 2
  32   15   19 1
  33   16   31 1
  34   17   32 1
  35   18   20 1
  36   18   51 1
  37   18   52 1
  38   19   21 1
  39   19   53 1
  40   19   54 1
  41   20   27 2
  42   21   29 2
  43   22   24 1
  44   22   28 2
  45   23   24 1
  46   23   30 2
  47   24   55 1
  48   24   56 1
  49   25   33 1
  50   25   57 1
  51   25   58 1
  52   26   34 1
  53   26   59 1
  54   26   60 1
  55   27   30 1
  56   27   35 1
  57   28   29 1
  58   28   36 1
  59   29   37 1
  60   30   38 1
  61   31   61 1
  62   31   62 1
  63   31   63 1
  64   32   64 1
  65   32   65 1
  66   32   66 1
  67   33   39 1
  68   33   67 1
  69   33   68 1
  70   34   40 1
  71   34   69 1
  72   34   70 1
  73   35   71 1
  74   35   72 1
  75   35   73 1
  76   36   74 1
  77   36   75 1
  78   36   76 1
  79   37   41 2
  80   37   77 1
  81   38   42 2
  82   38   78 1
  83   41   79 1
  84   41   80 1
  85   42   81 1
  86   42   82 1

#	End of record

