#	Name: ASD01918399
#	Creating user name:	WinNT
#	Creation time:	15. 06. 2019 20:11

#	Modifying user name:	WinNT
#	Modification time:	15. 06. 2019 20:11

#	Program:	/corina/corina34_cracker 3.40 0067  02.08.2006

@<TRIPOS>MOLECULE
ASD01918399
  57   61    0    0    0
SMALL
NO_CHARGES


@<TRIPOS>ATOM
   1 C1            -0.3276     1.4749     0.2598 C.3     
   2 C2            -0.2748    -0.0310     0.2351 C.2     
   3 N3            -0.3719    -0.7778    -0.8319 N.2     
   4 C4            -0.2803    -2.0613    -0.4572 C.2     
   5 C5            -0.3381    -3.2848    -1.3546 C.3     
   6 C6             1.0471    -3.9554    -1.2896 C.3     
   7 N7             1.1932    -4.6453    -0.0179 N.am    
   8 C8             1.3481    -4.0166     1.2842 C.3     
   9 C9             0.0184    -3.3568     1.6969 C.3     
  10 C10           -0.1244    -2.0936     0.8678 C.2     
  11 O11           -0.1143    -0.8256     1.3060 O.3     
  12 C12            1.1838    -5.9927    -0.0489 C.2     
  13 O13            1.0574    -6.5741    -1.1057 O.2     
  14 C14            1.3303    -6.7768     1.2297 C.3     
  15 N15            1.2891    -8.2104     0.9308 N.pl3   
  16 N16            0.1451    -9.0212     0.8556 N.2     
  17 C17            0.5561   -10.2368     0.5648 C.2     
  18 N18            1.8890   -10.2300     0.4546 N.2     
  19 C19            2.3456    -9.0139     0.6667 C.2     
  20 C20            3.7655    -8.5988     0.6270 C.ar    
  21 C21            4.7772    -9.5499     0.7596 C.ar    
  22 C22            6.0992    -9.1566     0.7212 C.ar    
  23 C23            6.4223    -7.8222     0.5517 C.ar    
  24 C24            5.4235    -6.8741     0.4196 C.ar    
  25 C25            4.0978    -7.2554     0.4510 C.ar    
  26 C26           -0.3177   -11.4234     0.3885 C.ar    
  27 C27           -1.6987   -11.3005     0.5250 C.ar    
  28 C28           -2.5075   -12.4064     0.3603 C.ar    
  29 C29           -1.9480   -13.6375     0.0597 C.ar    
  30 F30           -2.7434   -14.7176    -0.1012 F       
  31 C31           -0.5749   -13.7642    -0.0770 C.ar    
  32 C32            0.0280   -15.1059    -0.4046 C.3     
  33 C33            0.2405   -12.6626     0.0803 C.ar    
  34 H34            0.6790     1.8757     0.1410 H       
  35 H35           -0.9585     1.8297    -0.5551 H       
  36 H36           -0.7416     1.8083     1.2114 H       
  37 H37           -1.1023    -3.9739    -0.9952 H       
  38 H38           -0.5585    -2.9847    -2.3790 H       
  39 H39            1.1421    -4.6725    -2.1049 H       
  40 H40            1.8232    -3.1956    -1.3819 H       
  41 H41            1.6237    -4.7707     2.0213 H       
  42 H42            2.1290    -3.2580     1.2308 H       
  43 H43           -0.8118    -4.0325     1.4915 H       
  44 H44            0.0413    -3.1053     2.7572 H       
  45 H45            2.2826    -6.5309     1.6996 H       
  46 H46            0.5147    -6.5233     1.9069 H       
  47 H47            4.5263   -10.5920     0.8924 H       
  48 H48            6.8835    -9.8920     0.8242 H       
  49 H49            7.4585    -7.5192     0.5227 H       
  50 H50            5.6820    -5.8338     0.2878 H       
  51 H51            3.3190    -6.5149     0.3436 H       
  52 H52           -2.1356   -10.3411     0.7598 H       
  53 H53           -3.5781   -12.3121     0.4663 H       
  54 H54            0.0928   -15.2207    -1.4866 H       
  55 H55            1.0263   -15.1711     0.0281 H       
  56 H56           -0.5990   -15.8965     0.0077 H       
  57 H57            1.3102   -12.7612    -0.0311 H       
@<TRIPOS>BOND
   1    1    2 1
   2    1   34 1
   3    1   35 1
   4    1   36 1
   5    2   11 1
   6    2    3 2
   7    3    4 1
   8    4   10 2
   9    4    5 1
  10    5    6 1
  11    5   37 1
  12    5   38 1
  13    6    7 1
  14    6   39 1
  15    6   40 1
  16    7    8 1
  17    7   12 am
  18    8    9 1
  19    8   41 1
  20    8   42 1
  21    9   10 1
  22    9   43 1
  23    9   44 1
  24   10   11 1
  25   12   13 2
  26   12   14 1
  27   14   15 1
  28   14   45 1
  29   14   46 1
  30   15   19 1
  31   15   16 1
  32   16   17 2
  33   17   18 1
  34   17   26 1
  35   18   19 2
  36   19   20 1
  37   20   25 ar
  38   20   21 ar
  39   21   22 ar
  40   21   47 1
  41   22   23 ar
  42   22   48 1
  43   23   24 ar
  44   23   49 1
  45   24   25 ar
  46   24   50 1
  47   25   51 1
  48   26   33 ar
  49   26   27 ar
  50   27   28 ar
  51   27   52 1
  52   28   29 ar
  53   28   53 1
  54   29   30 1
  55   29   31 ar
  56   31   32 1
  57   31   33 ar
  58   32   54 1
  59   32   55 1
  60   32   56 1
  61   33   57 1

#	End of record

