#	Name: ASD01882260
#	Creating user name:	WinNT
#	Creation time:	15. 06. 2019 19:44

#	Modifying user name:	WinNT
#	Modification time:	15. 06. 2019 19:44

#	Program:	/corina/corina34_cracker 3.40 0067  02.08.2006

@<TRIPOS>MOLECULE
ASD01882260
  49   53    0    0    0
SMALL
NO_CHARGES


@<TRIPOS>ATOM
   1 C1             1.7874     0.4786     1.3020 C.ar    
   2 C2             1.8849    -0.8882     1.1198 C.ar    
   3 C3             0.8127    -1.7047     1.4277 C.ar    
   4 C4            -0.3567    -1.1544     1.9182 C.ar    
   5 C5            -0.4538     0.2123     2.1013 C.ar    
   6 C6             0.6199     1.0283     1.7975 C.ar    
   7 C7             2.9562     1.3687     0.9663 C.3     
   8 C8             2.7404     2.4467    -0.0977 C.3     
   9 C9             2.8641     2.8400     1.3757 C.3     
  10 N10            3.8704     2.7633    -0.9814 N.3     
  11 C11            3.4011     3.3197    -2.2574 C.3     
  12 C12            4.5855     3.6314    -3.1355 C.2     
  13 C13            5.2576     4.8587    -3.0039 C.2     
  14 C14            6.3185     5.1430    -3.7881 C.2     
  15 N15            6.7531     4.2445    -4.7175 N.pl3   
  16 C16            6.1169     3.0368    -4.8690 C.2     
  17 C17            5.0116     2.7237    -4.0545 C.2     
  18 C18            7.7660     4.2483    -5.6260 C.2     
  19 N19            7.7223     3.1099    -6.2687 N.2     
  20 N20            6.7526     2.3867    -5.8300 N.2     
  21 C21            4.3022     1.4029    -4.2071 C.3     
  22 F22            3.1216     1.5889    -4.9342 F       
  23 F23            5.1315     0.5039    -4.8863 F       
  24 F24            3.9951     0.8897    -2.9424 F       
  25 C25            8.7569     5.3612    -5.8510 C.3     
  26 C26            9.9734     5.1513    -4.9472 C.3     
  27 C27           11.1502     6.1153    -5.1113 C.3     
  28 C28           10.2500     6.2100    -3.8778 C.3     
  29 H29            2.7985    -1.3182     0.7366 H       
  30 H30            0.8886    -2.7725     1.2847 H       
  31 H31           -1.1945    -1.7923     2.1581 H       
  32 H32           -1.3675     0.6422     2.4842 H       
  33 H33            0.5440     2.0961     1.9405 H       
  34 H34            3.9365     0.8941     1.0104 H       
  35 H35            1.7531     2.5122    -0.5549 H       
  36 H36            1.9581     3.1642     1.8878 H       
  37 H37            3.7839     3.3337     1.6893 H       
  38 H38            4.5180     3.3914    -0.5294 H       
  39 H39            2.7599     2.5932    -2.7566 H       
  40 H40            2.8374     4.2336    -2.0698 H       
  41 H41            4.9230     5.5784    -2.2715 H       
  42 H42            6.8271     6.0895    -3.6789 H       
  43 H43            9.0745     5.3596    -6.8938 H       
  44 H44            8.2895     6.3172    -5.6150 H       
  45 H45           10.2027     4.1146    -4.7007 H       
  46 H46           12.1536     5.7129    -4.9724 H       
  47 H47           11.0577     6.8990    -5.8632 H       
  48 H48            9.5653     7.0560    -3.8181 H       
  49 H49           10.6612     5.8699    -2.9273 H       
@<TRIPOS>BOND
   1    1    2 ar
   2    1    7 1
   3    1    6 ar
   4    2    3 ar
   5    2   29 1
   6    3    4 ar
   7    3   30 1
   8    4    5 ar
   9    4   31 1
  10    5    6 ar
  11    5   32 1
  12    6   33 1
  13    7    8 1
  14    7    9 1
  15    7   34 1
  16    8    9 1
  17    8   10 1
  18    8   35 1
  19    9   36 1
  20    9   37 1
  21   10   11 1
  22   10   38 1
  23   11   12 1
  24   11   39 1
  25   11   40 1
  26   12   13 1
  27   12   17 2
  28   13   14 2
  29   13   41 1
  30   14   15 1
  31   14   42 1
  32   15   16 1
  33   15   18 1
  34   16   17 1
  35   16   20 2
  36   17   21 1
  37   18   19 2
  38   18   25 1
  39   19   20 1
  40   21   22 1
  41   21   23 1
  42   21   24 1
  43   25   26 1
  44   25   43 1
  45   25   44 1
  46   26   27 1
  47   26   28 1
  48   26   45 1
  49   27   28 1
  50   27   46 1
  51   27   47 1
  52   28   48 1
  53   28   49 1

#	End of record

