#	Name: ASD00170827
#	Creating user name:	WinNT
#	Creation time:	15. 06. 2019 18:32

#	Modifying user name:	WinNT
#	Modification time:	15. 06. 2019 18:32

#	Program:	/corina/corina34_cracker 3.40 0067  02.08.2006

@<TRIPOS>MOLECULE
ASD00170827
  49   53    0    0    0
SMALL
NO_CHARGES


@<TRIPOS>ATOM
   1 C1             0.4917     0.6455     1.0255 C.2     
   2 N2            -0.0581     0.1233    -0.0857 N.am    
   3 C3             0.5931     0.5364    -1.1880 C.2     
   4 C4             1.6961     1.4296    -0.7764 C.ar    
   5 C5             2.6764     2.1342    -1.4567 C.ar    
   6 C6             3.5871     2.9025    -0.7484 C.ar    
   7 C7             3.5239     2.9705     0.6308 C.ar    
   8 C8             2.5489     2.2713     1.3250 C.ar    
   9 C9             1.6317     1.4990     0.6304 C.ar    
  10 O10            0.1117     0.4521     2.1625 O.2     
  11 O11            0.3204     0.2267    -2.3301 O.2     
  12 C12           -1.1515    -0.7288    -0.0937 C.2     
  13 C13           -1.0766    -2.1030    -0.1292 C.2     
  14 C14           -2.3222    -2.7330    -0.1298 C.2     
  15 C15           -3.3590    -1.8809    -0.0957 C.2     
  16 S16           -2.7803    -0.2232    -0.0537 S.3     
  17 C17           -2.4878    -4.2304    -0.1660 C.3     
  18 C18           -4.7796    -2.2796    -0.0884 C.ar    
  19 C19           -5.2226    -3.2720     0.7916 C.ar    
  20 C20           -6.5373    -3.6412     0.7986 C.ar    
  21 C21           -7.4409    -3.0262    -0.0742 C.ar    
  22 C22           -6.9977    -2.0332    -0.9540 C.ar    
  23 C23           -5.6838    -1.6610    -0.9573 C.ar    
  24 C24           -8.8195    -3.4135    -0.0674 C.1     
  25 N25           -9.9132    -3.7208    -0.0620 N.1     
  26 C26            0.1928    -2.8362    -0.1640 C.2     
  27 C27            0.8930    -3.1620     1.0966 C.ar    
  28 C28            2.1577    -3.7529     1.0635 C.ar    
  29 C29            2.8057    -4.0545     2.2426 C.ar    
  30 C30            2.2047    -3.7724     3.4583 C.ar    
  31 C31            0.9502    -3.1863     3.4976 C.ar    
  32 C32            0.2947    -2.8748     2.3252 C.ar    
  33 O33            0.6700    -3.1766    -1.2308 O.2     
  34 Cl34           3.0266    -4.1556     4.9386 Cl      
  35 H35            2.7309     2.0846    -2.5342 H       
  36 H36            4.3517     3.4516    -1.2778 H       
  37 H37            4.2394     3.5724     1.1713 H       
  38 H38            2.5046     2.3279     2.4026 H       
  39 H39           -2.4317    -4.6267     0.8479 H       
  40 H40           -3.4563    -4.4785    -0.6000 H       
  41 H41           -1.6950    -4.6691    -0.7719 H       
  42 H42           -4.5248    -3.7468     1.4654 H       
  43 H43           -6.8792    -4.4082     1.4777 H       
  44 H44           -7.6951    -1.5585    -1.6283 H       
  45 H45           -5.3422    -0.8916    -1.6339 H       
  46 H46            2.6271    -3.9736     0.1162 H       
  47 H47            3.7838    -4.5119     2.2182 H       
  48 H48            0.4865    -2.9690     4.4485 H       
  49 H49           -0.6814    -2.4137     2.3570 H       
@<TRIPOS>BOND
   1    1    2 am
   2    1    9 1
   3    1   10 2
   4    2    3 am
   5    2   12 1
   6    3    4 1
   7    3   11 2
   8    4    5 ar
   9    4    9 ar
  10    5    6 ar
  11    5   35 1
  12    6    7 ar
  13    6   36 1
  14    7    8 ar
  15    7   37 1
  16    8    9 ar
  17    8   38 1
  18   12   13 2
  19   12   16 1
  20   13   14 1
  21   13   26 1
  22   14   15 2
  23   14   17 1
  24   15   16 1
  25   15   18 1
  26   17   39 1
  27   17   40 1
  28   17   41 1
  29   18   19 ar
  30   18   23 ar
  31   19   20 ar
  32   19   42 1
  33   20   21 ar
  34   20   43 1
  35   21   22 ar
  36   21   24 1
  37   22   23 ar
  38   22   44 1
  39   23   45 1
  40   24   25 3
  41   26   27 1
  42   26   33 2
  43   27   28 ar
  44   27   32 ar
  45   28   29 ar
  46   28   46 1
  47   29   30 ar
  48   29   47 1
  49   30   31 ar
  50   30   34 1
  51   31   32 ar
  52   31   48 1
  53   32   49 1

#	End of record

