#	Name: ASD01885548
#	Creating user name:	WinNT
#	Creation time:	15. 06. 2019 19:49

#	Modifying user name:	WinNT
#	Modification time:	15. 06. 2019 19:49

#	Program:	/corina/corina34_cracker 3.40 0067  02.08.2006

@<TRIPOS>MOLECULE
ASD01885548
  46   49    0    0    0
SMALL
NO_CHARGES


@<TRIPOS>ATOM
   1 C1            -0.0164     1.3562     0.0095 C.ar    
   2 C2             0.0021    -0.0041     0.0020 C.ar    
   3 C3             1.2056    -0.7065    -0.0128 C.ar    
   4 C4             2.3987    -0.0485    -0.0201 C.ar    
   5 C5             2.4182     1.3524    -0.0133 C.ar    
   6 C6             1.1966     2.0714     0.0018 C.ar    
   7 C7             3.6403     2.0713    -0.0201 C.ar    
   8 C8             3.5784     3.4584    -0.0121 C.ar    
   9 C9             2.3317     4.0924     0.0021 C.ar    
  10 N10            1.2050     3.4049     0.0084 N.ar    
  11 C11            4.9416     1.3649    -0.0347 C.2     
  12 C12            2.2744     5.5742     0.0110 C.2     
  13 O13            3.3023     6.2219     0.0059 O.2     
  14 N14            1.0821     6.2024     0.0248 N.am    
  15 C15           -1.2996    -0.7634     0.0104 C.3     
  16 C16           -1.7471    -1.0088    -1.4076 C.ar    
  17 C17            5.3334     0.3199     0.8275 C.2     
  18 N18            6.5460    -0.0402     0.5023 N.2     
  19 N19            6.9745     0.7516    -0.5698 N.pl3   
  20 C20            5.9810     1.6024    -0.8903 C.2     
  21 C21            8.2781     0.6658    -1.2326 C.3     
  22 N22           -1.8803     0.0098    -2.2346 N.ar    
  23 C23           -2.2686    -0.1573    -3.4836 C.ar    
  24 C24           -2.5520    -1.4185    -3.9732 C.ar    
  25 C25           -2.4233    -2.5138    -3.1332 C.ar    
  26 C26           -2.0076    -2.2992    -1.8278 C.ar    
  27 C27           -2.4055     1.0407    -4.3876 C.3     
  28 F28           -1.9610     2.1847    -3.7162 F       
  29 F29           -1.6347     0.8466    -5.5389 F       
  30 F30           -3.7478     1.2028    -4.7469 F       
  31 H31           -0.9577     1.8855     0.0168 H       
  32 H32            1.1924    -1.7864    -0.0181 H       
  33 H33            3.3248    -0.6040    -0.0309 H       
  34 H34            4.4863     4.0434    -0.0166 H       
  35 H35            0.2615     5.6853     0.0289 H       
  36 H36            1.0446     7.1717     0.0306 H       
  37 H37           -1.1602    -1.7179     0.5178 H       
  38 H38           -2.0569    -0.1805     0.5346 H       
  39 H39            4.7353    -0.1076     1.6186 H       
  40 H40            6.0024     2.3400    -1.6789 H       
  41 H41            8.2200    -0.0436    -2.0581 H       
  42 H42            8.5560     1.6475    -1.6161 H       
  43 H43            9.0283     0.3297    -0.5168 H       
  44 H44           -2.8699    -1.5489    -4.9970 H       
  45 H45           -2.6382    -3.5109    -3.4881 H       
  46 H46           -1.8927    -3.1297    -1.1470 H       
@<TRIPOS>BOND
   1    1    2 ar
   2    1    6 ar
   3    1   31 1
   4    2    3 ar
   5    2   15 1
   6    3    4 ar
   7    3   32 1
   8    4    5 ar
   9    4   33 1
  10    5    7 ar
  11    5    6 ar
  12    6   10 ar
  13    7    8 ar
  14    7   11 1
  15    8    9 ar
  16    8   34 1
  17    9   10 ar
  18    9   12 1
  19   11   17 1
  20   11   20 2
  21   12   13 2
  22   12   14 am
  23   14   35 1
  24   14   36 1
  25   15   16 1
  26   15   37 1
  27   15   38 1
  28   16   22 ar
  29   16   26 ar
  30   17   18 2
  31   17   39 1
  32   18   19 1
  33   19   20 1
  34   19   21 1
  35   20   40 1
  36   21   41 1
  37   21   42 1
  38   21   43 1
  39   22   23 ar
  40   23   24 ar
  41   23   27 1
  42   24   25 ar
  43   24   44 1
  44   25   26 ar
  45   25   45 1
  46   26   46 1
  47   27   28 1
  48   27   29 1
  49   27   30 1

#	End of record

