#	Name: ASD05730005
#	Creating user name:	WinNT
#	Creation time:	15. 06. 2019 21:02

#	Modifying user name:	WinNT
#	Modification time:	15. 06. 2019 21:02

#	Program:	/corina/corina34_cracker 3.40 0067  02.08.2006

@<TRIPOS>MOLECULE
ASD05730005
  56   60    0    0    0
SMALL
NO_CHARGES


@<TRIPOS>ATOM
   1 N1            -0.0048     1.3210     0.2577 N.ar    
   2 C2             0.0130    -0.0055     0.2477 C.ar    
   3 N3             1.1341    -0.7014     0.1534 N.ar    
   4 C4             2.3039    -0.0809     0.0636 C.ar    
   5 C5             2.3247     1.3308     0.0711 C.ar    
   6 C6             1.1126     2.0215     0.1727 C.ar    
   7 N7             3.4824    -0.7743    -0.0348 N.am    
   8 C8             4.6590    -0.1290    -0.1241 C.2     
   9 C9             4.7367     1.2789    -0.1213 C.2     
  10 C10            3.6056     2.0251    -0.0276 C.2     
  11 O11           -1.1612    -0.6727     0.3380 O.3     
  12 C12           -2.3028     0.0563     0.4347 C.ar    
  13 C13           -3.5354    -0.5860     0.5298 C.ar    
  14 C14           -4.6718     0.2000     0.6269 C.ar    
  15 C15           -4.5113     1.5838     0.6234 C.ar    
  16 N16           -3.3000     2.1056     0.5291 N.ar    
  17 N17           -2.2466     1.3772     0.4442 N.ar    
  18 O18           -5.5962     2.3948     0.7160 O.3     
  19 O19            5.6864    -0.7790    -0.2094 O.2     
  20 C20            3.4599    -2.2391    -0.0425 C.3     
  21 C21           -6.6873     4.5488     0.8182 C.3     
  22 C22           -5.3558     3.8035     0.7062 C.3     
  23 C23            4.1383    -2.9621     1.1229 C.3     
  24 C24            2.6118    -2.9381     1.0220 C.3     
  25 C25           -7.3222     4.2916     2.2005 C.3     
  26 C26           -7.9755     5.6448     2.5761 C.3     
  27 C27           -6.9522     6.6781     2.0429 C.3     
  28 C28           -6.4521     6.0661     0.7180 C.3     
  29 C29           -7.6337     8.0239     1.7875 C.3     
  30 O30           -8.0626     8.5841     3.0302 O.3     
  31 C31            3.6710     3.5307    -0.0232 C.3     
  32 H32            1.0903     3.1013     0.1811 H       
  33 H33            5.6982     1.7653    -0.1945 H       
  34 H34           -3.6028    -1.6639     0.5275 H       
  35 H35           -5.6523    -0.2463     0.7027 H       
  36 H36            3.5179    -2.7050    -1.0261 H       
  37 H37           -7.3651     4.2224     0.0295 H       
  38 H38           -4.7186     4.0692     1.5497 H       
  39 H39           -4.8612     4.0812    -0.2245 H       
  40 H40            4.6422    -3.9039     0.9059 H       
  41 H41            4.6013    -2.3479     1.8952 H       
  42 H42            2.0706    -2.3081     1.7279 H       
  43 H43            2.1115    -3.8641     0.7386 H       
  44 H44           -8.0777     3.5088     2.1336 H       
  45 H45           -6.5563     4.0227     2.9280 H       
  46 H46           -8.9376     5.7610     2.0771 H       
  47 H47           -8.0865     5.7334     3.6568 H       
  48 H48           -6.1266     6.7946     2.7449 H       
  49 H49           -5.3893     6.2715     0.5896 H       
  50 H50           -7.0161     6.4769    -0.1194 H       
  51 H51           -6.9291     8.7026     1.3069 H       
  52 H52           -8.4968     7.8767     1.1382 H       
  53 H53           -8.5043     9.4400     2.9442 H       
  54 H54            4.7103     3.8494    -0.1029 H       
  55 H55            3.1053     3.9214    -0.8690 H       
  56 H56            3.2447     3.9102     0.9054 H       
@<TRIPOS>BOND
   1    1    2 ar
   2    1    6 ar
   3    2    3 ar
   4    2   11 1
   5    3    4 ar
   6    4    5 ar
   7    4    7 1
   8    5    6 ar
   9    5   10 1
  10    6   32 1
  11    7    8 am
  12    7   20 1
  13    8    9 1
  14    8   19 2
  15    9   10 2
  16    9   33 1
  17   10   31 1
  18   11   12 1
  19   12   13 ar
  20   12   17 ar
  21   13   14 ar
  22   13   34 1
  23   14   15 ar
  24   14   35 1
  25   15   16 ar
  26   15   18 1
  27   16   17 ar
  28   18   22 1
  29   20   23 1
  30   20   24 1
  31   20   36 1
  32   21   22 1
  33   21   25 1
  34   21   28 1
  35   21   37 1
  36   22   38 1
  37   22   39 1
  38   23   24 1
  39   23   40 1
  40   23   41 1
  41   24   42 1
  42   24   43 1
  43   25   26 1
  44   25   44 1
  45   25   45 1
  46   26   27 1
  47   26   46 1
  48   26   47 1
  49   27   28 1
  50   27   29 1
  51   27   48 1
  52   28   49 1
  53   28   50 1
  54   29   30 1
  55   29   51 1
  56   29   52 1
  57   30   53 1
  58   31   54 1
  59   31   55 1
  60   31   56 1

#	End of record

