#	Name: ASD01150271
#	Creating user name:	WinNT
#	Creation time:	15. 06. 2019 19:03

#	Modifying user name:	WinNT
#	Modification time:	15. 06. 2019 19:03

#	Program:	/corina/corina34_cracker 3.40 0067  02.08.2006

@<TRIPOS>MOLECULE
ASD01150271
  64   66    0    0    0
SMALL
NO_CHARGES


@<TRIPOS>ATOM
   1 C1            -0.0158     1.3123     0.0093 C.2     
   2 N2             0.0021    -0.0041     0.0020 N.2     
   3 C3            -1.2464    -0.4793     0.0114 C.2     
   4 C4            -2.1135     0.6064     0.0255 C.2     
   5 N5            -1.3045     1.7452     0.0298 N.pl3   
   6 N6             1.0958     2.1231     0.0030 N.3     
   7 C7             2.3292     1.3253    -0.0137 C.3     
   8 C8             1.0586     3.0586    -1.1289 C.3     
   9 C9            -1.7378     3.0773     0.0436 C.ar    
  10 N10           -1.6126    -1.8197     0.0070 N.am    
  11 C11           -3.5222     0.5667     0.0387 C.2     
  12 O12           -4.2300     1.7167     0.0511 O.3     
  13 O13           -4.1011    -0.5047     0.0389 O.2     
  14 C14           -5.6543     1.6017     0.0641 C.3     
  15 C15           -6.0927     0.8356     1.3138 C.3     
  16 C16           -6.2786     2.9985     0.0769 C.3     
  17 C17           -6.1165     0.8480    -1.1845 C.3     
  18 C18           -1.4631     3.8869     1.1378 C.ar    
  19 C19           -1.8913     5.2000     1.1482 C.ar    
  20 C20           -2.5928     5.7085     0.0706 C.ar    
  21 C21           -2.8683     4.9047    -1.0203 C.ar    
  22 C22           -2.4379     3.5924    -1.0392 C.ar    
  23 C23           -0.6642    -2.7773    -0.0075 C.2     
  24 C24           -1.0522    -4.1978    -0.0121 C.ar    
  25 O25            0.5120    -2.4681    -0.0167 O.2     
  26 C26           -2.4038    -4.5565    -0.0016 C.ar    
  27 C27           -2.7622    -5.8847    -0.0065 C.ar    
  28 C28           -1.7842    -6.8745    -0.0214 C.ar    
  29 C29           -0.4404    -6.5299    -0.0320 C.ar    
  30 C30           -0.0670    -5.1973    -0.0331 C.ar    
  31 O31            1.2465    -4.8584    -0.0438 O.3     
  32 C32            2.1927    -5.9291    -0.0537 C.3     
  33 O33           -2.1465    -8.1824    -0.0252 O.3     
  34 C34           -3.5467    -8.4677    -0.0134 C.3     
  35 H35            2.3464     0.7016    -0.9074 H       
  36 H36            3.1923     1.9909    -0.0183 H       
  37 H37            2.3639     0.6915     0.8724 H       
  38 H38            0.1697     3.6849    -1.0537 H       
  39 H39            1.9487     3.6875    -1.1100 H       
  40 H40            1.0299     2.4977    -2.0631 H       
  41 H41           -2.5507    -2.0663     0.0143 H       
  42 H42           -5.7634     1.3726     2.2033 H       
  43 H43           -7.1792     0.7479     1.3237 H       
  44 H44           -5.6480    -0.1595     1.3046 H       
  45 H45           -5.9662     3.5443    -0.8134 H       
  46 H46           -7.3650     2.9108     0.0869 H       
  47 H47           -5.9493     3.5355     0.9665 H       
  48 H48           -5.6717    -0.1471    -1.1937 H       
  49 H49           -7.2029     0.7603    -1.1746 H       
  50 H50           -5.8042     1.3938    -2.0749 H       
  51 H51           -0.9155     3.4901     1.9799 H       
  52 H52           -1.6782     5.8300     1.9991 H       
  53 H53           -2.9266     6.7356     0.0811 H       
  54 H54           -3.4170     5.3045    -1.8602 H       
  55 H55           -2.6533     2.9651    -1.8915 H       
  56 H56           -3.1658    -3.7912     0.0107 H       
  57 H57           -3.8064    -6.1602     0.0017 H       
  58 H58            0.3147    -7.3020    -0.0432 H       
  59 H59            2.0560    -6.5431     0.8365 H       
  60 H60            2.0406    -6.5402    -0.9434 H       
  61 H61            3.2034    -5.5209    -0.0618 H       
  62 H62           -3.9967    -8.0418     0.8834 H       
  63 H63           -4.0138    -8.0318    -0.8965 H       
  64 H64           -3.6975    -9.5472    -0.0179 H       
@<TRIPOS>BOND
   1    1    2 2
   2    1    6 1
   3    1    5 1
   4    2    3 1
   5    3    4 2
   6    3   10 1
   7    4    5 1
   8    4   11 1
   9    5    9 1
  10    6    7 1
  11    6    8 1
  12    7   35 1
  13    7   36 1
  14    7   37 1
  15    8   38 1
  16    8   39 1
  17    8   40 1
  18    9   18 ar
  19    9   22 ar
  20   10   23 am
  21   10   41 1
  22   11   12 1
  23   11   13 2
  24   12   14 1
  25   14   15 1
  26   14   16 1
  27   14   17 1
  28   15   42 1
  29   15   43 1
  30   15   44 1
  31   16   45 1
  32   16   46 1
  33   16   47 1
  34   17   48 1
  35   17   49 1
  36   17   50 1
  37   18   19 ar
  38   18   51 1
  39   19   20 ar
  40   19   52 1
  41   20   21 ar
  42   20   53 1
  43   21   22 ar
  44   21   54 1
  45   22   55 1
  46   23   24 1
  47   23   25 2
  48   24   26 ar
  49   24   30 ar
  50   26   27 ar
  51   26   56 1
  52   27   28 ar
  53   27   57 1
  54   28   29 ar
  55   28   33 1
  56   29   30 ar
  57   29   58 1
  58   30   31 1
  59   31   32 1
  60   32   59 1
  61   32   60 1
  62   32   61 1
  63   33   34 1
  64   34   62 1
  65   34   63 1
  66   34   64 1

#	End of record

