#	Name: ASD01912617
#	Creating user name:	WinNT
#	Creation time:	15. 06. 2019 20:00

#	Modifying user name:	WinNT
#	Modification time:	15. 06. 2019 20:00

#	Program:	/corina/corina34_cracker 3.40 0067  02.08.2006

@<TRIPOS>MOLECULE
ASD01912617
  39   41    0    0    0
SMALL
NO_CHARGES


@<TRIPOS>ATOM
   1 C1            -0.0166     1.3732     0.0096 C.2     
   2 C2             0.0021    -0.0041     0.0020 C.2     
   3 C3             1.2408    -0.6894    -0.0135 C.2     
   4 C4             2.3981     0.0212    -0.0207 C.2     
   5 C5             2.3511     1.4286    -0.0127 C.2     
   6 N6             1.1465     2.0734     0.0022 N.pl3   
   7 N7             3.2991     2.3596    -0.0160 N.2     
   8 C8             2.7438     3.5629    -0.0038 C.2     
   9 N9             1.4368     3.4454     0.0076 N.2     
  10 C10           -1.2265    -0.7398     0.0102 C.1     
  11 C11           -2.2337    -1.3429     0.0170 C.1     
  12 C12           -3.4622    -2.0786     0.0252 C.ar    
  13 C13           -3.4439    -3.4758     0.0175 C.ar    
  14 C14           -4.6311    -4.1777     0.0255 C.ar    
  15 C15           -5.8384    -3.5016     0.0406 C.ar    
  16 C16           -5.8644    -2.1180     0.0483 C.ar    
  17 C17           -4.6851    -1.4028     0.0468 C.ar    
  18 C18            3.4983     4.8674    -0.0035 C.3     
  19 C19            4.3904     4.9404     1.2373 C.3     
  20 C20            4.3655     4.9552    -1.2610 C.3     
  21 O21            2.5706     5.9542     0.0122 O.3     
  22 C22            3.1862     7.2438     0.0137 C.3     
  23 H23           -0.9604     1.8982     0.0169 H       
  24 H24            1.2653    -1.7691    -0.0191 H       
  25 H25            3.3493    -0.4902    -0.0321 H       
  26 H26           -2.5024    -4.0048     0.0051 H       
  27 H27           -4.6185    -5.2576     0.0196 H       
  28 H28           -6.7650    -4.0564     0.0460 H       
  29 H29           -6.8103    -1.5970     0.0597 H       
  30 H30           -4.7068    -0.3230     0.0531 H       
  31 H31            5.0980     4.1114     1.2253 H       
  32 H32            4.9361     5.8839     1.2375 H       
  33 H33            3.7726     4.8778     2.1332 H       
  34 H34            3.7299     4.9032    -2.1450 H       
  35 H35            4.9112     5.8988    -1.2608 H       
  36 H36            5.0731     4.1262    -1.2730 H       
  37 H37            3.8152     7.3451     0.8981 H       
  38 H38            3.7975     7.3557    -0.8818 H       
  39 H39            2.4153     8.0144     0.0260 H       
@<TRIPOS>BOND
   1    1    2 2
   2    1    6 1
   3    1   23 1
   4    2    3 1
   5    2   10 1
   6    3    4 2
   7    3   24 1
   8    4    5 1
   9    4   25 1
  10    5    6 1
  11    5    7 2
  12    6    9 1
  13    7    8 1
  14    8    9 2
  15    8   18 1
  16   10   11 3
  17   11   12 1
  18   12   13 ar
  19   12   17 ar
  20   13   14 ar
  21   13   26 1
  22   14   15 ar
  23   14   27 1
  24   15   16 ar
  25   15   28 1
  26   16   17 ar
  27   16   29 1
  28   17   30 1
  29   18   19 1
  30   18   20 1
  31   18   21 1
  32   19   31 1
  33   19   32 1
  34   19   33 1
  35   20   34 1
  36   20   35 1
  37   20   36 1
  38   21   22 1
  39   22   37 1
  40   22   38 1
  41   22   39 1

#	End of record

