#	Name: ASD01901455
#	Creating user name:	WinNT
#	Creation time:	15. 06. 2019 19:53

#	Modifying user name:	WinNT
#	Modification time:	15. 06. 2019 19:53

#	Program:	/corina/corina34_cracker 3.40 0067  02.08.2006

@<TRIPOS>MOLECULE
ASD01901455
  38   41    0    0    0
SMALL
NO_CHARGES


@<TRIPOS>ATOM
   1 C1            -0.0169     1.3941     0.0097 C.ar    
   2 C2             1.1753     2.0984     0.0021 C.ar    
   3 C3             2.3817     1.4191    -0.0135 C.ar    
   4 C4             2.4024     0.0337    -0.0216 C.ar    
   5 C5             1.2200    -0.6786    -0.0137 C.ar    
   6 C6             0.0021    -0.0041     0.0020 C.ar    
   7 C7            -1.2712    -0.7661     0.0101 C.2     
   8 N8            -3.1793    -1.5364    -1.1479 N.2     
   9 C9            -2.0555    -0.8622    -1.1600 C.2     
  10 C10           -1.6985    -1.3898     1.1488 C.2     
  11 N11           -2.8732    -2.0822     1.1215 N.pl3   
  12 C12           -3.6088    -2.1475    -0.0336 C.2     
  13 C13           -3.5509    -2.7950     2.0735 C.2     
  14 C14           -4.6697    -3.2736     1.4890 C.2     
  15 N15           -4.6908    -2.8720     0.2147 N.2     
  16 C16           -5.7206    -4.1186     2.1619 C.3     
  17 O17           -5.3528    -4.3400     3.5249 O.3     
  18 C18           -6.1999    -5.0895     4.2786 C.ar    
  19 C19           -5.9154    -5.3454     5.6163 C.ar    
  20 C20           -7.3632    -5.6053     3.7267 C.ar    
  21 N21           -8.1881    -6.3324     4.4542 N.ar    
  22 C22           -7.9456    -6.5975     5.7227 C.ar    
  23 C23           -6.8091    -6.1140     6.3441 C.ar    
  24 F24            3.5429     2.1096    -0.0213 F       
  25 O25           -1.2013     2.0594     0.0303 O.3     
  26 H26            1.1641     3.1784     0.0080 H       
  27 H27            3.3466    -0.4905    -0.0345 H       
  28 H28            1.2396    -1.7584    -0.0204 H       
  29 H29           -1.7284    -0.3779    -2.0683 H       
  30 H30           -1.1148    -1.3355     2.0559 H       
  31 H31           -3.2476    -2.9462     3.0990 H       
  32 H32           -6.6804    -3.6034     2.1237 H       
  33 H33           -5.8014    -5.0760     1.6472 H       
  34 H34           -5.0196    -4.9547     6.0759 H       
  35 H35           -7.5959    -5.4089     2.6905 H       
  36 H36           -8.6462    -7.1968     6.2851 H       
  37 H37           -6.6201    -6.3332     7.3846 H       
  38 H38           -1.5315     2.2473     0.9195 H       
@<TRIPOS>BOND
   1    1    6 ar
   2    1    2 ar
   3    1   25 1
   4    2    3 ar
   5    2   26 1
   6    3    4 ar
   7    3   24 1
   8    4    5 ar
   9    4   27 1
  10    5    6 ar
  11    5   28 1
  12    6    7 1
  13    7   10 2
  14    7    9 1
  15    8    9 2
  16    8   12 1
  17    9   29 1
  18   10   11 1
  19   10   30 1
  20   11   13 1
  21   11   12 1
  22   12   15 2
  23   13   14 2
  24   13   31 1
  25   14   15 1
  26   14   16 1
  27   16   17 1
  28   16   32 1
  29   16   33 1
  30   17   18 1
  31   18   20 ar
  32   18   19 ar
  33   19   23 ar
  34   19   34 1
  35   20   21 ar
  36   20   35 1
  37   21   22 ar
  38   22   23 ar
  39   22   36 1
  40   23   37 1
  41   25   38 1

#	End of record

