#	Name: ASD07480013
#	Creating user name:	WinNT
#	Creation time:	15. 06. 2019 21:11

#	Modifying user name:	WinNT
#	Modification time:	15. 06. 2019 21:11

#	Program:	/corina/corina34_cracker 3.40 0067  02.08.2006

@<TRIPOS>MOLECULE
ASD07480013
  55   58    0    0    0
SMALL
NO_CHARGES


@<TRIPOS>ATOM
   1 C1            -0.0170     1.4053     0.0098 C.2     
   2 C2             0.0021    -0.0041     0.0020 C.2     
   3 N3             1.1573    -0.6478    -0.0125 N.2     
   4 C4             2.3106     0.0213    -0.0199 C.2     
   5 N5             2.3290     1.3868    -0.0127 N.pl3   
   6 C6             1.1537     2.0831     0.0022 C.2     
   7 C7             3.6540    -0.4021    -0.0354 C.2     
   8 C8             4.4489     0.7601    -0.0371 C.2     
   9 N9             3.6647     1.8041    -0.0237 N.2     
  10 N10           -1.1844    -0.7121     0.0100 N.pl3   
  11 C11           -1.3081    -2.1771     0.0034 C.3     
  12 C12           -2.5360    -0.1238     0.0330 C.3     
  13 C13           -3.4530    -1.2128    -0.5776 C.3     
  14 C14           -2.8150    -2.5097    -0.0098 C.3     
  15 C15           -0.6673    -2.7512     1.2407 C.ar    
  16 C16           -0.1911    -4.0554     1.2455 C.ar    
  17 N17            0.3721    -4.5643     2.3284 N.ar    
  18 C18            0.5035    -3.8605     3.4368 C.ar    
  19 C19            0.0525    -2.5549     3.5043 C.ar    
  20 C20           -0.5407    -1.9831     2.3853 C.ar    
  21 F21            0.1913    -1.8421     4.6435 F       
  22 C22            4.1324    -1.7862    -0.0475 C.2     
  23 N23            5.4556    -2.0417    -0.0620 N.am    
  24 O24            3.3348    -2.7058    -0.0446 O.2     
  25 C25            5.9341    -3.4263    -0.0741 C.3     
  26 C26            5.4067    -4.1373    -1.3220 C.3     
  27 C27            7.4640    -3.4371    -0.0893 C.3     
  28 C28            5.4314    -4.1506     1.1763 C.3     
  29 F29            7.9210    -4.7593    -0.1008 F       
  30 O30           -0.3051    -4.8161     0.1273 O.3     
  31 C31            0.2038    -6.1497     0.1952 C.3     
  32 H32           -0.9563     1.9383     0.0171 H       
  33 H33            1.1592     3.1630     0.0083 H       
  34 H34            5.5286     0.7841    -0.0476 H       
  35 H35           -0.8282    -2.5856    -0.8860 H       
  36 H36           -2.8371     0.0950     1.0575 H       
  37 H37           -2.5661     0.7813    -0.5736 H       
  38 H38           -4.4797    -1.0990    -0.2298 H       
  39 H39           -3.4070    -1.1967    -1.6665 H       
  40 H40           -3.0175    -3.3576    -0.6642 H       
  41 H41           -3.1746    -2.7062     1.0002 H       
  42 H42            0.9685    -4.3097     4.3020 H       
  43 H43           -0.9013    -0.9654     2.4105 H       
  44 H44            6.0911    -1.3089    -0.0643 H       
  45 H45            5.7648    -3.6213    -2.2128 H       
  46 H46            5.7627    -5.1675    -1.3310 H       
  47 H47            4.3168    -4.1296    -1.3112 H       
  48 H48            7.8221    -2.9211    -0.9801 H       
  49 H49            7.8397    -2.9306     0.7998 H       
  50 H50            4.3415    -4.1430     1.1871 H       
  51 H51            5.7874    -5.1808     1.1673 H       
  52 H52            5.8071    -3.6441     2.0654 H       
  53 H53            0.0498    -6.6466    -0.7627 H       
  54 H54            1.2695    -6.1208     0.4222 H       
  55 H55           -0.3196    -6.6990     0.9777 H       
@<TRIPOS>BOND
   1    1    2 1
   2    1    6 2
   3    1   32 1
   4    2    3 2
   5    2   10 1
   6    3    4 1
   7    4    5 1
   8    4    7 2
   9    5    6 1
  10    5    9 1
  11    6   33 1
  12    7    8 1
  13    7   22 1
  14    8    9 2
  15    8   34 1
  16   10   11 1
  17   10   12 1
  18   11   15 1
  19   11   14 1
  20   11   35 1
  21   12   13 1
  22   12   36 1
  23   12   37 1
  24   13   14 1
  25   13   38 1
  26   13   39 1
  27   14   40 1
  28   14   41 1
  29   15   16 ar
  30   15   20 ar
  31   16   17 ar
  32   16   30 1
  33   17   18 ar
  34   18   19 ar
  35   18   42 1
  36   19   20 ar
  37   19   21 1
  38   20   43 1
  39   22   23 am
  40   22   24 2
  41   23   25 1
  42   23   44 1
  43   25   26 1
  44   25   27 1
  45   25   28 1
  46   26   45 1
  47   26   46 1
  48   26   47 1
  49   27   29 1
  50   27   48 1
  51   27   49 1
  52   28   50 1
  53   28   51 1
  54   28   52 1
  55   30   31 1
  56   31   53 1
  57   31   54 1
  58   31   55 1

#	End of record

