#	Name: ASD08390017
#	Creating user name:	WinNT
#	Creation time:	15. 06. 2019 21:19

#	Modifying user name:	WinNT
#	Modification time:	15. 06. 2019 21:19

#	Program:	/corina/corina34_cracker 3.40 0067  02.08.2006

@<TRIPOS>MOLECULE
ASD08390017
  49   51    0    0    0
SMALL
NO_CHARGES


@<TRIPOS>ATOM
   1 N1             0.0532     1.4509    -0.3918 N.2     
   2 C2             0.0549    -0.0147    -0.2859 C.3     
   3 C3             1.4528    -0.3480     0.2720 C.3     
   4 N4             2.0830     0.9748     0.4177 N.pl3   
   5 C5             1.1862     1.9269     0.0068 C.2     
   6 C6             3.4366     1.2298     0.9164 C.3     
   7 C7             1.3418    -1.0343     1.6090 C.ar    
   8 C8             1.4641    -2.4087     1.6928 C.ar    
   9 C9             1.3623    -3.0382     2.9192 C.ar    
  10 C10            1.1387    -2.2933     4.0620 C.ar    
  11 C11            1.0173    -0.9188     3.9784 C.ar    
  12 C12            1.1235    -0.2889     2.7525 C.ar    
  13 C13           -1.0341    -0.4836     0.6811 C.3     
  14 C14            4.4379     1.0911    -0.2321 C.3     
  15 C15            5.8304     1.3534     0.2809 C.2     
  16 O16            6.0041     1.6236     1.4457 O.2     
  17 O17            6.8776     1.2869    -0.5561 O.3     
  18 C18            8.1895     1.5513     0.0072 C.3     
  19 C19            1.4900     3.3762     0.0189 C.ar    
  20 C20            1.1233     4.1774    -1.0621 C.ar    
  21 C21            1.4088     5.5273    -1.0449 C.ar    
  22 C22            2.0577     6.0861     0.0416 C.ar    
  23 C23            2.4240     5.2966     1.1168 C.ar    
  24 C24            2.1389     3.9464     1.1137 C.ar    
  25 C25           -0.1391    -0.6423    -1.6422 C.2     
  26 O26            0.4405    -1.6645    -1.9233 O.2     
  27 O27           -0.9558    -0.0657    -2.5379 O.3     
  28 H28            2.0111    -0.9644    -0.4327 H       
  29 H29            3.4893     2.2392     1.3245 H       
  30 H30            3.6778     0.5090     1.6977 H       
  31 H31            1.6388    -2.9907     0.7999 H       
  32 H32            1.4570    -4.1121     2.9846 H       
  33 H33            1.0584    -2.7852     5.0202 H       
  34 H34            0.8423    -0.3369     4.8712 H       
  35 H35            1.0324     0.7853     2.6877 H       
  36 H36           -2.0104    -0.1785     0.3045 H       
  37 H37           -1.0010    -1.5698     0.7666 H       
  38 H38           -0.8668    -0.0367     1.6611 H       
  39 H39            4.3852     0.0817    -0.6401 H       
  40 H40            4.1967     1.8119    -1.0134 H       
  41 H41            8.3986     0.8287     0.7959 H       
  42 H42            8.9445     1.4650    -0.7742 H       
  43 H43            8.2102     2.5588     0.4227 H       
  44 H44            0.6173     3.7421    -1.9111 H       
  45 H45            1.1253     6.1488    -1.8814 H       
  46 H46            2.2796     7.1431     0.0502 H       
  47 H47            2.9304     5.7385     1.9622 H       
  48 H48            2.4214     3.3318     1.9557 H       
  49 H49           -1.0483    -0.5052    -3.3943 H       
@<TRIPOS>BOND
   1    1    2 1
   2    1    5 2
   3    2   13 1
   4    2   25 1
   5    2    3 1
   6    3    4 1
   7    3    7 1
   8    3   28 1
   9    4    5 1
  10    4    6 1
  11    5   19 1
  12    6   14 1
  13    6   29 1
  14    6   30 1
  15    7    8 ar
  16    7   12 ar
  17    8    9 ar
  18    8   31 1
  19    9   10 ar
  20    9   32 1
  21   10   11 ar
  22   10   33 1
  23   11   12 ar
  24   11   34 1
  25   12   35 1
  26   13   36 1
  27   13   37 1
  28   13   38 1
  29   14   15 1
  30   14   39 1
  31   14   40 1
  32   15   16 2
  33   15   17 1
  34   17   18 1
  35   18   41 1
  36   18   42 1
  37   18   43 1
  38   19   20 ar
  39   19   24 ar
  40   20   21 ar
  41   20   44 1
  42   21   22 ar
  43   21   45 1
  44   22   23 ar
  45   22   46 1
  46   23   24 ar
  47   23   47 1
  48   24   48 1
  49   25   26 2
  50   25   27 1
  51   27   49 1

#	End of record

