#	Name: ASD03091153
#	Creating user name:	WinNT
#	Creation time:	15. 06. 2019 20:30

#	Modifying user name:	WinNT
#	Modification time:	15. 06. 2019 20:30

#	Program:	/corina/corina34_cracker 3.40 0067  02.08.2006

@<TRIPOS>MOLECULE
ASD03091153
  37   39    0    0    0
SMALL
NO_CHARGES


@<TRIPOS>ATOM
   1 C1            -0.0416     1.4282    -0.5258 C.2     
   2 C2            -0.0092    -0.0273    -0.2562 C.ar    
   3 C3             1.2077    -0.7059    -0.1180 C.ar    
   4 C4             1.1964    -2.0628     0.1329 C.ar    
   5 N5             0.0605    -2.7238     0.2433 N.ar    
   6 C6            -1.1133    -2.1250     0.1203 C.ar    
   7 C7            -1.1912    -0.7586    -0.1273 C.ar    
   8 O8             0.5278     1.8781    -1.4994 O.2     
   9 O9            -0.7071     2.2524     0.3056 O.3     
  10 N10            2.4902     0.0230    -0.2399 N.pl3   
  11 O11            3.5414    -0.5920    -0.2522 O.2     
  12 O12            2.4943     1.2378    -0.3280 O.2     
  13 N13           -4.3693    -4.8123    -0.5495 N.3     
  14 C14           -4.4954    -3.3628    -0.7648 C.3     
  15 C15           -3.1265    -2.7255    -0.9457 C.3     
  16 N16           -2.2812    -2.8688     0.2457 N.3     
  17 C17           -1.9792    -4.2845     0.4993 C.3     
  18 C18           -2.9758    -4.8709     1.4880 C.3     
  19 C19           -4.3483    -5.1065     0.8906 C.3     
  20 C20           -3.3093    -5.4779    -1.2760 C.3     
  21 C21           -1.9301    -5.0277    -0.8231 C.3     
  22 H22            2.1320    -2.5915     0.2401 H       
  23 H23           -2.1507    -0.2720    -0.2222 H       
  24 H24           -0.6999     3.1946     0.0884 H       
  25 H25           -5.0957    -3.1831    -1.6567 H       
  26 H26           -4.9897    -2.9135     0.0965 H       
  27 H27           -2.6267    -3.1967    -1.7920 H       
  28 H28           -3.2565    -1.6648    -1.1608 H       
  29 H29           -0.9861    -4.3428     0.9448 H       
  30 H30           -2.5865    -5.8207     1.8548 H       
  31 H31           -3.0744    -4.1877     2.3316 H       
  32 H32           -5.0710    -4.4653     1.3953 H       
  33 H33           -4.6297    -6.1481     1.0451 H       
  34 H34           -3.3977    -6.5536    -1.1237 H       
  35 H35           -3.4201    -5.2628    -2.3388 H       
  36 H36           -1.5045    -4.3717    -1.5825 H       
  37 H37           -1.2898    -5.9030    -0.7140 H       
@<TRIPOS>BOND
   1    1    2 1
   2    1    8 2
   3    1    9 1
   4    2    3 ar
   5    2    7 ar
   6    3    4 ar
   7    3   10 1
   8    4    5 ar
   9    4   22 1
  10    5    6 ar
  11    6    7 ar
  12    6   16 1
  13    7   23 1
  14    9   24 1
  15   10   11 2
  16   10   12 2
  17   13   14 1
  18   13   19 1
  19   13   20 1
  20   14   15 1
  21   14   25 1
  22   14   26 1
  23   15   16 1
  24   15   27 1
  25   15   28 1
  26   16   17 1
  27   17   18 1
  28   17   21 1
  29   17   29 1
  30   18   19 1
  31   18   30 1
  32   18   31 1
  33   19   32 1
  34   19   33 1
  35   20   21 1
  36   20   34 1
  37   20   35 1
  38   21   36 1
  39   21   37 1

#	End of record

