#	Name: ASD00310304
#	Creating user name:	WinNT
#	Creation time:	15. 06. 2019 18:34

#	Modifying user name:	WinNT
#	Modification time:	15. 06. 2019 18:34

#	Program:	/corina/corina34_cracker 3.40 0067  02.08.2006

@<TRIPOS>MOLECULE
ASD00310304
  34   36    0    0    0
SMALL
NO_CHARGES


@<TRIPOS>ATOM
   1 N1            -0.0162     1.3425     0.0094 N.pl3   
   2 C2             0.0021    -0.0041     0.0020 C.2     
   3 C3             1.3065    -0.4496    -0.0128 C.2     
   4 C4             2.1542     0.7597    -0.0144 C.ar    
   5 C5             3.5277     0.9734    -0.0260 C.ar    
   6 C6             4.0199     2.2725    -0.0233 C.ar    
   7 C7             3.1348     3.3557    -0.0091 C.ar    
   8 C8             1.7746     3.1459     0.0024 C.ar    
   9 C9             1.2679     1.8487    -0.0001 C.ar    
  10 C10            1.7457    -1.7969    -0.0236 C.2     
  11 O11            0.9342    -2.6999    -0.0204 O.2     
  12 C12            8.1302     2.9428    -0.0558 C.ar    
  13 N13            7.3671     3.5786    -0.9331 N.ar    
  14 C14            6.0591     3.3923    -0.9545 C.ar    
  15 C15            5.4843     2.5111    -0.0351 C.ar    
  16 C16            6.3233     1.8605     0.8732 C.ar    
  17 N17            7.6222     2.0997     0.8314 N.ar    
  18 N18            9.4967     3.1613    -0.0703 N.pl3   
  19 C19           10.0805     4.0846    -1.0464 C.3     
  20 C20           10.3593     2.4692     0.8904 C.3     
  21 Cl21           3.7566     4.9765    -0.0052 Cl      
  22 H22           -0.8217     1.8829     0.0163 H       
  23 H23           -0.8721    -0.6383     0.0075 H       
  24 H24            4.2080     0.1346    -0.0366 H       
  25 H25            1.0992     3.9885     0.0137 H       
  26 H26            2.8022    -2.0203    -0.0345 H       
  27 H27            5.4431     3.9140    -1.6720 H       
  28 H28            5.9161     1.1724     1.5992 H       
  29 H29           10.1084     5.0893    -0.6247 H       
  30 H30           11.0938     3.7641    -1.2889 H       
  31 H31            9.4739     4.0874    -1.9520 H       
  32 H32            9.7510     1.8299     1.5302 H       
  33 H33           11.0857     1.8595     0.3530 H       
  34 H34           10.8832     3.2031     1.5028 H       
@<TRIPOS>BOND
   1    1    2 1
   2    1    9 1
   3    1   22 1
   4    2    3 2
   5    2   23 1
   6    3    4 1
   7    3   10 1
   8    4    5 ar
   9    4    9 ar
  10    5    6 ar
  11    5   24 1
  12    6    7 ar
  13    6   15 1
  14    7    8 ar
  15    7   21 1
  16    8    9 ar
  17    8   25 1
  18   10   11 2
  19   10   26 1
  20   12   13 ar
  21   12   17 ar
  22   12   18 1
  23   13   14 ar
  24   14   15 ar
  25   14   27 1
  26   15   16 ar
  27   16   17 ar
  28   16   28 1
  29   18   19 1
  30   18   20 1
  31   19   29 1
  32   19   30 1
  33   19   31 1
  34   20   32 1
  35   20   33 1
  36   20   34 1

#	End of record

