#	Name: ASD03090366
#	Creating user name:	WinNT
#	Creation time:	15. 06. 2019 20:28

#	Modifying user name:	WinNT
#	Modification time:	15. 06. 2019 20:28

#	Program:	/corina/corina34_cracker 3.40 0067  02.08.2006

@<TRIPOS>MOLECULE
ASD03090366
  41   42    0    0    0
SMALL
NO_CHARGES


@<TRIPOS>ATOM
   1 C1            -0.0179     1.4706     0.0101 C.2     
   2 C2             0.0021    -0.0041     0.0020 C.ar    
   3 C3             1.2216    -0.6880    -0.0133 C.ar    
   4 C4             1.2372    -2.0588    -0.0203 C.ar    
   5 C5             0.0396    -2.7703    -0.0122 C.ar    
   6 C6            -1.1768    -2.0917     0.0030 C.ar    
   7 C7            -1.1984    -0.7210     0.0155 C.ar    
   8 O8             1.0268     2.0929     0.0035 O.2     
   9 N9            -1.1941     2.1285     0.0193 N.am    
  10 S10            0.0635    -4.5322    -0.0219 S.3     
  11 C11           -1.6982    -4.9642    -0.0067 C.3     
  12 F12           -2.2968    -4.4409     1.1444 F       
  13 F13           -2.3195    -4.4287    -1.1400 F       
  14 C14           -1.2140     3.5934     0.0273 C.3     
  15 C15           -2.6633     4.0837     0.0369 C.3     
  16 N16           -3.7872     9.8264    -1.4122 N.pl3   
  17 C17           -3.0003     9.8450    -0.2977 C.2     
  18 C18           -2.7285     8.5756     0.0564 C.2     
  19 C19           -3.3757     7.7275    -0.8805 C.2     
  20 C20           -3.3557     6.2495    -0.8886 C.2     
  21 C21           -2.6837     5.5905     0.0452 C.2     
  22 C22           -4.0185     8.5341    -1.7710 C.2     
  23 C23           -4.3050    11.0075    -2.1073 C.3     
  24 H24            2.1504    -0.1369    -0.0199 H       
  25 H25            2.1788    -2.5876    -0.0325 H       
  26 H26           -2.1037    -2.6459     0.0089 H       
  27 H27           -2.1417    -0.1954     0.0315 H       
  28 H28           -2.0275     1.6321     0.0205 H       
  29 H29           -1.8064    -6.0488    -0.0114 H       
  30 H30           -0.7009     3.9588     0.9169 H       
  31 H31           -0.7094     3.9685    -0.8630 H       
  32 H32           -3.1764     3.7183    -0.8527 H       
  33 H33           -3.1679     3.7086     0.9272 H       
  34 H34           -2.6533    10.7303     0.2144 H       
  35 H35           -2.1285     8.2602     0.8973 H       
  36 H36           -3.8884     5.7065    -1.6552 H       
  37 H37           -2.1510     6.1336     0.8118 H       
  38 H38           -4.6085     8.2054    -2.6137 H       
  39 H39           -3.5944    11.3193    -2.8728 H       
  40 H40           -5.2593    10.7647    -2.5747 H       
  41 H41           -4.4466    11.8173    -1.3915 H       
@<TRIPOS>BOND
   1    1    2 1
   2    1    8 2
   3    1    9 am
   4    2    3 ar
   5    2    7 ar
   6    3    4 ar
   7    3   24 1
   8    4    5 ar
   9    4   25 1
  10    5    6 ar
  11    5   10 1
  12    6    7 ar
  13    6   26 1
  14    7   27 1
  15    9   14 1
  16    9   28 1
  17   10   11 1
  18   11   12 1
  19   11   13 1
  20   11   29 1
  21   14   15 1
  22   14   30 1
  23   14   31 1
  24   15   21 1
  25   15   32 1
  26   15   33 1
  27   16   17 1
  28   16   22 1
  29   16   23 1
  30   17   18 2
  31   17   34 1
  32   18   19 1
  33   18   35 1
  34   19   20 1
  35   19   22 2
  36   20   21 2
  37   20   36 1
  38   21   37 1
  39   22   38 1
  40   23   39 1
  41   23   40 1
  42   23   41 1

#	End of record

