#	Name: ASD07930939
#	Creating user name:	WinNT
#	Creation time:	15. 06. 2019 21:13

#	Modifying user name:	WinNT
#	Modification time:	15. 06. 2019 21:13

#	Program:	/corina/corina34_cracker 3.40 0067  02.08.2006

@<TRIPOS>MOLECULE
ASD07930939
  39   41    0    0    0
SMALL
NO_CHARGES


@<TRIPOS>ATOM
   1 N1             0.3304     1.4179     2.2319 N.2     
   2 N2             0.1039     0.2521     1.4983 N.am    
   3 C3             1.2359    -0.1298     0.8767 C.2     
   4 C4             2.2388     0.8206     1.2161 C.2     
   5 C5             1.5752     1.7986     2.1014 C.2     
   6 O6             1.3751    -1.1060     0.1589 O.2     
   7 C7            -1.1207    -0.4216     1.4205 C.ar    
   8 C8            -2.2270     0.0640     2.1056 C.ar    
   9 C9            -3.4338    -0.6028     2.0264 C.ar    
  10 C10           -3.5414    -1.7529     1.2660 C.ar    
  11 C11           -2.4418    -2.2391     0.5827 C.ar    
  12 C12           -1.2335    -1.5740     0.6535 C.ar    
  13 C13            2.2013     2.9878     2.7243 C.ar    
  14 C14            2.5911     4.0709     1.9330 C.ar    
  15 C15            3.1747     5.1770     2.5214 C.ar    
  16 C16            3.3723     5.2116     3.8899 C.ar    
  17 C17            2.9879     4.1415     4.6778 C.ar    
  18 C18            2.3988     3.0334     4.1037 C.ar    
  19 F19            2.3987     4.0372     0.5962 F       
  20 C20            3.5576     0.8271     0.8037 C.2     
  21 N21            4.2265    -0.3366     0.6635 N.pl3   
  22 C22            3.5187    -1.6107     0.8114 C.3     
  23 C23            5.6604    -0.3257     0.3633 C.3     
  24 H24           -2.1436     0.9619     2.6999 H       
  25 H25           -4.2944    -0.2259     2.5592 H       
  26 H26           -4.4862    -2.2727     1.2060 H       
  27 H27           -2.5292    -3.1375    -0.0102 H       
  28 H28           -0.3762    -1.9519     0.1163 H       
  29 H29            3.4773     6.0154     1.9116 H       
  30 H30            3.8291     6.0779     4.3454 H       
  31 H31            3.1455     4.1751     5.7457 H       
  32 H32            2.0955     2.2010     4.7213 H       
  33 H33            4.0531     1.7634     0.5936 H       
  34 H34            3.0419    -1.8733    -0.1329 H       
  35 H35            4.2281    -2.3902     1.0894 H       
  36 H36            2.7596    -1.5166     1.5879 H       
  37 H37            6.2266    -0.3232     1.2947 H       
  38 H38            5.9171    -1.2129    -0.2156 H       
  39 H39            5.9043     0.5670    -0.2126 H       
@<TRIPOS>BOND
   1    1    2 1
   2    1    5 2
   3    2    3 am
   4    2    7 1
   5    3    4 1
   6    3    6 2
   7    4    5 1
   8    4   20 2
   9    5   13 1
  10    7    8 ar
  11    7   12 ar
  12    8    9 ar
  13    8   24 1
  14    9   10 ar
  15    9   25 1
  16   10   11 ar
  17   10   26 1
  18   11   12 ar
  19   11   27 1
  20   12   28 1
  21   13   14 ar
  22   13   18 ar
  23   14   15 ar
  24   14   19 1
  25   15   16 ar
  26   15   29 1
  27   16   17 ar
  28   16   30 1
  29   17   18 ar
  30   17   31 1
  31   18   32 1
  32   20   21 1
  33   20   33 1
  34   21   22 1
  35   21   23 1
  36   22   34 1
  37   22   35 1
  38   22   36 1
  39   23   37 1
  40   23   38 1
  41   23   39 1

#	End of record

