#	Name: ASD01941025
#	Creating user name:	WinNT
#	Creation time:	15. 06. 2019 20:13

#	Modifying user name:	WinNT
#	Modification time:	15. 06. 2019 20:13

#	Program:	/corina/corina34_cracker 3.40 0067  02.08.2006

@<TRIPOS>MOLECULE
ASD01941025
  50   54    0    0    0
SMALL
NO_CHARGES


@<TRIPOS>ATOM
   1 N1             0.2763     1.9504    -1.5491 N.am    
   2 C2             0.6161     0.6511    -1.5686 C.2     
   3 N3            -0.2752    -0.3352    -1.3736 N.am    
   4 C4            -1.5972    -0.0538    -1.1412 C.2     
   5 C5            -2.0034     1.2810    -1.1103 C.2     
   6 C6            -1.0019     2.3276    -1.3220 C.2     
   7 N7            -2.5066    -1.0423    -0.9434 N.am    
   8 C8            -3.8029    -0.7714    -0.7157 C.2     
   9 C9            -4.2846     0.5384    -0.6702 C.2     
  10 C10           -3.4077     1.5963    -0.8634 C.2     
  11 C11            0.1516    -1.6694    -1.4088 C.ar    
  12 C12            0.3554    -2.3027    -2.6275 C.ar    
  13 C13            0.7766    -3.6177    -2.6589 C.ar    
  14 C14            0.9953    -4.3035    -1.4782 C.ar    
  15 C15            0.7932    -3.6756    -0.2629 C.ar    
  16 C16            0.3771    -2.3591    -0.2250 C.ar    
  17 C17           -2.0639    -2.4383    -0.9795 C.3     
  18 O18           -4.5810    -1.6960    -0.5443 O.2     
  19 N19           -3.8486     2.9038    -0.8253 N.pl3   
  20 C20           -3.4496     3.7470     0.2190 C.ar    
  21 C21           -2.7278     3.2356     1.2882 C.ar    
  22 C22           -2.3345     4.0694     2.3176 C.ar    
  23 C23           -2.6596     5.4146     2.2839 C.ar    
  24 C24           -3.3803     5.9288     1.2187 C.ar    
  25 C25           -3.7712     5.0999     0.1835 C.ar    
  26 O26            1.7777     0.3555    -1.7712 O.2     
  27 C27            1.3038     2.9709    -1.7705 C.3     
  28 O28           -1.3130     3.5041    -1.3032 O.2     
  29 C29            1.9889     2.9985    -3.1382 C.3     
  30 C30            0.9851     4.0906    -2.7633 C.3     
  31 F31           -4.4742     5.6010    -0.8556 F       
  32 F32           -2.2736     6.2271     3.2918 F       
  33 H33           -5.3319     0.7267    -0.4856 H       
  34 H34            0.1844    -1.7677    -3.5500 H       
  35 H35            0.9350    -4.1109    -3.6066 H       
  36 H36            1.3243    -5.3318    -1.5053 H       
  37 H37            0.9645    -4.2139     0.6575 H       
  38 H38            0.2197    -1.8690     0.7244 H       
  39 H39           -1.6431    -2.7112    -0.0117 H       
  40 H40           -2.9141    -3.0835    -1.2010 H       
  41 H41           -1.3052    -2.5590    -1.7527 H       
  42 H42           -4.4348     3.2384    -1.5219 H       
  43 H43           -2.4738     2.1862     1.3159 H       
  44 H44           -1.7730     3.6710     3.1497 H       
  45 H45           -3.6334     6.9784     1.1948 H       
  46 H46            1.9077     3.2267    -0.8998 H       
  47 H47            3.0435     3.2727    -3.1674 H       
  48 H48            1.6752     2.2573    -3.8733 H       
  49 H49            0.0109     4.0679    -3.2518 H       
  50 H50            1.3792     5.0833    -2.5459 H       
@<TRIPOS>BOND
   1    1    2 am
   2    1   27 1
   3    1    6 am
   4    2    3 am
   5    2   26 2
   6    3    4 1
   7    3   11 1
   8    4    5 2
   9    4    7 1
  10    5    6 1
  11    5   10 1
  12    6   28 2
  13    7    8 am
  14    7   17 1
  15    8    9 1
  16    8   18 2
  17    9   10 2
  18    9   33 1
  19   10   19 1
  20   11   12 ar
  21   11   16 ar
  22   12   13 ar
  23   12   34 1
  24   13   14 ar
  25   13   35 1
  26   14   15 ar
  27   14   36 1
  28   15   16 ar
  29   15   37 1
  30   16   38 1
  31   17   39 1
  32   17   40 1
  33   17   41 1
  34   19   20 1
  35   19   42 1
  36   20   21 ar
  37   20   25 ar
  38   21   22 ar
  39   21   43 1
  40   22   23 ar
  41   22   44 1
  42   23   24 ar
  43   23   32 1
  44   24   25 ar
  45   24   45 1
  46   25   31 1
  47   27   29 1
  48   27   30 1
  49   27   46 1
  50   29   30 1
  51   29   47 1
  52   29   48 1
  53   30   49 1
  54   30   50 1

#	End of record

