#	Name: ASD04590682
#	Creating user name:	WinNT
#	Creation time:	15. 06. 2019 20:51

#	Modifying user name:	WinNT
#	Modification time:	15. 06. 2019 20:51

#	Program:	/corina/corina34_cracker 3.40 0067  02.08.2006

@<TRIPOS>MOLECULE
ASD04590682
  61   66    0    0    0
SMALL
NO_CHARGES


@<TRIPOS>ATOM
   1 N1            -0.0171     1.3230    -0.0118 N.ar    
   2 C2             0.0017    -0.0035    -0.0051 C.ar    
   3 N3             1.1295    -0.6951    -0.0122 N.ar    
   4 C4             2.3047    -0.0730    -0.0266 C.ar    
   5 C5             2.3181     1.3349    -0.0340 C.ar    
   6 C6             1.1079     2.0197    -0.0261 C.ar    
   7 N7             3.6048    -0.5174    -0.0366 N.pl3   
   8 C8             4.4831     0.5494    -0.0505 C.ar    
   9 C9             3.7337     1.7361    -0.0496 C.ar    
  10 N10           -1.2028    -0.6890     0.0103 N.pl3   
  11 C11           -2.4026     0.0118     0.1313 C.ar    
  12 C12            4.0045    -1.9268    -0.0327 C.3     
  13 C13            3.4644    -2.6243     1.2281 C.3     
  14 N14            5.8098     0.6078    -0.0634 N.ar    
  15 C15            6.4553     1.7596    -0.0755 C.ar    
  16 C16            5.7720     2.9714    -0.0749 C.ar    
  17 C17            4.3902     2.9666    -0.0626 C.ar    
  18 C18            2.5321    -3.7531     0.7421 C.3     
  19 C19            3.0245    -4.0606    -0.6939 C.3     
  20 C20            3.3815    -2.6561    -1.2409 C.3     
  21 N21           -2.3788     1.3195     0.3318 N.ar    
  22 C22           -3.4888     2.0229     0.4522 C.ar    
  23 C23           -4.7295     1.4089     0.3721 C.ar    
  24 C24           -4.7942     0.0323     0.1614 C.ar    
  25 C25           -3.6102    -0.6708     0.0340 C.ar    
  26 N26           -5.9026     2.1618     0.5017 N.3     
  27 C27           -5.5953     3.5827     0.7169 C.3     
  28 C28           -6.8998     4.3811     0.7738 C.3     
  29 N29           -7.7444     3.8581     1.8567 N.3     
  30 C30           -8.0517     2.4372     1.6415 C.3     
  31 C31           -6.7472     1.6388     1.5846 C.3     
  32 O32            7.8119     1.7614    -0.0884 O.3     
  33 C33            8.4624     0.4891    -0.0880 C.3     
  34 H34            1.0866     3.0994    -0.0319 H       
  35 H35           -1.2114    -1.6562    -0.0630 H       
  36 H36            5.0910    -2.0066    -0.0671 H       
  37 H37            4.2888    -3.0433     1.8051 H       
  38 H38            2.9050    -1.9141     1.8370 H       
  39 H39            6.3150     3.9049    -0.0843 H       
  40 H40            3.8330     3.8918    -0.0618 H       
  41 H41            2.6351    -4.6330     1.3772 H       
  42 H42            1.4969    -3.4124     0.7257 H       
  43 H43            3.9056    -4.7018    -0.6712 H       
  44 H44            2.2299    -4.5151    -1.2857 H       
  45 H45            2.4834    -2.1382    -1.5775 H       
  46 H46            4.1043    -2.7354    -2.0528 H       
  47 H47           -3.4302     3.0889     0.6153 H       
  48 H48           -5.7467    -0.4726     0.0951 H       
  49 H49           -3.6232    -1.7382    -0.1303 H       
  50 H50           -5.0560     3.6998     1.6569 H       
  51 H51           -4.9797     3.9500    -0.1042 H       
  52 H52           -6.6757     5.4310     0.9622 H       
  53 H53           -7.4261     4.2861    -0.1761 H       
  54 H54           -7.3098     4.0019     2.7558 H       
  55 H55           -8.6674     2.0699     2.4626 H       
  56 H56           -8.5911     2.3201     0.7015 H       
  57 H57           -6.9714     0.5889     1.3962 H       
  58 H58           -6.2210     1.7338     2.5344 H       
  59 H59            9.5428     0.6333    -0.0990 H       
  60 H60            8.1788    -0.0637     0.8076 H       
  61 H61            8.1619    -0.0730    -0.9722 H       
@<TRIPOS>BOND
   1    1    2 ar
   2    1    6 ar
   3    2    3 ar
   4    2   10 1
   5    3    4 ar
   6    4    5 ar
   7    4    7 1
   8    5    6 ar
   9    5    9 1
  10    6   34 1
  11    7    8 1
  12    7   12 1
  13    8    9 ar
  14    8   14 ar
  15    9   17 ar
  16   10   11 1
  17   10   35 1
  18   11   21 ar
  19   11   25 ar
  20   12   13 1
  21   12   20 1
  22   12   36 1
  23   13   18 1
  24   13   37 1
  25   13   38 1
  26   14   15 ar
  27   15   16 ar
  28   15   32 1
  29   16   17 ar
  30   16   39 1
  31   17   40 1
  32   18   19 1
  33   18   41 1
  34   18   42 1
  35   19   20 1
  36   19   43 1
  37   19   44 1
  38   20   45 1
  39   20   46 1
  40   21   22 ar
  41   22   23 ar
  42   22   47 1
  43   23   24 ar
  44   23   26 1
  45   24   25 ar
  46   24   48 1
  47   25   49 1
  48   26   27 1
  49   26   31 1
  50   27   28 1
  51   27   50 1
  52   27   51 1
  53   28   29 1
  54   28   52 1
  55   28   53 1
  56   29   30 1
  57   29   54 1
  58   30   31 1
  59   30   55 1
  60   30   56 1
  61   31   57 1
  62   31   58 1
  63   32   33 1
  64   33   59 1
  65   33   60 1
  66   33   61 1

#	End of record

