#	Name: ASD03082216
#	Creating user name:	WinNT
#	Creation time:	15. 06. 2019 20:27

#	Modifying user name:	WinNT
#	Modification time:	15. 06. 2019 20:27

#	Program:	/corina/corina34_cracker 3.40 0067  02.08.2006

@<TRIPOS>MOLECULE
ASD03082216
  46   49    0    0    0
SMALL
NO_CHARGES


@<TRIPOS>ATOM
   1 N1             0.6571     1.7346     0.0963 N.pl3   
   2 N2             0.1445     0.4274     0.0738 N.2     
   3 C3             1.1720    -0.3847    -0.0269 C.2     
   4 N4             2.2934     0.3358    -0.0685 N.2     
   5 C5             2.0007     1.6187     0.0048 C.2     
   6 N6             1.1015    -1.7781    -0.0811 N.pl3   
   7 C7             2.2607    -2.5289    -0.3022 C.ar    
   8 C8             2.3385    -3.8388     0.1537 C.ar    
   9 C9             3.4839    -4.5782    -0.0657 C.ar    
  10 C10            4.5546    -4.0148    -0.7397 C.ar    
  11 C11            4.4793    -2.7095    -1.1950 C.ar    
  12 C12            3.3333    -1.9680    -0.9828 C.ar    
  13 C13            3.5692    -5.9991     0.4291 C.3     
  14 F14            2.3755    -6.3408     1.0739 F       
  15 F15            3.7762    -6.8588    -0.6550 F       
  16 F16            4.6349    -6.1169     1.3277 F       
  17 C17            5.1795     3.6006     0.3221 C.ar    
  18 C18            4.3079     2.5316     0.3513 C.ar    
  19 C19            2.9718     2.7355    -0.0108 C.ar    
  20 C20            2.5794     4.0240    -0.3883 C.ar    
  21 C21            3.5178     5.0359    -0.3889 C.ar    
  22 N22            4.7680     4.8005    -0.0403 N.ar    
  23 C23           -0.1121     2.9777     0.1932 C.3     
  24 C24           -0.6386     3.3609    -1.1913 C.3     
  25 F25            5.6744    -4.7399    -0.9528 F       
  26 O26           -1.2121     2.7887     1.0856 O.3     
  27 C27            6.6198     3.3963     0.7156 C.3     
  28 C28            6.9631     3.4738     2.2046 C.3     
  29 C29            6.9671     2.1220     1.4880 C.3     
  30 H30            0.2486    -2.2254     0.0346 H       
  31 H31            1.5039    -4.2784     0.6796 H       
  32 H32            5.3155    -2.2721    -1.7200 H       
  33 H33            3.2731    -0.9514    -1.3424 H       
  34 H34            4.6518     1.5520     0.6487 H       
  35 H35            1.5576     4.2238    -0.6752 H       
  36 H36            3.2247     6.0340    -0.6792 H       
  37 H37            0.5296     3.7736     0.5710 H       
  38 H38           -1.2804     2.5650    -1.5691 H       
  39 H39           -1.2109     4.2857    -1.1192 H       
  40 H40            0.2005     3.5050    -1.8720 H       
  41 H41           -1.8262     2.0938     0.8114 H       
  42 H42            7.3584     3.7737     0.0085 H       
  43 H43            7.9278     3.9019     2.4770 H       
  44 H44            6.1473     3.6726     2.8996 H       
  45 H45            6.1539     1.4315     1.7114 H       
  46 H46            7.9345     1.6608     1.2889 H       
@<TRIPOS>BOND
   1    1    2 1
   2    1    5 1
   3    1   23 1
   4    2    3 2
   5    3    4 1
   6    3    6 1
   7    4    5 2
   8    5   19 1
   9    6    7 1
  10    6   30 1
  11    7    8 ar
  12    7   12 ar
  13    8    9 ar
  14    8   31 1
  15    9   10 ar
  16    9   13 1
  17   10   11 ar
  18   10   25 1
  19   11   12 ar
  20   11   32 1
  21   12   33 1
  22   13   14 1
  23   13   15 1
  24   13   16 1
  25   17   18 ar
  26   17   22 ar
  27   17   27 1
  28   18   19 ar
  29   18   34 1
  30   19   20 ar
  31   20   21 ar
  32   20   35 1
  33   21   22 ar
  34   21   36 1
  35   23   24 1
  36   23   26 1
  37   23   37 1
  38   24   38 1
  39   24   39 1
  40   24   40 1
  41   26   41 1
  42   27   28 1
  43   27   29 1
  44   27   42 1
  45   28   29 1
  46   28   43 1
  47   28   44 1
  48   29   45 1
  49   29   46 1

#	End of record

