#	Name: ASD03331577
#	Creating user name:	WinNT
#	Creation time:	15. 06. 2019 20:39

#	Modifying user name:	WinNT
#	Modification time:	15. 06. 2019 20:39

#	Program:	/corina/corina34_cracker 3.40 0067  02.08.2006

@<TRIPOS>MOLECULE
ASD03331577
  56   58    0    0    0
SMALL
NO_CHARGES


@<TRIPOS>ATOM
   1 C1            -0.4667     0.7326     1.5430 C.ar    
   2 C2            -0.3151    -0.6761     1.1192 C.2     
   3 N3            -1.3306    -1.5755     0.9672 N.pl3   
   4 C4            -0.7727    -2.7572     0.5905 C.2     
   5 C5             0.5697    -2.5550     0.4916 C.2     
   6 N6             0.8176    -1.2681     0.8212 N.2     
   7 C7             1.5724    -3.5580     0.0917 C.2     
   8 O8             1.2232    -4.6892    -0.1872 O.2     
   9 N9             2.8763    -3.2220     0.0352 N.am    
  10 C10            3.8732    -4.2193    -0.3624 C.3     
  11 C11            5.2144    -3.8467     0.2149 C.2     
  12 C12           -2.7631    -1.3224     1.1510 C.3     
  13 C13           -3.4601    -2.6293     1.5393 C.3     
  14 C14           -3.8323    -3.4107     0.2811 C.3     
  15 O15           -2.6702    -3.7676    -0.4579 O.3     
  16 C16           -1.5232    -4.0416     0.3542 C.3     
  17 C17            3.9694    -4.2638    -1.8887 C.3     
  18 C18            4.3370    -2.8758    -2.4172 C.3     
  19 C19            5.0462    -5.2688    -2.3027 C.3     
  20 C20            2.6213    -4.6913    -2.4725 C.3     
  21 O21            5.4257    -2.7068     0.5714 O.2     
  22 C22            0.3513     1.2548     2.5483 C.ar    
  23 C23            0.2041     2.5726     2.9388 C.ar    
  24 C24           -0.7510     3.3724     2.3363 C.ar    
  25 C25           -1.5645     2.8589     1.3396 C.ar    
  26 C26           -1.4235     1.5476     0.9366 C.ar    
  27 N27            6.1792    -4.7801     0.3350 N.am    
  28 C28            7.4475    -4.4430     0.9861 C.3     
  29 Cl29          -0.9308     5.0264     2.8321 Cl      
  30 F30            1.2832     0.4738     3.1372 F       
  31 H31            3.1548    -2.3199     0.2577 H       
  32 H32            3.5761    -5.1990     0.0117 H       
  33 H33           -2.9041    -0.5856     1.9418 H       
  34 H34           -3.1884    -0.9453     0.2209 H       
  35 H35           -2.7886    -3.2295     2.1533 H       
  36 H36           -4.3633    -2.4036     2.1062 H       
  37 H37           -4.3671    -4.3164     0.5670 H       
  38 H38           -4.4795    -2.7957    -0.3442 H       
  39 H39           -0.8757    -4.7537    -0.1574 H       
  40 H40           -1.8434    -4.4581     1.3092 H       
  41 H41            5.2974    -2.5713    -2.0013 H       
  42 H42            4.4056    -2.9075    -3.5046 H       
  43 H43            3.5698    -2.1598    -2.1223 H       
  44 H44            4.7651    -6.2645    -1.9597 H       
  45 H45            5.1419    -5.2721    -3.3885 H       
  46 H46            5.9988    -4.9857    -1.8549 H       
  47 H47            1.8542    -3.9753    -2.1776 H       
  48 H48            2.6899    -4.7230    -3.5599 H       
  49 H49            2.3595    -5.6801    -2.0960 H       
  50 H50            0.8352     2.9784     3.7156 H       
  51 H51           -2.3081     3.4885     0.8738 H       
  52 H52           -2.0586     1.1495     0.1590 H       
  53 H53            6.0338    -5.6750    -0.0097 H       
  54 H54            7.9316    -3.6326     0.4412 H       
  55 H55            7.2568    -4.1279     2.0120 H       
  56 H56            8.0978    -5.3178     0.9896 H       
@<TRIPOS>BOND
   1    1    2 1
   2    1   22 ar
   3    1   26 ar
   4    2    3 1
   5    2    6 2
   6    3    4 1
   7    3   12 1
   8    4    5 2
   9    4   16 1
  10    5    6 1
  11    5    7 1
  12    7    8 2
  13    7    9 am
  14    9   10 1
  15    9   31 1
  16   10   11 1
  17   10   17 1
  18   10   32 1
  19   11   21 2
  20   11   27 am
  21   12   13 1
  22   12   33 1
  23   12   34 1
  24   13   14 1
  25   13   35 1
  26   13   36 1
  27   14   15 1
  28   14   37 1
  29   14   38 1
  30   15   16 1
  31   16   39 1
  32   16   40 1
  33   17   18 1
  34   17   19 1
  35   17   20 1
  36   18   41 1
  37   18   42 1
  38   18   43 1
  39   19   44 1
  40   19   45 1
  41   19   46 1
  42   20   47 1
  43   20   48 1
  44   20   49 1
  45   22   23 ar
  46   22   30 1
  47   23   24 ar
  48   23   50 1
  49   24   25 ar
  50   24   29 1
  51   25   26 ar
  52   25   51 1
  53   26   52 1
  54   27   28 1
  55   27   53 1
  56   28   54 1
  57   28   55 1
  58   28   56 1

#	End of record

