#	Name: ASD01000046
#	Creating user name:	WinNT
#	Creation time:	15. 06. 2019 18:54

#	Modifying user name:	WinNT
#	Modification time:	15. 06. 2019 18:54

#	Program:	/corina/corina34_cracker 3.40 0067  02.08.2006

@<TRIPOS>MOLECULE
ASD01000046
  36   37    0    0    0
SMALL
NO_CHARGES


@<TRIPOS>ATOM
   1 C1            -0.1085     1.3637     0.0791 C.ar    
   2 C2            -0.0696    -0.0177     0.0421 C.ar    
   3 C3             1.1431    -0.6795     0.1039 C.ar    
   4 C4             2.3188     0.0386     0.2027 C.ar    
   5 C5             2.2825     1.4252     0.2395 C.ar    
   6 C6             1.0648     2.0866     0.1775 C.ar    
   7 C7             1.1818    -2.1855     0.0638 C.3     
   8 N8             0.1513    -2.6908     0.9864 N.am    
   9 C9             1.0776    -2.6170    -1.3850 C.2     
  10 C10            0.0539    -3.4294    -1.7270 C.2     
  11 N11           -0.8558    -3.8469    -0.7966 N.am    
  12 C12           -0.8109    -3.4963     0.4949 C.2     
  13 C13            2.0193    -2.1848    -2.3453 C.2     
  14 S14           -2.0155    -4.0903     1.5565 S.2     
  15 S15            3.5332    -2.9735    -2.4750 S.2     
  16 O16            1.7251    -1.1491    -3.1614 O.3     
  17 C17            2.7239    -0.7655    -4.1087 C.3     
  18 C18            2.2140     0.4152    -4.9375 C.3     
  19 O19            3.4378     2.1340     0.3372 O.3     
  20 C20           -0.0874    -3.8822    -3.1574 C.3     
  21 H21           -1.0566     1.8783     0.0265 H       
  22 H22           -0.9878    -0.5810    -0.0348 H       
  23 H23            3.2656    -0.4787     0.2516 H       
  24 H24            1.0339     3.1658     0.2056 H       
  25 H25            2.1543    -2.5037     0.4395 H       
  26 H26            0.1649    -2.4497     1.9259 H       
  27 H27           -1.5743    -4.4298    -1.0881 H       
  28 H28            3.6320    -0.4739    -3.5811 H       
  29 H29            2.9407    -1.6057    -4.7683 H       
  30 H30            1.9972     1.2554    -4.2778 H       
  31 H31            2.9759     0.7078    -5.6600 H       
  32 H32            1.3059     0.1236    -5.4650 H       
  33 H33            3.8314     2.3641    -0.5156 H       
  34 H34            0.5395    -4.7580    -3.3249 H       
  35 H35           -1.1283    -4.1370    -3.3567 H       
  36 H36            0.2244    -3.0791    -3.8252 H       
@<TRIPOS>BOND
   1    1    2 ar
   2    1    6 ar
   3    1   21 1
   4    2    3 ar
   5    2   22 1
   6    3    4 ar
   7    3    7 1
   8    4    5 ar
   9    4   23 1
  10    5    6 ar
  11    5   19 1
  12    6   24 1
  13    7    8 1
  14    7    9 1
  15    7   25 1
  16    8   12 am
  17    8   26 1
  18    9   10 2
  19    9   13 1
  20   10   11 1
  21   10   20 1
  22   11   12 am
  23   11   27 1
  24   12   14 2
  25   13   15 2
  26   13   16 1
  27   16   17 1
  28   17   18 1
  29   17   28 1
  30   17   29 1
  31   18   30 1
  32   18   31 1
  33   18   32 1
  34   19   33 1
  35   20   34 1
  36   20   35 1
  37   20   36 1

#	End of record

