#	Name: ASD01917652
#	Creating user name:	WinNT
#	Creation time:	15. 06. 2019 20:09

#	Modifying user name:	WinNT
#	Modification time:	15. 06. 2019 20:09

#	Program:	/corina/corina34_cracker 3.40 0067  02.08.2006

@<TRIPOS>MOLECULE
ASD01917652
  44   46    0    0    0
SMALL
NO_CHARGES


@<TRIPOS>ATOM
   1 C1            -0.6858     0.4897     3.0422 C.ar    
   2 C2            -0.8183    -0.8725     3.2535 C.ar    
   3 C3            -2.0571    -1.4794     3.1428 C.ar    
   4 C4            -3.1695    -0.7308     2.8209 C.ar    
   5 C5            -3.0443     0.6448     2.6060 C.ar    
   6 C6            -1.7916     1.2526     2.7244 C.ar    
   7 Cl7            0.8728     1.2408     3.1843 Cl      
   8 C8            -4.1952     1.4283     2.2709 C.1     
   9 C9            -5.1388     2.0705     1.9962 C.1     
  10 C10           -6.2897     2.8540     1.6611 C.ar    
  11 C11           -6.1719     4.2342     1.4441 C.ar    
  12 C12           -7.3105     4.9473     1.1233 C.ar    
  13 C13           -8.5303     4.2761     1.0266 C.ar    
  14 N14           -8.6074     2.9667     1.2389 N.ar    
  15 C15           -7.5490     2.2513     1.5397 C.ar    
  16 C16           -9.7541     5.0329     0.6835 C.2     
  17 O17           -9.7437     6.2481     0.7065 O.2     
  18 N18          -10.8807     4.3749     0.3453 N.am    
  19 C19          -10.8782     2.9153     0.1581 C.3     
  20 C20          -12.0240     2.3199     0.9842 C.3     
  21 O21          -13.2397     2.9994     0.6612 O.3     
  22 C22          -13.2335     4.3931     0.9794 C.3     
  23 C23          -12.1508     5.0940     0.1585 C.3     
  24 C24          -12.0007     6.5410     0.6323 C.3     
  25 C25          -12.5328     5.0731    -1.3229 C.3     
  26 H26            0.0494    -1.4641     3.5056 H       
  27 H27           -2.1527    -2.5423     3.3087 H       
  28 H28           -4.1353    -1.2063     2.7346 H       
  29 H29           -1.6875     2.3149     2.5602 H       
  30 H30           -5.2147     4.7276     1.5261 H       
  31 H31           -7.2575     6.0120     0.9497 H       
  32 H32           -7.6514     1.1889     1.7049 H       
  33 H33          -11.0249     2.6802    -0.8961 H       
  34 H34           -9.9280     2.5032     0.4978 H       
  35 H35          -12.1270     1.2597     0.7529 H       
  36 H36          -11.8094     2.4425     2.0458 H       
  37 H37          -14.2066     4.8245     0.7446 H       
  38 H38          -13.0233     4.5233     2.0410 H       
  39 H39          -11.5682     6.5527     1.6328 H       
  40 H40          -11.3472     7.0816    -0.0524 H       
  41 H41          -12.9798     7.0196     0.6541 H       
  42 H42          -13.4824     5.5903    -1.4606 H       
  43 H43          -11.7588     5.5735    -1.9048 H       
  44 H44          -12.6294     4.0406    -1.6587 H       
@<TRIPOS>BOND
   1    1    2 ar
   2    1    7 1
   3    1    6 ar
   4    2    3 ar
   5    2   26 1
   6    3    4 ar
   7    3   27 1
   8    4    5 ar
   9    4   28 1
  10    5    6 ar
  11    5    8 1
  12    6   29 1
  13    8    9 3
  14    9   10 1
  15   10   11 ar
  16   10   15 ar
  17   11   12 ar
  18   11   30 1
  19   12   13 ar
  20   12   31 1
  21   13   14 ar
  22   13   16 1
  23   14   15 ar
  24   15   32 1
  25   16   17 2
  26   16   18 am
  27   18   19 1
  28   18   23 1
  29   19   20 1
  30   19   33 1
  31   19   34 1
  32   20   21 1
  33   20   35 1
  34   20   36 1
  35   21   22 1
  36   22   23 1
  37   22   37 1
  38   22   38 1
  39   23   24 1
  40   23   25 1
  41   24   39 1
  42   24   40 1
  43   24   41 1
  44   25   42 1
  45   25   43 1
  46   25   44 1

#	End of record

