#	Name: ASD01882776
#	Creating user name:	WinNT
#	Creation time:	15. 06. 2019 19:45

#	Modifying user name:	WinNT
#	Modification time:	15. 06. 2019 19:45

#	Program:	/corina/corina34_cracker 3.40 0067  02.08.2006

@<TRIPOS>MOLECULE
ASD01882776
  54   58    0    0    0
SMALL
NO_CHARGES


@<TRIPOS>ATOM
   1 F1             0.0930    -0.3306    -0.9071 F       
   2 S2             0.1502     1.0798    -0.1328 S.o2    
   3 C3             2.2888     2.4028    -1.1920 C.ar    
   4 C4             1.8282     1.6169    -0.1505 C.ar    
   5 C5             2.6793     1.2513     0.8773 C.ar    
   6 C6             3.9941     1.6687     0.8697 C.ar    
   7 C7             4.4654     2.4614    -0.1782 C.ar    
   8 C8             3.6016     2.8263    -1.2122 C.ar    
   9 O9            -0.5758     2.0052    -0.9302 O.2     
  10 O10           -0.1690     0.8056     1.2245 O.2     
  11 C11            5.8729     2.9127    -0.1926 C.2     
  12 O12            6.6227     2.5937     0.7094 O.2     
  13 N13            6.3248     3.6780    -1.2058 N.am    
  14 C14           10.1921     5.2272    -1.0834 C.ar    
  15 C15            9.6321     4.8411    -2.3016 C.ar    
  16 C16            8.3532     4.3291    -2.3393 C.ar    
  17 C17            7.6211     4.1969    -1.1648 C.ar    
  18 C18            8.1768     4.5808     0.0505 C.ar    
  19 C19            9.4572     5.0886     0.0944 C.ar    
  20 N20           14.1436     6.7610    -0.9722 N.pl3   
  21 C21           13.0977     7.5804    -0.6219 C.2     
  22 C22           11.7824     7.0872    -0.6537 C.2     
  23 C23           11.5667     5.7774    -1.0399 C.2     
  24 C24           12.6731     4.9667    -1.3930 C.2     
  25 C25           13.9210     5.4700    -1.3566 C.2     
  26 C26           15.2682     7.5177    -0.8415 C.2     
  27 N27           14.8989     8.7063    -0.4394 N.2     
  28 N28           13.6201     8.7556    -0.3061 N.2     
  29 C29           16.6810     7.0676    -1.1108 C.3     
  30 C30           17.0328     7.3399    -2.5747 C.3     
  31 C31           18.4694     7.0596    -3.0199 C.3     
  32 C32           17.3361     6.1329    -3.4647 C.3     
  33 C33           10.6241     7.9726    -0.2721 C.3     
  34 F34           10.4538     7.9452     1.1162 F       
  35 F35           10.8840     9.2840    -0.6843 F       
  36 F36            9.4593     7.5105    -0.8941 F       
  37 H37            1.6204     2.6812    -1.9933 H       
  38 H38            2.3134     0.6380     1.6875 H       
  39 H39            4.6573     1.3832     1.6730 H       
  40 H40            3.9601     3.4391    -2.0261 H       
  41 H41            5.7500     3.8684    -1.9636 H       
  42 H42           10.2003     4.9439    -3.2144 H       
  43 H43            7.9193     4.0301    -3.2820 H       
  44 H44            7.6058     4.4775     0.9614 H       
  45 H45            9.8883     5.3866     1.0387 H       
  46 H46           12.5146     3.9423    -1.6960 H       
  47 H47           14.7572     4.8428    -1.6283 H       
  48 H48           17.3664     7.6157    -0.4644 H       
  49 H49           16.7668     5.9998    -0.9091 H       
  50 H50           16.5203     8.1865    -3.0317 H       
  51 H51           18.9021     7.7215    -3.7701 H       
  52 H52           19.1640     6.6812    -2.2699 H       
  53 H53           17.2851     5.1449    -3.0073 H       
  54 H54           17.0232     6.1852    -4.5075 H       
@<TRIPOS>BOND
   1    1    2 1
   2    2    4 1
   3    2    9 2
   4    2   10 2
   5    3    4 ar
   6    3    8 ar
   7    3   37 1
   8    4    5 ar
   9    5    6 ar
  10    5   38 1
  11    6    7 ar
  12    6   39 1
  13    7    8 ar
  14    7   11 1
  15    8   40 1
  16   11   12 2
  17   11   13 am
  18   13   17 1
  19   13   41 1
  20   14   15 ar
  21   14   23 1
  22   14   19 ar
  23   15   16 ar
  24   15   42 1
  25   16   17 ar
  26   16   43 1
  27   17   18 ar
  28   18   19 ar
  29   18   44 1
  30   19   45 1
  31   20   26 1
  32   20   21 1
  33   20   25 1
  34   21   22 1
  35   21   28 2
  36   22   33 1
  37   22   23 2
  38   23   24 1
  39   24   25 2
  40   24   46 1
  41   25   47 1
  42   26   27 2
  43   26   29 1
  44   27   28 1
  45   29   30 1
  46   29   48 1
  47   29   49 1
  48   30   31 1
  49   30   32 1
  50   30   50 1
  51   31   32 1
  52   31   51 1
  53   31   52 1
  54   32   53 1
  55   32   54 1
  56   33   34 1
  57   33   35 1
  58   33   36 1

#	End of record

