#	Name: ASD01813833
#	Creating user name:	WinNT
#	Creation time:	15. 06. 2019 19:31

#	Modifying user name:	WinNT
#	Modification time:	15. 06. 2019 19:31

#	Program:	/corina/corina34_cracker 3.40 0067  02.08.2006

@<TRIPOS>MOLECULE
ASD01813833
  48   51    0    0    0
SMALL
NO_CHARGES


@<TRIPOS>ATOM
   1 C1             0.1101     1.5501    -0.0323 C.2     
   2 C2             0.0842     0.1490    -0.0439 C.2     
   3 C3             1.2592    -0.5442    -0.0476 C.2     
   4 C4             2.4755     0.1585    -0.0396 C.2     
   5 N5             2.4713     1.5269    -0.0279 N.am    
   6 C6             1.2908     2.2090    -0.0247 C.2     
   7 C7             3.6844    -0.5516    -0.0432 C.2     
   8 C8             4.8716     0.1213    -0.0351 C.2     
   9 C9             4.8634     1.5285    -0.0236 C.2     
  10 C10            3.6314     2.2139    -0.0199 C.2     
  11 O11            3.6150     3.4332    -0.0104 O.2     
  12 C12            6.1238     2.2744    -0.0143 C.2     
  13 O13            6.1091     3.6233    -0.0034 O.3     
  14 O14            7.1837     1.6777    -0.0165 O.2     
  15 C15            3.6728    -2.0585    -0.0555 C.3     
  16 N16            3.7922    -2.5378    -1.4390 N.3     
  17 C17            4.0224    -3.9888    -1.4757 C.3     
  18 C18            4.0614    -4.4598    -2.9314 C.3     
  19 N19            5.1256    -3.7424    -3.6473 N.3     
  20 C20            4.8954    -2.2914    -3.6106 C.3     
  21 C21            4.8563    -1.8204    -2.1549 C.3     
  22 C22            5.2392    -4.1983    -4.9634 C.ar    
  23 C23            5.6733    -5.4942    -5.2165 C.ar    
  24 C24            5.7841    -5.9424    -6.5192 C.ar    
  25 C25            5.4638    -5.1031    -7.5702 C.ar    
  26 C26            5.0316    -3.8119    -7.3217 C.ar    
  27 C27            4.9132    -3.3595    -6.0209 C.ar    
  28 Cl28           6.0764    -6.5487    -3.8976 Cl      
  29 Cl29           4.6312    -2.7619    -8.6448 Cl      
  30 H30           -0.8162     2.1055    -0.0339 H       
  31 H31           -0.8586    -0.3779    -0.0496 H       
  32 H32            1.2542    -1.6242    -0.0562 H       
  33 H33            1.2989     3.2890    -0.0155 H       
  34 H34            5.8063    -0.4197    -0.0371 H       
  35 H35            6.9659     4.0716     0.0025 H       
  36 H36            4.5107    -2.4332     0.5324 H       
  37 H37            2.7378    -2.4182     0.3741 H       
  38 H38            4.9726    -4.2185    -0.9935 H       
  39 H39            3.2149    -4.4985    -0.9501 H       
  40 H40            4.2609    -5.5309    -2.9618 H       
  41 H41            3.1018    -4.2547    -3.4058 H       
  42 H42            5.7029    -1.7817    -4.1362 H       
  43 H43            3.9452    -2.0617    -4.0928 H       
  44 H44            4.6568    -0.7492    -2.1245 H       
  45 H45            5.8160    -2.0255    -1.6805 H       
  46 H46            6.1217    -6.9491    -6.7165 H       
  47 H47            5.5513    -5.4557    -8.5873 H       
  48 H48            4.5760    -2.3519    -5.8276 H       
@<TRIPOS>BOND
   1    1    2 1
   2    1    6 2
   3    1   30 1
   4    2    3 2
   5    2   31 1
   6    3    4 1
   7    3   32 1
   8    4    5 1
   9    4    7 2
  10    5    6 1
  11    5   10 am
  12    6   33 1
  13    7    8 1
  14    7   15 1
  15    8    9 2
  16    8   34 1
  17    9   10 1
  18    9   12 1
  19   10   11 2
  20   12   13 1
  21   12   14 2
  22   13   35 1
  23   15   16 1
  24   15   36 1
  25   15   37 1
  26   16   17 1
  27   16   21 1
  28   17   18 1
  29   17   38 1
  30   17   39 1
  31   18   19 1
  32   18   40 1
  33   18   41 1
  34   19   20 1
  35   19   22 1
  36   20   21 1
  37   20   42 1
  38   20   43 1
  39   21   44 1
  40   21   45 1
  41   22   23 ar
  42   22   27 ar
  43   23   24 ar
  44   23   28 1
  45   24   25 ar
  46   24   46 1
  47   25   26 ar
  48   25   47 1
  49   26   27 ar
  50   26   29 1
  51   27   48 1

#	End of record

