#	Name: ASD04570034
#	Creating user name:	WinNT
#	Creation time:	15. 06. 2019 20:49

#	Modifying user name:	WinNT
#	Modification time:	15. 06. 2019 20:49

#	Program:	/corina/corina34_cracker 3.40 0067  02.08.2006

@<TRIPOS>MOLECULE
ASD04570034
 334  334    0    0    0
SMALL
NO_CHARGES


@<TRIPOS>ATOM
   1 C1            -0.0187     1.5258     0.0104 C.3     
   2 C2             0.0021    -0.0041     0.0020 C.3     
   3 C3            -1.4333    -0.5336     0.0129 C.3     
   4 C4            -1.4126    -2.0635     0.0045 C.3     
   5 C5            -2.8479    -2.5931     0.0153 C.3     
   6 C6            -2.8272    -4.1229     0.0069 C.3     
   7 C7            -4.2626    -4.6525     0.0178 C.3     
   8 C8            -4.2418    -6.1823     0.0094 C.3     
   9 C9            -5.6772    -6.7119     0.0202 C.3     
  10 C10           -5.6565    -8.2417     0.0118 C.3     
  11 C11           -7.0918    -8.7713     0.0227 C.3     
  12 C12           -7.0711   -10.3012     0.0143 C.3     
  13 C13           -8.5065   -10.8307     0.0251 C.3     
  14 C14           -8.4857   -12.3606     0.0167 C.3     
  15 C15           -9.8995   -12.8822     0.0274 C.2     
  16 N16          -10.1278   -14.2105     0.0224 N.am    
  17 O17          -10.8319   -12.1067     0.0405 O.2     
  18 C18          -11.5022   -14.7176     0.0328 C.3     
  19 C19          -11.5336   -16.0963    -0.5748 C.2     
  20 N20          -12.7005   -16.7638    -0.6713 N.am    
  21 O21          -10.5088   -16.6052    -0.9769 O.2     
  22 C22          -12.7310   -18.1041    -1.2620 C.3     
  23 C23          -14.1448   -18.6257    -1.2513 C.2     
  24 N24          -14.4156   -19.8487    -1.7486 N.am    
  25 O25          -15.0389   -17.9449    -0.7952 O.2     
  26 C26          -15.7900   -20.3558    -1.7382 C.3     
  27 C27          -15.9556   -21.3807    -2.8305 C.2     
  28 O28          -15.0179   -21.6600    -3.5472 O.2     
  29 N29          -17.1457   -21.9868    -3.0111 N.am    
  30 C30          -16.0848   -21.0025    -0.3832 C.3     
  31 C31          -16.0395   -19.9512     0.6956 C.ar    
  32 C32          -17.1883   -19.2607     1.0350 C.ar    
  33 C33          -17.3067   -22.9831    -4.0731 C.3     
  34 C34          -17.6323   -22.2763    -5.3904 C.3     
  35 C35          -18.4304   -23.9215    -3.7154 C.2     
  36 O36          -19.0370   -23.7727    -2.6758 O.2     
  37 N37          -18.7612   -24.9260    -4.5508 N.am    
  38 C38          -16.4394   -21.4187    -5.8174 C.3     
  39 C39          -16.7601   -20.7225    -7.1149 C.2     
  40 N40          -15.8505   -19.9079    -7.6853 N.am    
  41 C41          -19.8535   -25.8382    -4.2031 C.3     
  42 C42          -21.1862   -25.2292    -4.6434 C.3     
  43 C43          -19.6484   -27.1572    -4.9026 C.2     
  44 O44          -18.6847   -27.3193    -5.6208 O.2     
  45 N45          -20.5359   -28.1567    -4.7300 N.am    
  46 C46          -20.3365   -29.4389    -5.4100 C.3     
  47 C47          -21.6852   -30.1412    -5.5798 C.3     
  48 C48          -19.4045   -30.3194    -4.5752 C.3     
  49 C49          -22.5734   -29.3201    -6.5166 C.3     
  50 C50          -23.9221   -30.0224    -6.6864 C.3     
  51 C51          -12.0105   -14.7839     1.4744 C.3     
  52 C52          -12.0934   -13.4227     2.0286 C.1     
  53 C53          -12.1595   -12.3370     2.4705 C.1     
  54 C54          -17.1494   -18.2966     2.0236 C.ar    
  55 C55          -15.9564   -18.0214     2.6760 C.ar    
  56 C56          -14.8051   -18.7156     2.3336 C.ar    
  57 C57          -14.8505   -19.6828     1.3482 C.ar    
  58 O58          -15.9155   -17.0731     3.6486 O.3     
  59 O59          -17.8368   -20.8952    -7.6458 O.2     
  60 C60          -24.8104   -29.2013    -7.6232 C.3     
  61 N61          -26.1052   -29.8756    -7.7862 N.3     
  62 C62            1.4167     2.0553    -0.0004 C.3     
  63 H63           -9.3821   -14.8307     0.0120 H       
  64 C64          -21.4536   -23.9536    -3.8420 C.3     
  65 C65          -22.7863   -23.3446    -4.2823 C.3     
  66 C66          -23.0536   -22.0690    -3.4809 C.3     
  67 N67          -24.3332   -21.4843    -3.9037 N.3     
  68 H68           -0.5459     1.8868    -0.8726 H       
  69 H69           -0.5289     1.8773     0.9072 H       
  70 H70            0.5123    -0.3556    -0.8948 H       
  71 H71            0.5293    -0.3651     0.8851 H       
  72 H72           -1.9435    -0.1821     0.9097 H       
  73 H73           -1.9605    -0.1726    -0.8702 H       
  74 H74           -0.9024    -2.4150    -0.8923 H       
  75 H75           -0.8854    -2.4246     0.8875 H       
  76 H76           -3.3581    -2.2415     0.9121 H       
  77 H77           -3.3751    -2.2320    -0.8677 H       
  78 H78           -2.3170    -4.4744    -0.8899 H       
  79 H79           -2.3000    -4.4840     0.8900 H       
  80 H80           -4.7728    -4.3010     0.9146 H       
  81 H81           -4.7898    -4.2914    -0.8653 H       
  82 H82           -3.7316    -6.5338    -0.8874 H       
  83 H83           -3.7146    -6.5434     0.8924 H       
  84 H84           -6.1874    -6.3604     0.9170 H       
  85 H85           -6.2044    -6.3508    -0.8628 H       
  86 H86           -5.1463    -8.5933    -0.8850 H       
  87 H87           -5.1293    -8.6028     0.8949 H       
  88 H88           -7.6020    -8.4198     0.9195 H       
  89 H89           -7.6190    -8.4102    -0.8604 H       
  90 H90           -6.5609   -10.6527    -0.8825 H       
  91 H91           -6.5439   -10.6622     0.8973 H       
  92 H92           -9.0167   -10.4792     0.9219 H       
  93 H93           -9.0337   -10.4697    -0.8579 H       
  94 H94           -7.9755   -12.7121    -0.8801 H       
  95 H95           -7.9586   -12.7217     0.8998 H       
  96 H96          -12.1400   -14.0504    -0.5470 H       
  97 H97          -13.5201   -16.3567    -0.3497 H       
  98 H98          -12.3689   -18.0568    -2.2890 H       
  99 H99          -12.0931   -18.7712    -0.6822 H       
 100 H100         -13.7005   -20.3932    -2.1133 H       
 101 H101         -16.4828   -19.5311    -1.9056 H       
 102 H102         -17.8957   -21.7634    -2.4379 H       
 103 H103         -17.0749   -21.4577    -0.4056 H       
 104 H104         -15.3374   -21.7683    -0.1758 H       
 105 H105         -18.1167   -19.4750     0.5266 H       
 106 H106         -16.3818   -23.5492    -4.1834 H       
 107 H107         -17.8394   -23.0197    -6.1601 H       
 108 H108         -18.5071   -21.6403    -5.2549 H       
 109 H109         -18.2760   -25.0450    -5.3822 H       
 110 H110         -16.2324   -20.6752    -5.0477 H       
 111 H111         -15.5646   -22.0547    -5.9529 H       
 112 H112         -14.9894   -19.7697    -7.2607 H       
 113 H113         -16.0569   -19.4598    -8.5205 H       
 114 H114         -19.8651   -25.9968    -3.1247 H       
 115 H115         -21.1424   -24.9886    -5.7055 H       
 116 H116         -21.9890   -25.9449    -4.4657 H       
 117 H117         -21.3067   -28.0271    -4.1555 H       
 118 H118         -19.8914   -29.2652    -6.3897 H       
 119 H119         -21.5276   -31.1325    -6.0048 H       
 120 H120         -22.1707   -30.2353    -4.6085 H       
 121 H121         -19.8496   -30.4931    -3.5955 H       
 122 H122         -19.2562   -31.2734    -5.0811 H       
 123 H123         -18.4437   -29.8190    -4.4542 H       
 124 H124         -22.7310   -28.3288    -6.0916 H       
 125 H125         -22.0879   -29.2260    -7.4879 H       
 126 H126         -23.7645   -31.0137    -7.1113 H       
 127 H127         -24.4076   -30.1165    -5.7150 H       
 128 H128         -12.9987   -15.2435     1.4905 H       
 129 H129         -11.3229   -15.3794     2.0751 H       
 130 H130         -12.2187   -11.3661     2.8657 H       
 131 H131         -18.0470   -17.7572     2.2881 H       
 132 H132         -13.8752   -18.5032     2.8400 H       
 133 H133         -13.9546   -20.2238     1.0816 H       
 134 H134         -16.0937   -17.4123     4.5364 H       
 135 H135         -24.9679   -28.2100    -7.1982 H       
 136 H136         -24.3248   -29.1072    -8.5945 H       
 137 H137         -26.7104   -29.3525    -8.4011 H       
 138 H138         -25.9816   -30.8204    -8.1183 H       
 139 H139           1.4019     3.1452     0.0056 H       
 140 H140           1.9439     1.6943     0.8826 H       
 141 H141           1.9269     1.7038    -0.8972 H       
 142 H142         -21.4973   -24.1943    -2.7798 H       
 143 H143         -20.6508   -23.2380    -4.0196 H       
 144 H144         -22.7425   -23.1040    -5.3445 H       
 145 H145         -23.5891   -24.0602    -4.1047 H       
 146 H146         -23.0974   -22.3097    -2.4187 H       
 147 H147         -22.2509   -21.3534    -3.6585 H       
 148 H148         -25.0843   -22.1514    -3.8093 H       
 149 H149         -24.5327   -20.6399    -3.3886 H       
 150 C150          11.1308    41.3121    12.0394 C.3     
 151 C151          11.8445    40.0897    11.5224 C.2     
 152 N152          11.8460    38.9533    12.2471 N.am    
 153 C153          12.5399    37.7649    11.7445 C.3     
 154 C154          11.9244    36.5300    12.3505 C.2     
 155 N155          12.4040    35.3117    12.0308 N.am    
 156 C156          11.8057    34.1113    12.6199 C.3     
 157 C157          12.8201    32.9968    12.6284 C.2     
 158 N158          12.4903    31.7892    13.1277 N.am    
 159 O159          13.9333    33.1867    12.1860 O.2     
 160 C160          13.4765    30.7058    13.1361 C.3     
 161 C161          13.1367    29.7257    14.2292 C.2     
 162 C162          13.4581    29.9890    11.7845 C.3     
 163 O163          12.1939    29.3481    11.6024 O.3     
 164 C164          12.0713    28.6457    10.3640 C.3     
 165 N165          13.9112    28.6403    14.4257 N.am    
 166 O166          12.1664    29.9136    14.9321 O.2     
 167 C167          13.5809    27.6875    15.4884 C.3     
 168 C168          14.8290    26.9587    15.9153 C.2     
 169 N169          14.8389    26.2559    17.0653 N.am    
 170 O170          15.8244    27.0045    15.2240 O.2     
 171 C171          16.0240    25.4801    17.4394 C.3     
 172 C172          15.6093    24.0829    17.8227 C.2     
 173 O173          14.4391    23.7663    17.7869 O.2     
 174 N174          16.5389    23.1852    18.2054 N.am    
 175 C175          16.1358    21.8269    18.5780 C.3     
 176 C176          15.7197    21.8042    20.0502 C.3     
 177 C177          17.2927    20.8842    18.3683 C.2     
 178 O178          18.3498    21.3054    17.9489 O.2     
 179 N179          17.1525    19.5730    18.6469 N.am    
 180 C180          18.2772    18.6566    18.4431 C.3     
 181 C181          19.1787    18.6727    19.6792 C.3     
 182 C182          17.7540    17.2609    18.2210 C.2     
 183 O183          16.5593    17.0522    18.2319 O.2     
 184 N184          18.6137    16.2445    18.0102 N.am    
 185 C185          18.1051    14.8877    17.7944 C.3     
 186 C186          17.8662    14.2116    19.1459 C.3     
 187 C187          19.1139    14.0926    17.0063 C.2     
 188 O188          20.1552    14.6085    16.6591 O.2     
 189 N189          18.8590    12.8082    16.6872 N.am    
 190 C190          16.7526    14.9470    19.8942 C.3     
 191 C191          16.5136    14.2708    21.2458 C.3     
 192 N192          15.4474    14.9750    21.9623 N.pl3   
 193 C193          15.0562    14.5450    23.2082 C.2     
 194 C194          12.5542    26.6793    14.9684 C.3     
 195 C195          12.0982    25.7773    16.1170 C.3     
 196 O196          11.4276    27.3785    14.4357 O.3     
 197 C197          16.7180    26.1500    18.6270 C.3     
 198 C198          17.2574    27.4915    18.2023 C.2     
 199 O199          17.9477    28.2438    19.0736 O.3     
 200 O200          17.0685    27.8900    17.0773 O.2     
 201 C201          14.4686    22.6641    20.2399 C.3     
 202 C202          14.0525    22.6414    21.7121 C.3     
 203 C203          12.8014    23.5014    21.9018 C.3     
 204 N204          12.4019    23.4795    23.3153 N.3     
 205 C205          19.7990    20.0376    19.8308 C.ar    
 206 C206          19.1546    21.0101    20.5729 C.ar    
 207 C207          21.0145    20.3136    19.2323 C.ar    
 208 C208          21.5855    21.5640    19.3701 C.ar    
 209 C209          20.9384    22.5431    20.1098 C.ar    
 210 C210          19.7212    22.2622    20.7133 C.ar    
 211 N211          15.6657    13.4541    23.7817 N.pl3   
 212 N212          14.1075    15.1714    23.8458 N.2     
 213 C213          10.5905    33.6884    11.7920 C.3     
 214 O214          11.0171    33.2961    10.4858 O.3     
 215 O215          10.9974    36.6325    13.1258 O.2     
 216 C216          14.0193    37.8380    12.1277 C.3     
 217 C217          14.6736    39.0216    11.4122 C.3     
 218 C218          16.1531    39.0946    11.7954 C.3     
 219 N219          16.7796    40.2279    11.1104 N.pl3   
 220 C220          18.1147    40.4943    11.3021 C.2     
 221 N221          18.8618    39.6972    12.1367 N.pl3   
 222 N222          18.6721    41.5026    10.6926 N.2     
 223 O223          12.4176    40.1284    10.4542 O.2     
 224 C224          19.8397    12.0352    15.9211 C.3     
 225 C225          19.6405    12.2893    14.4491 C.2     
 226 C226          19.6532    10.5445    16.2111 C.3     
 227 C227          19.9921    10.2638    17.6764 C.3     
 228 N228          20.4347    11.6802    13.5465 N.am    
 229 O229          18.7655    13.0420    14.0766 O.2     
 230 C230          19.6531     8.8092    18.0086 C.3     
 231 O231          21.4982    23.7737    20.2472 O.3     
 232 N232          11.7470    42.5171    11.4682 N.3     
 233 C233           9.6568    41.2518    11.6336 C.3     
 234 C234          12.8902    42.9583    12.2783 C.3     
 235 C235           8.9024    42.4167    12.2778 C.3     
 236 C236           7.4573    42.4285    11.7753 C.3     
 237 C237           8.9122    42.2518    13.7988 C.3     
 238 C238          21.4846    10.5058    17.9102 C.3     
 239 H239          11.2074    41.3451    13.1262 H       
 240 H240          11.3877    38.9223    13.1014 H       
 241 H241          12.4473    37.7219    10.6593 H       
 242 H242          13.1454    35.2298    11.4107 H       
 243 H243          11.4925    34.3254    13.6417 H       
 244 H244          11.6000    31.6373    13.4816 H       
 245 H245          14.4691    31.1194    13.3145 H       
 246 H246          13.6160    30.7143    10.9863 H       
 247 H247          14.2513    29.2419    11.7586 H       
 248 H248          11.0843    28.1874    10.3024 H       
 249 H249          12.2005    29.3431     9.5364 H       
 250 H250          12.8358    27.8707    10.3087 H       
 251 H251          14.6873    28.4900    13.8635 H       
 252 H252          13.1639    28.2239    16.3407 H       
 253 H253          14.0614    26.2638    17.6452 H       
 254 H254          16.7112    25.4362    16.5945 H       
 255 H255          17.4748    23.4383    18.2340 H       
 256 H256          15.2954    21.5143    17.9581 H       
 257 H257          15.5049    20.7788    20.3513 H       
 258 H258          16.5294    22.2007    20.6627 H       
 259 H259          16.3070    19.2361    18.9823 H       
 260 H260          18.8502    18.9728    17.5714 H       
 261 H261          18.5856    18.4428    20.5644 H       
 262 H262          19.9652    17.9267    19.5650 H       
 263 H263          19.5692    16.4114    18.0015 H       
 264 H264          17.1673    14.9350    17.2409 H       
 265 H265          17.5729    13.1740    18.9863 H       
 266 H266          18.7826    14.2436    19.7352 H       
 267 H267          18.0262    12.3956    16.9649 H       
 268 H268          17.0459    15.9846    20.0539 H       
 269 H269          15.8362    14.9150    19.3049 H       
 270 H270          16.2204    13.2332    21.0861 H       
 271 H271          17.4300    14.3028    21.8351 H       
 272 H272          15.0173    15.7446    21.5577 H       
 273 H273          13.0071    26.0703    14.1860 H       
 274 H274          11.6931    26.3907    16.9218 H       
 275 H275          11.3286    25.0937    15.7586 H       
 276 H276          12.9480    25.2049    16.4889 H       
 277 H277          11.6430    27.9705    13.7020 H       
 278 H278          16.0014    26.2864    19.4370 H       
 279 H279          17.5390    25.5205    18.9704 H       
 280 H280          18.2738    29.0967    18.7552 H       
 281 H281          14.6833    23.6895    19.9388 H       
 282 H282          13.6588    22.2676    19.6273 H       
 283 H283          13.8377    21.6161    22.0132 H       
 284 H284          14.8622    23.0379    22.3246 H       
 285 H285          13.0161    24.5267    21.6007 H       
 286 H286          11.9916    23.1048    21.2892 H       
 287 H287          13.1591    23.7819    23.9097 H       
 288 H288          11.5771    24.0407    23.4666 H       
 289 H289          18.2072    20.7908    21.0428 H       
 290 H290          21.5181    19.5510    18.6568 H       
 291 H291          22.5351    21.7789    18.9027 H       
 292 H292          19.2154    23.0227    21.2897 H       
 293 H293          16.3717    12.9879    23.3072 H       
 294 H294          15.3897    13.1507    24.6607 H       
 295 H295          13.8315    14.8680    24.7248 H       
 296 H296          10.0932    32.8495    12.2790 H       
 297 H297           9.8966    34.5251    11.7117 H       
 298 H298          10.2970    33.0149     9.9048 H       
 299 H299          14.1093    37.9703    13.2059 H       
 300 H300          14.5172    36.9144    11.8322 H       
 301 H301          14.5837    38.8892    10.3341 H       
 302 H302          14.1758    39.9451    11.7077 H       
 303 H303          16.2430    39.2269    12.8736 H       
 304 H304          16.6509    38.1711    11.4999 H       
 305 H305          16.2525    40.7903    10.5216 H       
 306 H306          18.4470    38.9468    12.5903 H       
 307 H307          19.8038    39.8851    12.2719 H       
 308 H308          19.6141    41.6906    10.8278 H       
 309 H309          20.8463    12.3382    16.2092 H       
 310 H310          18.6181    10.2634    16.0172 H       
 311 H311          20.3140     9.9638    15.5676 H       
 312 H312          19.4117    10.9275    18.3172 H       
 313 H313          21.1345    11.0782    13.8444 H       
 314 H314          20.3065    11.8438    12.5991 H       
 315 H315          19.8133     8.6326    19.0722 H       
 316 H316          18.6098     8.6136    17.7609 H       
 317 H317          20.2947     8.1452    17.4293 H       
 318 H318          21.2403    24.4022    19.5590 H       
 319 H319          12.0211    42.3632    10.5094 H       
 320 H320           9.5754    41.3216    10.5489 H       
 321 H321           9.2255    40.3091    11.9704 H       
 322 H322          13.2739    43.8989    11.8833 H       
 323 H323          12.5705    43.1011    13.3105 H       
 324 H324          13.6745    42.2021    12.2422 H       
 325 H325           9.3876    43.3556    12.0110 H       
 326 H326           6.9468    41.5277    12.1159 H       
 327 H327           6.9439    43.3069    12.1663 H       
 328 H328           7.4517    42.4594    10.6858 H       
 329 H329           9.9417    42.2433    14.1567 H       
 330 H330           8.3748    43.0816    14.2577 H       
 331 H331           8.4271    41.3129    14.0656 H       
 332 H332          21.7261    11.5420    17.6735 H       
 333 H333          21.7260    10.3057    18.9541 H       
 334 H334          22.0650     9.8420    17.2694 H       
@<TRIPOS>BOND
   1    1    2 1
   2    1   62 1
   3    1   68 1
   4    1   69 1
   5    2    3 1
   6    2   70 1
   7    2   71 1
   8    3    4 1
   9    3   72 1
  10    3   73 1
  11    4    5 1
  12    4   74 1
  13    4   75 1
  14    5    6 1
  15    5   76 1
  16    5   77 1
  17    6    7 1
  18    6   78 1
  19    6   79 1
  20    7    8 1
  21    7   80 1
  22    7   81 1
  23    8    9 1
  24    8   82 1
  25    8   83 1
  26    9   10 1
  27    9   84 1
  28    9   85 1
  29   10   11 1
  30   10   86 1
  31   10   87 1
  32   11   12 1
  33   11   88 1
  34   11   89 1
  35   12   13 1
  36   12   90 1
  37   12   91 1
  38   13   14 1
  39   13   92 1
  40   13   93 1
  41   14   15 1
  42   14   94 1
  43   14   95 1
  44   15   16 am
  45   15   17 2
  46   16   18 1
  47   16   63 1
  48   18   19 1
  49   18   51 1
  50   18   96 1
  51   19   20 am
  52   19   21 2
  53   20   22 1
  54   20   97 1
  55   22   23 1
  56   22   98 1
  57   22   99 1
  58   23   24 am
  59   23   25 2
  60   24   26 1
  61   24  100 1
  62   26   27 1
  63   26   30 1
  64   26  101 1
  65   27   28 2
  66   27   29 am
  67   29   33 1
  68   29  102 1
  69   30   31 1
  70   30  103 1
  71   30  104 1
  72   31   32 ar
  73   31   57 ar
  74   32   54 ar
  75   32  105 1
  76   33   34 1
  77   33   35 1
  78   33  106 1
  79   34   38 1
  80   34  107 1
  81   34  108 1
  82   35   36 2
  83   35   37 am
  84   37   41 1
  85   37  109 1
  86   38   39 1
  87   38  110 1
  88   38  111 1
  89   39   40 am
  90   39   59 2
  91   40  112 1
  92   40  113 1
  93   41   42 1
  94   41   43 1
  95   41  114 1
  96   42   64 1
  97   42  115 1
  98   42  116 1
  99   43   44 2
 100   43   45 am
 101   45   46 1
 102   45  117 1
 103   46   47 1
 104   46   48 1
 105   46  118 1
 106   47   49 1
 107   47  119 1
 108   47  120 1
 109   48  121 1
 110   48  122 1
 111   48  123 1
 112   49   50 1
 113   49  124 1
 114   49  125 1
 115   50   60 1
 116   50  126 1
 117   50  127 1
 118   51   52 1
 119   51  128 1
 120   51  129 1
 121   52   53 3
 122   53  130 1
 123   54   55 ar
 124   54  131 1
 125   55   56 ar
 126   55   58 1
 127   56   57 ar
 128   56  132 1
 129   57  133 1
 130   58  134 1
 131   60   61 1
 132   60  135 1
 133   60  136 1
 134   61  137 1
 135   61  138 1
 136   62  139 1
 137   62  140 1
 138   62  141 1
 139   64   65 1
 140   64  142 1
 141   64  143 1
 142   65   66 1
 143   65  144 1
 144   65  145 1
 145   66   67 1
 146   66  146 1
 147   66  147 1
 148   67  148 1
 149   67  149 1
 150  150  151 1
 151  150  232 1
 152  150  233 1
 153  150  239 1
 154  151  152 am
 155  151  223 2
 156  152  153 1
 157  152  240 1
 158  153  154 1
 159  153  216 1
 160  153  241 1
 161  154  155 am
 162  154  215 2
 163  155  156 1
 164  155  242 1
 165  156  157 1
 166  156  213 1
 167  156  243 1
 168  157  158 am
 169  157  159 2
 170  158  160 1
 171  158  244 1
 172  160  161 1
 173  160  162 1
 174  160  245 1
 175  161  165 am
 176  161  166 2
 177  162  163 1
 178  162  246 1
 179  162  247 1
 180  163  164 1
 181  164  248 1
 182  164  249 1
 183  164  250 1
 184  165  167 1
 185  165  251 1
 186  167  168 1
 187  167  194 1
 188  167  252 1
 189  168  169 am
 190  168  170 2
 191  169  171 1
 192  169  253 1
 193  171  172 1
 194  171  197 1
 195  171  254 1
 196  172  173 2
 197  172  174 am
 198  174  175 1
 199  174  255 1
 200  175  176 1
 201  175  177 1
 202  175  256 1
 203  176  201 1
 204  176  257 1
 205  176  258 1
 206  177  178 2
 207  177  179 am
 208  179  180 1
 209  179  259 1
 210  180  181 1
 211  180  182 1
 212  180  260 1
 213  181  205 1
 214  181  261 1
 215  181  262 1
 216  182  183 2
 217  182  184 am
 218  184  185 1
 219  184  263 1
 220  185  186 1
 221  185  187 1
 222  185  264 1
 223  186  190 1
 224  186  265 1
 225  186  266 1
 226  187  188 2
 227  187  189 am
 228  189  224 1
 229  189  267 1
 230  190  191 1
 231  190  268 1
 232  190  269 1
 233  191  192 1
 234  191  270 1
 235  191  271 1
 236  192  193 1
 237  192  272 1
 238  193  211 1
 239  193  212 2
 240  194  195 1
 241  194  196 1
 242  194  273 1
 243  195  274 1
 244  195  275 1
 245  195  276 1
 246  196  277 1
 247  197  198 1
 248  197  278 1
 249  197  279 1
 250  198  199 1
 251  198  200 2
 252  199  280 1
 253  201  202 1
 254  201  281 1
 255  201  282 1
 256  202  203 1
 257  202  283 1
 258  202  284 1
 259  203  204 1
 260  203  285 1
 261  203  286 1
 262  204  287 1
 263  204  288 1
 264  205  206 ar
 265  205  207 ar
 266  206  210 ar
 267  206  289 1
 268  207  208 ar
 269  207  290 1
 270  208  209 ar
 271  208  291 1
 272  209  210 ar
 273  209  231 1
 274  210  292 1
 275  211  293 1
 276  211  294 1
 277  212  295 1
 278  213  214 1
 279  213  296 1
 280  213  297 1
 281  214  298 1
 282  216  217 1
 283  216  299 1
 284  216  300 1
 285  217  218 1
 286  217  301 1
 287  217  302 1
 288  218  219 1
 289  218  303 1
 290  218  304 1
 291  219  220 1
 292  219  305 1
 293  220  221 1
 294  220  222 2
 295  221  306 1
 296  221  307 1
 297  222  308 1
 298  224  225 1
 299  224  226 1
 300  224  309 1
 301  225  228 am
 302  225  229 2
 303  226  227 1
 304  226  310 1
 305  226  311 1
 306  227  230 1
 307  227  238 1
 308  227  312 1
 309  228  313 1
 310  228  314 1
 311  230  315 1
 312  230  316 1
 313  230  317 1
 314  231  318 1
 315  232  234 1
 316  232  319 1
 317  233  235 1
 318  233  320 1
 319  233  321 1
 320  234  322 1
 321  234  323 1
 322  234  324 1
 323  235  236 1
 324  235  237 1
 325  235  325 1
 326  236  326 1
 327  236  327 1
 328  236  328 1
 329  237  329 1
 330  237  330 1
 331  237  331 1
 332  238  332 1
 333  238  333 1
 334  238  334 1

#	End of record

