#	Name: ASD01882706
#	Creating user name:	WinNT
#	Creation time:	15. 06. 2019 19:45

#	Modifying user name:	WinNT
#	Modification time:	15. 06. 2019 19:45

#	Program:	/corina/corina34_cracker 3.40 0067  02.08.2006

@<TRIPOS>MOLECULE
ASD01882706
  62   66    0    0    0
SMALL
NO_CHARGES


@<TRIPOS>ATOM
   1 N1            -0.5848     2.1041     0.8267 N.ar    
   2 C2            -0.3793     0.8196     0.5812 C.ar    
   3 C3             0.9095     0.3082     0.4736 C.ar    
   4 C4             1.9907     1.1599     0.6260 C.ar    
   5 C5             0.4228     2.9501     0.9787 C.ar    
   6 N6             0.4834     4.3137     1.2361 N.am    
   7 C7             1.7416     2.5016     0.8823 C.ar    
   8 N8             2.5633     3.6095     1.0854 N.am    
   9 C9             1.7765     4.6823     1.2946 C.2     
  10 C10           -0.6678     5.2020     1.4143 C.3     
  11 C11            4.0282     3.6070     1.0736 C.3     
  12 C12            4.5273     3.8741    -0.3478 C.3     
  13 C13            4.0158     5.2364    -0.8204 C.3     
  14 C14            6.0573     3.8715    -0.3601 C.3     
  15 C15            4.0080     2.7814    -1.2844 C.3     
  16 N16           -1.4697    -0.0321     0.4289 N.3     
  17 O17            2.1742     5.8131     1.5045 O.2     
  18 C18           -3.9038    -0.2517     0.2821 C.3     
  19 N19           -3.7988    -1.3593     1.2550 N.am    
  20 C20           -2.6541    -1.2732     2.1878 C.3     
  21 C21           -1.3763    -1.1744     1.3443 C.3     
  22 C22           -2.7337     0.6995     0.5785 C.3     
  23 C23           -2.8040     0.0280     2.9888 C.3     
  24 C24           -2.8567     1.2092     2.0168 C.3     
  25 C25           -4.6836    -2.3754     1.2901 C.2     
  26 C26           -5.8794    -2.3447     0.4213 C.ar    
  27 C27           -6.0152    -1.3639    -0.5681 C.ar    
  28 C28           -7.1535    -1.3794    -1.3552 C.ar    
  29 C29           -8.1113    -2.3541    -1.1412 C.ar    
  30 N30           -7.9563    -3.2665    -0.2006 N.ar    
  31 C31           -6.8890    -3.2967     0.5699 C.ar    
  32 O32           -4.4984    -3.3170     2.0362 O.2     
  33 H33            1.0654    -0.7416     0.2738 H       
  34 H34            3.0022     0.7897     0.5478 H       
  35 H35           -0.9445     5.2313     2.4682 H       
  36 H36           -0.4073     6.2060     1.0790 H       
  37 H37           -1.5081     4.8298     0.8282 H       
  38 H38            4.3982     4.3855     1.7409 H       
  39 H39            4.3926     2.6365     1.4103 H       
  40 H40            4.3859     6.0149    -0.1532 H       
  41 H41            4.3714     5.4266    -1.8331 H       
  42 H42            2.9259     5.2382    -0.8117 H       
  43 H43            6.4217     2.9009    -0.0234 H       
  44 H44            6.4128     4.0617    -1.3727 H       
  45 H45            6.4273     4.6499     0.3072 H       
  46 H46            2.9180     2.7832    -1.2757 H       
  47 H47            4.3635     2.9716    -2.2970 H       
  48 H48            4.3724     1.8108    -0.9477 H       
  49 H49           -3.8235    -0.6379    -0.7340 H       
  50 H50           -4.8519     0.2704     0.4109 H       
  51 H51           -2.6205    -2.1436     2.8430 H       
  52 H52           -1.2512    -2.0910     0.7680 H       
  53 H53           -0.5175    -1.0418     2.0023 H       
  54 H54           -2.7569     1.5369    -0.1189 H       
  55 H55           -3.7248    -0.0064     3.5712 H       
  56 H56           -1.9517     0.1443     3.6583 H       
  57 H57           -2.0347     1.8922     2.2311 H       
  58 H58           -3.8043     1.7347     2.1356 H       
  59 H59           -5.2516    -0.6140    -0.7134 H       
  60 H60           -7.2927    -0.6381    -2.1281 H       
  61 H61           -9.0007    -2.3683    -1.7536 H       
  62 H62           -6.7982    -4.0594     1.3291 H       
@<TRIPOS>BOND
   1    1    2 ar
   2    1    5 ar
   3    2    3 ar
   4    2   16 1
   5    3    4 ar
   6    3   33 1
   7    4    7 ar
   8    4   34 1
   9    5    7 ar
  10    5    6 1
  11    6    9 am
  12    6   10 1
  13    7    8 1
  14    8    9 am
  15    8   11 1
  16    9   17 2
  17   10   35 1
  18   10   36 1
  19   10   37 1
  20   11   12 1
  21   11   38 1
  22   11   39 1
  23   12   13 1
  24   12   14 1
  25   12   15 1
  26   13   40 1
  27   13   41 1
  28   13   42 1
  29   14   43 1
  30   14   44 1
  31   14   45 1
  32   15   46 1
  33   15   47 1
  34   15   48 1
  35   16   22 1
  36   16   21 1
  37   18   19 1
  38   18   22 1
  39   18   49 1
  40   18   50 1
  41   19   20 1
  42   19   25 am
  43   20   21 1
  44   20   23 1
  45   20   51 1
  46   21   52 1
  47   21   53 1
  48   22   24 1
  49   22   54 1
  50   23   24 1
  51   23   55 1
  52   23   56 1
  53   24   57 1
  54   24   58 1
  55   25   26 1
  56   25   32 2
  57   26   27 ar
  58   26   31 ar
  59   27   28 ar
  60   27   59 1
  61   28   29 ar
  62   28   60 1
  63   29   30 ar
  64   29   61 1
  65   30   31 ar
  66   31   62 1

#	End of record

