#	Name: ASD03540131
#	Creating user name:	WinNT
#	Creation time:	15. 06. 2019 20:42

#	Modifying user name:	WinNT
#	Modification time:	15. 06. 2019 20:42

#	Program:	/corina/corina34_cracker 3.40 0067  02.08.2006

@<TRIPOS>MOLECULE
ASD03540131
  49   52    0    0    0
SMALL
NO_CHARGES


@<TRIPOS>ATOM
   1 C1             2.7516    -8.6910    -2.5514 C.2     
   2 C2             2.0605    -7.5584    -1.9018 C.ar    
   3 C3             0.6746    -7.5856    -1.7339 C.ar    
   4 C4             0.0358    -6.5249    -1.1261 C.ar    
   5 C5             0.7650    -5.4354    -0.6836 C.ar    
   6 C6             2.1386    -5.4017    -0.8473 C.ar    
   7 C7             2.7909    -6.4584    -1.4478 C.ar    
   8 O8             2.1140    -9.6488    -2.9408 O.2     
   9 O9             4.0881    -8.6591    -2.7169 O.3     
  10 C10            0.0601    -4.2800    -0.0210 C.3     
  11 N11           -3.3734    -4.7481     1.2286 N.am    
  12 C12           -2.2984    -4.3336     0.5369 C.2     
  13 N13           -1.0579    -4.7846     0.7800 N.am    
  14 C14           -0.8209    -5.6952     1.7489 C.2     
  15 C15           -1.9638    -6.1867     2.5405 C.ar    
  16 C16           -1.7987    -7.1239     3.5537 C.ar    
  17 C17           -2.9120    -7.5572     4.2733 C.ar    
  18 C18           -4.1828    -7.0494     3.9729 C.ar    
  19 C19           -4.3447    -6.1212     2.9691 C.ar    
  20 C20           -3.2438    -5.6816     2.2459 C.ar    
  21 C21           -2.7562    -8.5224     5.3196 C.1     
  22 C22           -2.6285    -9.3136     6.1775 C.1     
  23 C23           -2.4728   -10.2787     7.2238 C.ar    
  24 C24           -3.5856   -10.7157     7.9473 C.ar    
  25 C25           -3.4278   -11.6454     8.9538 C.ar    
  26 C26           -2.1715   -12.1454     9.2478 C.ar    
  27 C27           -1.0649   -11.7174     8.5356 C.ar    
  28 C28           -1.2080   -10.7925     7.5226 C.ar    
  29 O29            0.3057    -6.0996     1.9627 O.2     
  30 O30           -2.4563    -3.5139    -0.3470 O.2     
  31 C31            1.0422    -3.5357     0.8859 C.3     
  32 H32            0.1041    -8.4351    -2.0794 H       
  33 H33           -1.0361    -6.5446    -0.9955 H       
  34 H34            2.7017    -4.5479    -0.5003 H       
  35 H35            3.8636    -6.4330    -1.5706 H       
  36 H36            4.4955    -9.4233    -3.1472 H       
  37 H37           -0.3177    -3.5991    -0.7837 H       
  38 H38           -4.2488    -4.3883     1.0161 H       
  39 H39           -0.8173    -7.5132     3.7813 H       
  40 H40           -5.0418    -7.3888     4.5327 H       
  41 H41           -5.3279    -5.7351     2.7439 H       
  42 H42           -4.5667   -10.3260     7.7192 H       
  43 H43           -4.2869   -11.9837     9.5140 H       
  44 H44           -2.0539   -12.8730    10.0372 H       
  45 H45           -0.0874   -12.1120     8.7705 H       
  46 H46           -0.3442   -10.4630     6.9643 H       
  47 H47            0.5323    -2.7000     1.3652 H       
  48 H48            1.4199    -4.2166     1.6487 H       
  49 H49            1.8740    -3.1602     0.2899 H       
@<TRIPOS>BOND
   1    1    2 1
   2    1    8 2
   3    1    9 1
   4    2    3 ar
   5    2    7 ar
   6    3    4 ar
   7    3   32 1
   8    4    5 ar
   9    4   33 1
  10    5    6 ar
  11    5   10 1
  12    6    7 ar
  13    6   34 1
  14    7   35 1
  15    9   36 1
  16   10   13 1
  17   10   31 1
  18   10   37 1
  19   11   12 am
  20   11   20 1
  21   11   38 1
  22   12   13 am
  23   12   30 2
  24   13   14 am
  25   14   15 1
  26   14   29 2
  27   15   16 ar
  28   15   20 ar
  29   16   17 ar
  30   16   39 1
  31   17   18 ar
  32   17   21 1
  33   18   19 ar
  34   18   40 1
  35   19   20 ar
  36   19   41 1
  37   21   22 3
  38   22   23 1
  39   23   24 ar
  40   23   28 ar
  41   24   25 ar
  42   24   42 1
  43   25   26 ar
  44   25   43 1
  45   26   27 ar
  46   26   44 1
  47   27   28 ar
  48   27   45 1
  49   28   46 1
  50   31   47 1
  51   31   48 1
  52   31   49 1

#	End of record

