#	Name: ASD01881090
#	Creating user name:	WinNT
#	Creation time:	15. 06. 2019 19:42

#	Modifying user name:	WinNT
#	Modification time:	15. 06. 2019 19:42

#	Program:	/corina/corina34_cracker 3.40 0067  02.08.2006

@<TRIPOS>MOLECULE
ASD01881090
  36   38    0    0    0
SMALL
NO_CHARGES


@<TRIPOS>ATOM
   1 C1            -0.0169     1.3953     0.0097 C.ar    
   2 C2             0.0021    -0.0041     0.0020 C.ar    
   3 C3             1.2088    -0.6919    -0.0132 C.ar    
   4 C4             2.4029     0.0259    -0.0207 C.ar    
   5 C5             2.3712     1.4407    -0.0128 C.ar    
   6 C6             1.1462     2.1093     0.0024 C.ar    
   7 C7             3.7067    -0.6408    -0.0361 C.2     
   8 C8             4.8263     0.1002    -0.0424 C.2     
   9 N9             4.7999     1.4655    -0.0344 N.am    
  10 C10            3.6474     2.1635    -0.0206 C.2     
  11 C11            6.0692     2.1971    -0.0412 C.3     
  12 C12            6.4987     2.4599    -1.4860 C.3     
  13 C13            7.8243     3.2238    -1.4931 C.3     
  14 O14            3.6652     3.3814    -0.0143 O.2     
  15 C15           -1.2754    -0.7580     0.0106 C.ar    
  16 C16           -2.4987    -0.0824     0.0263 C.ar    
  17 C17           -3.6627    -0.8319     0.0339 C.ar    
  18 C18           -3.5785    -2.2121     0.0257 C.ar    
  19 N19           -2.4089    -2.8222     0.0113 N.ar    
  20 C20           -1.2753    -2.1517    -0.0026 C.ar    
  21 H21           -0.9629     1.9162     0.0170 H       
  22 H22            1.2213    -1.7718    -0.0187 H       
  23 H23            1.1188     3.1890     0.0081 H       
  24 H24            3.7671    -1.7191    -0.0421 H       
  25 H25            5.7825    -0.4017    -0.0538 H       
  26 H26            5.9441     3.1466     0.4791 H       
  27 H27            6.8328     1.6045     0.4627 H       
  28 H28            6.6238     1.5103    -2.0063 H       
  29 H29            5.7351     3.0524    -1.9899 H       
  30 H30            8.5878     2.6313    -0.9891 H       
  31 H31            8.1302     3.4111    -2.5224 H       
  32 H32            7.6991     4.1734    -0.9728 H       
  33 H33           -2.5351     0.9970     0.0328 H       
  34 H34           -4.6260    -0.3439     0.0464 H       
  35 H35           -4.4845    -2.7999     0.0315 H       
  36 H36           -0.3372    -2.6867    -0.0142 H       
@<TRIPOS>BOND
   1    1    2 ar
   2    1    6 ar
   3    1   21 1
   4    2    3 ar
   5    2   15 1
   6    3    4 ar
   7    3   22 1
   8    4    5 ar
   9    4    7 1
  10    5    6 ar
  11    5   10 1
  12    6   23 1
  13    7    8 2
  14    7   24 1
  15    8    9 1
  16    8   25 1
  17    9   10 am
  18    9   11 1
  19   10   14 2
  20   11   12 1
  21   11   26 1
  22   11   27 1
  23   12   13 1
  24   12   28 1
  25   12   29 1
  26   13   30 1
  27   13   31 1
  28   13   32 1
  29   15   16 ar
  30   15   20 ar
  31   16   17 ar
  32   16   33 1
  33   17   18 ar
  34   17   34 1
  35   18   19 ar
  36   18   35 1
  37   19   20 ar
  38   20   36 1

#	End of record

