#	Name: ASD09890023
#	Creating user name:	WinNT
#	Creation time:	15. 06. 2019 21:24

#	Modifying user name:	WinNT
#	Modification time:	15. 06. 2019 21:24

#	Program:	/corina/corina34_cracker 3.40 0067  02.08.2006

@<TRIPOS>MOLECULE
ASD09890023
  49   52    0    0    0
SMALL
NO_CHARGES


@<TRIPOS>ATOM
   1 N1            -0.0154     1.2810     0.0091 N.2     
   2 N2             0.0021    -0.0041     0.0020 N.2     
   3 C3             1.2399    -0.4338    -0.0121 C.2     
   4 N4             2.0468     0.6681    -0.0139 N.pl3   
   5 C5             1.2027     1.7448    -0.0001 C.2     
   6 C6             3.4494     0.6911    -0.0268 C.ar    
   7 C7             4.1429     0.2010    -1.1248 C.ar    
   8 C8             5.5239     0.2254    -1.1348 C.ar    
   9 C9             6.2155     0.7370    -0.0523 C.ar    
  10 C10            5.5274     1.2259     1.0428 C.ar    
  11 C11            4.1463     1.2093     1.0561 C.ar    
  12 C12            1.6062     3.1968     0.0034 C.3     
  13 O13            1.7470     3.6488     1.3517 O.3     
  14 C14            2.1095     4.9459     1.5329 C.ar    
  15 C15            2.2644     5.4514     2.8156 C.ar    
  16 C16            2.6329     6.7704     2.9971 C.ar    
  17 C17            2.8473     7.5865     1.9018 C.ar    
  18 C18            2.6931     7.0853     0.6224 C.ar    
  19 C19            2.3308     5.7653     0.4355 C.ar    
  20 O20            1.6433    -1.7277    -0.0222 O.3     
  21 C21            0.6210    -2.7261    -0.0176 C.3     
  22 C22            1.1356    -3.9797     0.6927 C.3     
  23 C23            0.0409    -5.0486     0.6977 C.3     
  24 C24           -0.3374    -5.3979    -0.7431 C.3     
  25 C25           -0.8520    -4.1443    -1.4534 C.3     
  26 C26            0.2426    -3.0753    -1.4584 C.3     
  27 H27            3.6031    -0.1994    -1.9702 H       
  28 H28            6.0640    -0.1558    -1.9889 H       
  29 H29            7.2954     0.7544    -0.0621 H       
  30 H30            6.0702     1.6250     1.8869 H       
  31 H31            3.6092     1.5954     1.9098 H       
  32 H32            2.5559     3.3112    -0.5192 H       
  33 H33            0.8410     3.7877    -0.4999 H       
  34 H34            2.0967     4.8145     3.6714 H       
  35 H35            2.7533     7.1645     3.9954 H       
  36 H36            3.1353     8.6174     2.0457 H       
  37 H37            2.8605     7.7249    -0.2315 H       
  38 H38            2.2152     5.3729    -0.5640 H       
  39 H39           -0.2559    -2.3457     0.5063 H       
  40 H40            2.0125    -4.3600     0.1688 H       
  41 H41            1.4051    -3.7309     1.7192 H       
  42 H42            0.4075    -5.9417     1.2037 H       
  43 H43           -0.8360    -4.6683     1.2216 H       
  44 H44            0.5395    -5.7782    -1.2670 H       
  45 H45           -1.1173    -6.1594    -0.7395 H       
  46 H46           -1.1215    -4.3930    -2.4798 H       
  47 H47           -1.7289    -3.7639    -0.9295 H       
  48 H48           -0.1240    -2.1822    -1.9644 H       
  49 H49            1.1195    -3.4557    -1.9823 H       
@<TRIPOS>BOND
   1    1    2 1
   2    1    5 2
   3    2    3 2
   4    3    4 1
   5    3   20 1
   6    4    5 1
   7    4    6 1
   8    5   12 1
   9    6    7 ar
  10    6   11 ar
  11    7    8 ar
  12    7   27 1
  13    8    9 ar
  14    8   28 1
  15    9   10 ar
  16    9   29 1
  17   10   11 ar
  18   10   30 1
  19   11   31 1
  20   12   13 1
  21   12   32 1
  22   12   33 1
  23   13   14 1
  24   14   15 ar
  25   14   19 ar
  26   15   16 ar
  27   15   34 1
  28   16   17 ar
  29   16   35 1
  30   17   18 ar
  31   17   36 1
  32   18   19 ar
  33   18   37 1
  34   19   38 1
  35   20   21 1
  36   21   22 1
  37   21   26 1
  38   21   39 1
  39   22   23 1
  40   22   40 1
  41   22   41 1
  42   23   24 1
  43   23   42 1
  44   23   43 1
  45   24   25 1
  46   24   44 1
  47   24   45 1
  48   25   26 1
  49   25   46 1
  50   25   47 1
  51   26   48 1
  52   26   49 1

#	End of record

