#	Name: ASD03091088
#	Creating user name:	WinNT
#	Creation time:	15. 06. 2019 20:30

#	Modifying user name:	WinNT
#	Modification time:	15. 06. 2019 20:30

#	Program:	/corina/corina34_cracker 3.40 0067  02.08.2006

@<TRIPOS>MOLECULE
ASD03091088
  54   56    0    0    0
SMALL
NO_CHARGES


@<TRIPOS>ATOM
   1 N1             1.2343     1.8052     0.3654 N.am    
   2 C2             0.8315     0.4051     0.1844 C.3     
   3 C3             2.0957    -0.4670     0.2845 C.3     
   4 C4             3.1216     0.4643     1.0066 C.3     
   5 C5             2.6980     1.8630     0.5085 C.3     
   6 N6             2.2658    -1.0860     2.6317 N.3     
   7 C7             1.8525    -1.5889     1.3106 C.3     
   8 C8             2.7057     0.3161     2.4867 C.3     
   9 C9             0.4011     2.8643     0.3906 C.2     
  10 O10           -0.7953     2.6995     0.2564 O.2     
  11 O11            0.8944     4.1049     0.5644 O.3     
  12 C12            1.2232    -1.1906     3.5558 C.ar    
  13 C13            1.0203    -0.1852     4.4892 C.ar    
  14 C14           -0.0217    -0.2945     5.4094 C.ar    
  15 C15           -0.8538    -1.4154     5.3848 C.ar    
  16 C16           -0.6438    -2.4103     4.4522 C.ar    
  17 C17            0.3857    -2.2995     3.5361 C.ar    
  18 N18           -1.9611    -1.5366     6.3597 N.pl3   
  19 O19           -2.0816    -2.5521     7.0212 O.2     
  20 O20           -2.7517    -0.6208     6.5002 O.2     
  21 C21           -0.2444     0.7729     6.4081 C.2     
  22 N22            0.4741     1.9116     6.3490 N.am    
  23 O23           -1.0755     0.6233     7.2825 O.2     
  24 C24            0.2534     2.9691     7.3386 C.3     
  25 C25           -0.0613     5.1980     0.5810 C.3     
  26 C26           -1.0569     4.9877     1.7235 C.3     
  27 C27            0.6800     6.5204     0.7874 C.3     
  28 C28           -0.8139     5.2376    -0.7505 C.3     
  29 H29            0.1245     0.1209     0.9639 H       
  30 H30            0.3717     0.2773    -0.7956 H       
  31 H31            2.4453    -0.8263    -0.6834 H       
  32 H32            4.1646     0.2220     0.8025 H       
  33 H33            3.1626     2.0769    -0.4540 H       
  34 H34            2.9755     2.6231     1.2388 H       
  35 H35            0.7943    -1.8494     1.3291 H       
  36 H36            2.4448    -2.4651     1.0471 H       
  37 H37            3.5559     0.5144     3.1394 H       
  38 H38            1.8849     0.9951     2.7179 H       
  39 H39            1.6675     0.6794     4.5036 H       
  40 H40           -1.2886    -3.2765     4.4349 H       
  41 H41            0.5424    -3.0794     2.8056 H       
  42 H42            1.1373     2.0309     5.6513 H       
  43 H43            0.9207     3.8057     7.1312 H       
  44 H44           -0.7813     3.3075     7.2841 H       
  45 H45            0.4567     2.5810     8.3366 H       
  46 H46           -0.5207     4.9594     2.6721 H       
  47 H47           -1.7743     5.8082     1.7359 H       
  48 H48           -1.5850     4.0456     1.5764 H       
  49 H49            1.3893     6.6703    -0.0266 H       
  50 H50           -0.0374     7.3410     0.7998 H       
  51 H51            1.2162     6.4922     1.7360 H       
  52 H52           -1.3420     4.2955    -0.8976 H       
  53 H53           -1.5313     6.0582    -0.7381 H       
  54 H54           -0.1046     5.3875    -1.5645 H       
@<TRIPOS>BOND
   1    1    2 1
   2    1    5 1
   3    1    9 am
   4    2    3 1
   5    2   29 1
   6    2   30 1
   7    3    4 1
   8    3    7 1
   9    3   31 1
  10    4    5 1
  11    4    8 1
  12    4   32 1
  13    5   33 1
  14    5   34 1
  15    6    7 1
  16    6    8 1
  17    6   12 1
  18    7   35 1
  19    7   36 1
  20    8   37 1
  21    8   38 1
  22    9   10 2
  23    9   11 1
  24   11   25 1
  25   12   13 ar
  26   12   17 ar
  27   13   14 ar
  28   13   39 1
  29   14   15 ar
  30   14   21 1
  31   15   16 ar
  32   15   18 1
  33   16   17 ar
  34   16   40 1
  35   17   41 1
  36   18   19 2
  37   18   20 2
  38   21   22 am
  39   21   23 2
  40   22   24 1
  41   22   42 1
  42   24   43 1
  43   24   44 1
  44   24   45 1
  45   25   26 1
  46   25   28 1
  47   25   27 1
  48   26   46 1
  49   26   47 1
  50   26   48 1
  51   27   49 1
  52   27   50 1
  53   27   51 1
  54   28   52 1
  55   28   53 1
  56   28   54 1

#	End of record

