#	Name: ASD04590476
#	Creating user name:	WinNT
#	Creation time:	15. 06. 2019 20:50

#	Modifying user name:	WinNT
#	Modification time:	15. 06. 2019 20:50

#	Program:	/corina/corina34_cracker 3.40 0067  02.08.2006

@<TRIPOS>MOLECULE
ASD04590476
  39   42    0    0    0
SMALL
NO_CHARGES


@<TRIPOS>ATOM
   1 C1            -0.0167     1.3831     0.0096 C.ar    
   2 C2             0.0021    -0.0041     0.0020 C.ar    
   3 C3            -2.3989    -0.0422     0.0257 C.ar    
   4 C4            -2.4109     1.3636     0.0440 C.ar    
   5 C5            -1.2147     2.0664     0.0305 C.ar    
   6 N6            -3.6902    -0.4546     0.0454 N.2     
   7 C7            -4.4849     0.5877     0.0742 C.2     
   8 N8            -3.7411     1.7374     0.0745 N.pl3   
   9 C9            -5.9611     0.5305     0.1010 C.2     
  10 C10           -6.7476    -0.6447     0.1006 C.2     
  11 C11           -8.0500    -0.2703     0.1298 C.2     
  12 N12           -8.0928     1.0879     0.1481 N.pl3   
  13 N13           -6.7765     1.5662     0.1354 N.2     
  14 N14           -6.2657    -1.9634     0.0741 N.am    
  15 C15           -7.1305    -2.9971     0.0770 C.2     
  16 O16           -8.3282    -2.7878     0.1025 O.2     
  17 C17           -1.1747    -0.7194     0.0099 C.ar    
  18 C18           -6.6241    -4.3825     0.0492 C.ar    
  19 C19           -6.4057    -5.0273    -1.1730 C.ar    
  20 C20           -6.3542    -5.0570     1.2449 C.ar    
  21 C21           -5.8796    -6.3546     1.2097 C.ar    
  22 C22           -5.6711    -6.9862    -0.0030 C.ar    
  23 C23           -5.9307    -6.3252    -1.1898 C.ar    
  24 F24           -6.6587    -4.3834    -2.3334 F       
  25 F25           -6.5564    -4.4415     2.4305 F       
  26 Br26          -1.1360    -2.6100    -0.0013 Br      
  27 C27            1.2812     2.1489     0.0014 C.3     
  28 F28            2.3530     1.2499    -0.0137 F       
  29 F29            1.3368     2.9600    -1.1372 F       
  30 F30            1.3586     2.9477     1.1473 F       
  31 H31            0.9469    -0.5270    -0.0105 H       
  32 H32           -1.2215     3.1463     0.0367 H       
  33 H33           -4.0838     2.6446     0.0925 H       
  34 H34           -8.9024    -0.9335     0.1368 H       
  35 H35           -8.8957     1.6318     0.1701 H       
  36 H36           -5.3103    -2.1303     0.0538 H       
  37 H37           -5.6707    -6.8768     2.1317 H       
  38 H38           -5.2997    -8.0002    -0.0233 H       
  39 H39           -5.7654    -6.8259    -2.1323 H       
@<TRIPOS>BOND
   1    1    2 ar
   2    1   27 1
   3    1    5 ar
   4    2   17 ar
   5    2   31 1
   6    3    4 ar
   7    3    6 1
   8    3   17 ar
   9    4    5 ar
  10    4    8 1
  11    5   32 1
  12    6    7 2
  13    7    8 1
  14    7    9 1
  15    8   33 1
  16    9   10 1
  17    9   13 2
  18   10   11 2
  19   10   14 1
  20   11   12 1
  21   11   34 1
  22   12   13 1
  23   12   35 1
  24   14   15 am
  25   14   36 1
  26   15   16 2
  27   15   18 1
  28   17   26 1
  29   18   19 ar
  30   18   20 ar
  31   19   24 1
  32   19   23 ar
  33   20   21 ar
  34   20   25 1
  35   21   22 ar
  36   21   37 1
  37   22   23 ar
  38   22   38 1
  39   23   39 1
  40   27   28 1
  41   27   29 1
  42   27   30 1

#	End of record

