#	Name: ASD01890552
#	Creating user name:	WinNT
#	Creation time:	15. 06. 2019 19:51

#	Modifying user name:	WinNT
#	Modification time:	15. 06. 2019 19:51

#	Program:	/corina/corina34_cracker 3.40 0067  02.08.2006

@<TRIPOS>MOLECULE
ASD01890552
  24   25    0    0    0
SMALL
NO_CHARGES


@<TRIPOS>ATOM
   1 C1            -0.0184     1.5084     0.0103 C.2     
   2 C2             0.0021    -0.0041     0.0020 C.3     
   3 C3            -0.8921    -0.5103     1.1413 C.3     
   4 C4            -2.2769     0.1358     1.0043 C.3     
   5 C5            -2.1019     1.6363     0.9266 C.2     
   6 O6             1.0093     2.1435     0.0039 O.2     
   7 O7            -2.7304     2.3731     1.6490 O.2     
   8 O8            -1.2209     2.1304     0.0195 O.3     
   9 C9            -1.0227    -2.0090     1.0535 C.ar    
  10 C10           -0.6005    -2.8022     2.1040 C.ar    
  11 C11           -0.7205    -4.1779     2.0232 C.ar    
  12 C12           -1.2631    -4.7593     0.8908 C.ar    
  13 C13           -1.6848    -3.9653    -0.1587 C.ar    
  14 C14           -1.5698    -2.5900    -0.0751 C.ar    
  15 Cl15          -0.1900    -5.1747     3.3418 Cl      
  16 H16           -0.3778    -0.3701    -0.9518 H       
  17 H17            1.0222    -0.3572     0.1528 H       
  18 H18           -0.4534    -0.2348     2.1003 H       
  19 H19           -2.7604    -0.2239     0.0960 H       
  20 H20           -2.8864    -0.1173     1.8717 H       
  21 H21           -0.1768    -2.3479     2.9874 H       
  22 H22           -1.3566    -5.8334     0.8271 H       
  23 H23           -2.1083    -4.4190    -1.0426 H       
  24 H24           -1.9039    -1.9696    -0.8936 H       
@<TRIPOS>BOND
   1    1    2 1
   2    1    6 2
   3    1    8 1
   4    2    3 1
   5    2   16 1
   6    2   17 1
   7    3    4 1
   8    3    9 1
   9    3   18 1
  10    4    5 1
  11    4   19 1
  12    4   20 1
  13    5    7 2
  14    5    8 1
  15    9   10 ar
  16    9   14 ar
  17   10   11 ar
  18   10   21 1
  19   11   12 ar
  20   11   15 1
  21   12   13 ar
  22   12   22 1
  23   13   14 ar
  24   13   23 1
  25   14   24 1

#	End of record

