#	Name: ASD00461002
#	Creating user name:	WinNT
#	Creation time:	15. 06. 2019 18:36

#	Modifying user name:	WinNT
#	Modification time:	15. 06. 2019 18:36

#	Program:	/corina/corina34_cracker 3.40 0067  02.08.2006

@<TRIPOS>MOLECULE
ASD00461002
  31   33    0    0    0
SMALL
NO_CHARGES


@<TRIPOS>ATOM
   1 C1            -0.1275     1.1928    -1.0428 C.ar    
   2 C2            -0.0777    -0.1298    -0.7222 C.ar    
   3 C3             1.0349     1.9041    -1.3055 C.ar    
   4 C4             1.1598    -0.8012    -0.6516 C.ar    
   5 C5             2.2575     1.2744    -1.2444 C.ar    
   6 N6             1.4244    -2.0881    -0.3561 N.2     
   7 C7             2.3278    -0.0782    -0.9175 C.ar    
   8 C8             2.6478    -2.4621    -0.3573 C.2     
   9 S9             3.6957    -1.1746    -0.7526 S.3     
  10 C10            3.1062    -3.8638    -0.0473 C.3     
  11 O11            2.4934    -4.7779    -0.9589 O.3     
  12 C12            4.6046    -3.9446    -0.1861 C.ar    
  13 C13            5.4185    -3.2762     0.7094 C.ar    
  14 C14            6.7929    -3.3499     0.5825 C.ar    
  15 C15            7.3540    -4.0927    -0.4409 C.ar    
  16 C16            6.5389    -4.7614    -1.3369 C.ar    
  17 C17            5.1648    -4.6915    -1.2056 C.ar    
  18 Cl18           9.0801    -4.1853    -0.6012 Cl      
  19 C19            2.7064    -4.2263     1.3844 C.3     
  20 H20           -1.0831     1.6930    -1.0975 H       
  21 H21           -0.9922    -0.6678    -0.5205 H       
  22 H22            0.9802     2.9526    -1.5585 H       
  23 H23            3.1616     1.8285    -1.4496 H       
  24 H24            2.7035    -4.6077    -1.8873 H       
  25 H25            4.9804    -2.6961     1.5081 H       
  26 H26            7.4286    -2.8275     1.2820 H       
  27 H27            6.9764    -5.3414    -2.1360 H       
  28 H28            4.5284    -5.2134    -1.9050 H       
  29 H29            1.6226    -4.1679     1.4848 H       
  30 H30            3.0380    -5.2401     1.6086 H       
  31 H31            3.1739    -3.5290     2.0797 H       
@<TRIPOS>BOND
   1    1    2 ar
   2    1    3 ar
   3    1   20 1
   4    2    4 ar
   5    2   21 1
   6    3    5 ar
   7    3   22 1
   8    4    6 1
   9    4    7 ar
  10    5    7 ar
  11    5   23 1
  12    6    8 2
  13    7    9 1
  14    8   10 1
  15    8    9 1
  16   10   11 1
  17   10   12 1
  18   10   19 1
  19   11   24 1
  20   12   13 ar
  21   12   17 ar
  22   13   14 ar
  23   13   25 1
  24   14   15 ar
  25   14   26 1
  26   15   16 ar
  27   15   18 1
  28   16   17 ar
  29   16   27 1
  30   17   28 1
  31   19   29 1
  32   19   30 1
  33   19   31 1

#	End of record

