#	Name: ASD00070011
#	Creating user name:	WinNT
#	Creation time:	15. 06. 2019 18:29

#	Modifying user name:	WinNT
#	Modification time:	15. 06. 2019 18:29

#	Program:	/corina/corina34_cracker 3.40 0067  02.08.2006

@<TRIPOS>MOLECULE
ASD00070011
  73   77    0    0    0
SMALL
NO_CHARGES


@<TRIPOS>ATOM
   1 C1            -0.0184     1.5028     0.0103 C.2     
   2 C2             0.0021    -0.0041     0.0020 C.3     
   3 O3             1.0236     2.1234     0.0037 O.2     
   4 N4            -1.1946     2.1607     0.0195 N.am    
   5 C5             2.9251    -2.5086     0.0064 C.3     
   6 C6             1.4770    -2.0214     0.1029 C.3     
   7 C7             1.4513    -0.4944    -0.0145 C.3     
   8 C8             2.1164    -0.0833    -1.3316 C.3     
   9 C9             3.5398    -0.6453    -1.3727 C.3     
  10 O10            3.4939    -2.0662    -1.2276 O.3     
  11 C11           -1.2145     3.6256     0.0275 C.3     
  12 C12           -2.5315     4.1210    -0.5732 C.3     
  13 C13           -2.5522     5.6509    -0.5648 C.3     
  14 C14           -2.4266     6.1547     0.8744 C.3     
  15 C15           -1.1096     5.6592     1.4751 C.3     
  16 C16           -1.0888     4.1294     1.4667 C.3     
  17 C17           -2.4474     7.6846     0.8828 C.3     
  18 C18           -2.4475     8.1867     2.3281 C.3     
  19 N19           -2.4674     9.6555     2.3362 N.3     
  20 C20           -2.7062    10.1711     3.6902 C.3     
  21 C21           -2.8652    11.6923     3.6376 C.3     
  22 C22           -1.5944    12.3135     3.0515 C.3     
  23 C23           -1.3419    11.7238     1.6611 C.3     
  24 C24           -1.2270    10.2018     1.7711 C.3     
  25 O25           -0.1096    16.6286     4.2738 O.3     
  26 C26            0.6621    15.6949     4.8571 C.2     
  27 C27            0.2442    14.4694     4.5127 C.2     
  28 C28           -0.9069    14.6646     3.6230 C.ar    
  29 C29           -1.0698    16.0564     3.5196 C.ar    
  30 C30           -1.7681    13.8064     2.9414 C.ar    
  31 C31           -2.7787    14.3311     2.1661 C.ar    
  32 C32           -2.9398    15.7051     2.0633 C.ar    
  33 C33           -2.0948    16.5647     2.7324 C.ar    
  34 H34           -0.4983    -0.3791     0.8948 H       
  35 H35           -0.5153    -0.3696    -0.8850 H       
  36 H36           -2.0280     1.6644     0.0207 H       
  37 H37            3.5012    -2.1032     0.8382 H       
  38 H38            2.9457    -3.5977     0.0464 H       
  39 H39            0.8909    -2.4588    -0.7054 H       
  40 H40            1.0553    -2.3201     1.0627 H       
  41 H41            1.9943    -0.0552     0.8224 H       
  42 H42            1.5432    -0.4815    -2.1689 H       
  43 H43            2.1521     1.0041    -1.3978 H       
  44 H44            4.0032    -0.3921    -2.3263 H       
  45 H45            4.1239    -0.2155    -0.5590 H       
  46 H46           -0.3805     4.0035    -0.5638 H       
  47 H47           -2.6210     3.7621    -1.5985 H       
  48 H48           -3.3655     3.7431     0.0182 H       
  49 H49           -1.7182     6.0288    -1.1561 H       
  50 H50           -3.4905     6.0039    -0.9927 H       
  51 H51           -3.2606     5.7768     1.4658 H       
  52 H52           -0.2756     6.0372     0.8838 H       
  53 H53           -1.0201     6.0182     2.5004 H       
  54 H54           -1.9228     3.7515     2.0581 H       
  55 H55           -0.1506     3.7764     1.8947 H       
  56 H56           -1.5649     8.0627     0.3669 H       
  57 H57           -3.3446     8.0386     0.3752 H       
  58 H58           -3.3300     7.8085     2.8441 H       
  59 H59           -1.5502     7.8327     2.8358 H       
  60 H60           -3.6149     9.7247     4.0939 H       
  61 H61           -1.8614     9.9163     4.3301 H       
  62 H62           -3.7183    11.9474     3.0089 H       
  63 H63           -3.0269    12.0764     4.6448 H       
  64 H64           -0.7475    12.0913     3.7007 H       
  65 H65           -2.1710    11.9795     1.0013 H       
  66 H66           -0.4152    12.1304     1.2562 H       
  67 H67           -0.3891     9.9467     2.4199 H       
  68 H68           -1.0614     9.7776     0.7807 H       
  69 H69            1.4979    15.9027     5.5088 H       
  70 H70            0.6690    13.5273     4.8263 H       
  71 H71           -3.4482    13.6700     1.6358 H       
  72 H72           -3.7353    16.1056     1.4524 H       
  73 H73           -2.2304    17.6325     2.6450 H       
@<TRIPOS>BOND
   1    1    2 1
   2    1    3 2
   3    1    4 am
   4    2    7 1
   5    2   34 1
   6    2   35 1
   7    4   11 1
   8    4   36 1
   9    5    6 1
  10    5   10 1
  11    5   37 1
  12    5   38 1
  13    6    7 1
  14    6   39 1
  15    6   40 1
  16    7    8 1
  17    7   41 1
  18    8    9 1
  19    8   42 1
  20    8   43 1
  21    9   10 1
  22    9   44 1
  23    9   45 1
  24   11   12 1
  25   11   16 1
  26   11   46 1
  27   12   13 1
  28   12   47 1
  29   12   48 1
  30   13   14 1
  31   13   49 1
  32   13   50 1
  33   14   15 1
  34   14   17 1
  35   14   51 1
  36   15   16 1
  37   15   52 1
  38   15   53 1
  39   16   54 1
  40   16   55 1
  41   17   18 1
  42   17   56 1
  43   17   57 1
  44   18   19 1
  45   18   58 1
  46   18   59 1
  47   19   20 1
  48   19   24 1
  49   20   21 1
  50   20   60 1
  51   20   61 1
  52   21   22 1
  53   21   62 1
  54   21   63 1
  55   22   23 1
  56   22   30 1
  57   22   64 1
  58   23   24 1
  59   23   65 1
  60   23   66 1
  61   24   67 1
  62   24   68 1
  63   25   26 1
  64   25   29 1
  65   26   27 2
  66   26   69 1
  67   27   28 1
  68   27   70 1
  69   28   29 ar
  70   28   30 ar
  71   29   33 ar
  72   30   31 ar
  73   31   32 ar
  74   31   71 1
  75   32   33 ar
  76   32   72 1
  77   33   73 1

#	End of record

