#	Name: ASD01814293
#	Creating user name:	WinNT
#	Creation time:	15. 06. 2019 19:32

#	Modifying user name:	WinNT
#	Modification time:	15. 06. 2019 19:32

#	Program:	/corina/corina34_cracker 3.40 0067  02.08.2006

@<TRIPOS>MOLECULE
ASD01814293
  55   60    0    0    0
SMALL
NO_CHARGES


@<TRIPOS>ATOM
   1 C1            -0.0168     1.3869     0.0097 C.ar    
   2 C2             0.0021    -0.0041     0.0020 C.ar    
   3 C3             1.1801    -0.6897    -0.0129 C.ar    
   4 C4             2.3948     0.0129    -0.0207 C.ar    
   5 C5             2.3717     1.4289    -0.0129 C.ar    
   6 C6             1.1455     2.1014     0.0024 C.ar    
   7 C7             3.6294    -0.6695    -0.0365 C.ar    
   8 C8             4.8032     0.0061    -0.0446 C.ar    
   9 C9             4.8361     1.4094    -0.0369 C.ar    
  10 C10            3.6406     2.1511    -0.0211 C.ar    
  11 C11            6.1027     2.1517    -0.0456 C.2     
  12 N12            6.0338     3.5033    -0.0377 N.am    
  13 C13            4.8294     4.1317    -0.0219 C.2     
  14 N14            3.6956     3.4935    -0.0145 N.2     
  15 C15            3.6423    -2.1764    -0.0442 C.3     
  16 C16            3.5086    -2.6727    -1.4608 C.ar    
  17 C17            4.6397    -2.8891    -2.2260 C.ar    
  18 C18            4.5197    -3.3441    -3.5249 C.ar    
  19 C19            3.2630    -3.5838    -4.0613 C.ar    
  20 C20            2.1296    -3.3658    -3.2915 C.ar    
  21 C21            2.2552    -2.9162    -1.9913 C.ar    
  22 O22            7.1744     1.5734    -0.0589 O.2     
  23 C23            7.2120     4.2592    -0.0453 C.2     
  24 N24            8.4307     3.7706    -0.0605 N.2     
  25 N25            9.3102     4.8654    -0.0637 N.pl3   
  26 C26            8.5370     5.9748    -0.0498 C.2     
  27 N27            7.2769     5.5908    -0.0442 N.2     
  28 C28            9.0210     7.3735    -0.0466 C.ar    
  29 C29            8.1033     8.4228    -0.0317 C.ar    
  30 C30            8.5716     9.7257    -0.0288 C.ar    
  31 C31            9.9426     9.9368    -0.0411 C.ar    
  32 C32           10.7970     8.8484    -0.0557 C.ar    
  33 N33           10.3260     7.6189    -0.0526 N.ar    
  34 O34            3.1423    -4.0309    -5.3390 O.3     
  35 C35            1.8176    -4.2562    -5.8251 C.3     
  36 H36           -0.9630     1.9075     0.0169 H       
  37 H37           -0.9305    -0.5488     0.0083 H       
  38 H38            1.1786    -1.7697    -0.0183 H       
  39 H39            1.1188     3.1811     0.0085 H       
  40 H40            5.7316    -0.5454    -0.0567 H       
  41 H41            4.8123     5.2116    -0.0152 H       
  42 H42            4.5812    -2.5338     0.3789 H       
  43 H43            2.8097    -2.5499     0.5518 H       
  44 H44            5.6178    -2.7020    -1.8080 H       
  45 H45            5.4035    -3.5126    -4.1223 H       
  46 H46            1.1502    -3.5517    -3.7069 H       
  47 H47            1.3732    -2.7468    -1.3915 H       
  48 H48           10.2796     4.8324    -0.0736 H       
  49 H49            7.0422     8.2221    -0.0227 H       
  50 H50            7.8848    10.5591    -0.0177 H       
  51 H51           10.3395    10.9413    -0.0397 H       
  52 H52           11.8648     9.0097    -0.0653 H       
  53 H53            1.3254    -5.0053    -5.2049 H       
  54 H54            1.2530    -3.3246    -5.7863 H       
  55 H55            1.8638    -4.6104    -6.8549 H       
@<TRIPOS>BOND
   1    1    2 ar
   2    1    6 ar
   3    1   36 1
   4    2    3 ar
   5    2   37 1
   6    3    4 ar
   7    3   38 1
   8    4    5 ar
   9    4    7 ar
  10    5    6 ar
  11    5   10 ar
  12    6   39 1
  13    7    8 ar
  14    7   15 1
  15    8    9 ar
  16    8   40 1
  17    9   10 ar
  18    9   11 1
  19   10   14 1
  20   11   12 am
  21   11   22 2
  22   12   13 1
  23   12   23 1
  24   13   14 2
  25   13   41 1
  26   15   16 1
  27   15   42 1
  28   15   43 1
  29   16   17 ar
  30   16   21 ar
  31   17   18 ar
  32   17   44 1
  33   18   19 ar
  34   18   45 1
  35   19   20 ar
  36   19   34 1
  37   20   21 ar
  38   20   46 1
  39   21   47 1
  40   23   24 2
  41   23   27 1
  42   24   25 1
  43   25   26 1
  44   25   48 1
  45   26   27 2
  46   26   28 1
  47   28   29 ar
  48   28   33 ar
  49   29   30 ar
  50   29   49 1
  51   30   31 ar
  52   30   50 1
  53   31   32 ar
  54   31   51 1
  55   32   33 ar
  56   32   52 1
  57   34   35 1
  58   35   53 1
  59   35   54 1
  60   35   55 1

#	End of record

