#	Name: ASD01209032
#	Creating user name:	WinNT
#	Creation time:	15. 06. 2019 19:10

#	Modifying user name:	WinNT
#	Modification time:	15. 06. 2019 19:10

#	Program:	/corina/corina34_cracker 3.40 0067  02.08.2006

@<TRIPOS>MOLECULE
ASD01209032
  59   63    0    0    0
SMALL
NO_CHARGES


@<TRIPOS>ATOM
   1 S1            -0.4059     0.7849     0.5716 S.o2    
   2 C2            -3.6061    -0.9153    -5.3731 C.3     
   3 C3            -4.9506    -0.4387    -4.8198 C.3     
   4 C4            -4.7634     0.9046    -4.1118 C.3     
   5 C5            -6.1061     1.4377    -3.6826 C.2     
   6 O6            -6.3663     1.5470    -2.5029 O.2     
   7 N7            -3.9116     0.7214    -2.9340 N.pl3   
   8 C8            -2.7085     1.3413    -2.7186 C.ar    
   9 C9            -2.2334     0.8839    -1.4745 C.ar    
  10 C10           -3.2372    -0.0480    -0.9701 C.2     
  11 N11           -4.1987    -0.1099    -1.8464 N.2     
  12 N12           -7.0178     1.7928    -4.6095 N.am    
  13 C13           -1.9508     2.2551    -3.4472 C.ar    
  14 C14           -0.7490     2.7004    -2.9440 C.ar    
  15 C15           -0.2832     2.2460    -1.7146 C.ar    
  16 C16           -1.0087     1.3509    -0.9843 C.ar    
  17 C17           -8.2253     2.3843    -4.2141 C.2     
  18 C18           -1.6045     1.4160     1.7781 C.3     
  19 C19           -1.2999     1.1911     3.2605 C.3     
  20 C20           -1.1707     2.5910     2.6567 C.3     
  21 O21           -0.4850    -0.6312     0.4840 O.2     
  22 O22            0.8456     1.4408     0.7222 O.2     
  23 C23           -3.7615    -2.3240    -5.9542 C.3     
  24 C24           -2.4322    -2.7609    -6.5753 C.3     
  25 O25           -2.0434    -1.8186    -7.5768 O.3     
  26 C26           -1.8373    -0.4937    -7.0828 C.3     
  27 C27           -3.1427     0.0343    -6.4821 C.3     
  28 Cl28           0.1945     3.8393    -3.8531 Cl      
  29 N29           -9.1908     2.7736    -5.0129 N.2     
  30 N30          -10.2183     3.3106    -4.2268 N.pl3   
  31 C31           -9.8402     3.2317    -2.9336 C.2     
  32 C32           -8.6160     2.6584    -2.8936 C.2     
  33 C33          -11.4820     3.8622    -4.7219 C.3     
  34 H34           -2.8671    -0.9308    -4.5720 H       
  35 H35           -5.6598    -0.3217    -5.6393 H       
  36 H36           -5.3326    -1.1731    -4.1107 H       
  37 H37           -4.2927     1.6125    -4.7940 H       
  38 H38           -3.1923    -0.5871    -0.0354 H       
  39 H39           -6.8382     1.6391    -5.5502 H       
  40 H40           -2.3045     2.6130    -4.4028 H       
  41 H41            0.6619     2.6051    -1.3348 H       
  42 H42           -2.6487     1.3780     1.4675 H       
  43 H43           -2.1436     1.0056     3.9252 H       
  44 H44           -0.3792     0.6640     3.5108 H       
  45 H45           -0.1650     2.9848     2.5098 H       
  46 H46           -1.9294     3.3264     2.9242 H       
  47 H47           -4.0377    -3.0173    -5.1597 H       
  48 H48           -4.5371    -2.3186    -6.7201 H       
  49 H49           -1.6663    -2.8051    -5.8009 H       
  50 H50           -2.5487    -3.7455    -7.0281 H       
  51 H51           -1.0636    -0.5082    -6.3151 H       
  52 H52           -1.5253     0.1551    -7.9012 H       
  53 H53           -3.9058     0.0874    -7.2586 H       
  54 H54           -2.9763     1.0276    -6.0651 H       
  55 H55          -10.4152     3.5632    -2.0816 H       
  56 H56           -8.0383     2.4542    -2.0043 H       
  57 H57          -12.2284     3.0696    -4.7750 H       
  58 H58          -11.8282     4.6424    -4.0440 H       
  59 H59          -11.3296     4.2850    -5.7150 H       
@<TRIPOS>BOND
   1    1   21 2
   2    1   22 2
   3    1   16 1
   4    1   18 1
   5    2    3 1
   6    2   23 1
   7    2   27 1
   8    2   34 1
   9    3    4 1
  10    3   35 1
  11    3   36 1
  12    4    7 1
  13    4    5 1
  14    4   37 1
  15    5    6 2
  16    5   12 am
  17    7    8 1
  18    7   11 1
  19    8    9 ar
  20    8   13 ar
  21    9   10 1
  22    9   16 ar
  23   10   11 2
  24   10   38 1
  25   12   17 1
  26   12   39 1
  27   13   14 ar
  28   13   40 1
  29   14   15 ar
  30   14   28 1
  31   15   16 ar
  32   15   41 1
  33   17   29 2
  34   17   32 1
  35   18   19 1
  36   18   20 1
  37   18   42 1
  38   19   20 1
  39   19   43 1
  40   19   44 1
  41   20   45 1
  42   20   46 1
  43   23   24 1
  44   23   47 1
  45   23   48 1
  46   24   25 1
  47   24   49 1
  48   24   50 1
  49   25   26 1
  50   26   27 1
  51   26   51 1
  52   26   52 1
  53   27   53 1
  54   27   54 1
  55   29   30 1
  56   30   31 1
  57   30   33 1
  58   31   32 2
  59   31   55 1
  60   32   56 1
  61   33   57 1
  62   33   58 1
  63   33   59 1

#	End of record

