#	Name: ASD02560009
#	Creating user name:	WinNT
#	Creation time:	15. 06. 2019 20:24

#	Modifying user name:	WinNT
#	Modification time:	15. 06. 2019 20:24

#	Program:	/corina/corina34_cracker 3.40 0067  02.08.2006

@<TRIPOS>MOLECULE
ASD02560009
  41   42    0    0    0
SMALL
NO_CHARGES


@<TRIPOS>ATOM
   1 N1            -0.0608     1.2741    -0.0399 N.am    
   2 C2             0.0515    -0.0783     0.0748 C.2     
   3 N3             1.2331    -0.6638     0.1088 N.2     
   4 C4             2.3580     0.0426     0.0322 C.2     
   5 C5             2.3070     1.4018    -0.0840 C.2     
   6 C6             1.0520     2.0344    -0.1210 C.2     
   7 O7             0.9701     3.2473    -0.2245 O.2     
   8 C8             3.5753     2.2110    -0.1710 C.3     
   9 C9             3.6910    -0.6591     0.0741 C.3     
  10 C10            4.1117    -0.8531     1.5081 C.ar    
  11 C11            3.7466    -2.0009     2.1864 C.ar    
  12 C12            4.1325    -2.1788     3.5018 C.ar    
  13 C13            4.8839    -1.2090     4.1388 C.ar    
  14 C14            5.2498    -0.0615     3.4603 C.ar    
  15 C15            4.8676     0.1143     2.1435 C.ar    
  16 S16           -1.4062    -1.0625     0.1801 S.3     
  17 C17           -0.6651    -2.7087     0.3111 C.3     
  18 C18            3.6323     2.9261    -1.5224 C.3     
  19 C19            3.5980     3.2464     0.9552 C.3     
  20 S20            0.0096    -2.9370     1.9794 S.3     
  21 C21           -1.4753    -3.2005     2.9876 C.3     
  22 H22           -0.9370     1.6893    -0.0672 H       
  23 H23            4.4359     1.5493    -0.0736 H       
  24 H24            3.6060    -1.6300    -0.4141 H       
  25 H25            4.4358    -0.0556    -0.4446 H       
  26 H26            3.1596    -2.7586     1.6887 H       
  27 H27            3.8466    -3.0752     4.0319 H       
  28 H28            5.1848    -1.3476     5.1668 H       
  29 H29            5.8365     0.6963     3.9581 H       
  30 H30            5.1534     1.0108     1.6134 H       
  31 H31           -1.4257    -3.4658     0.1200 H       
  32 H32            0.1362    -2.8057    -0.4213 H       
  33 H33            4.5496     3.5114    -1.5854 H       
  34 H34            3.6161     2.1885    -2.3248 H       
  35 H35            2.7717     3.5879    -1.6199 H       
  36 H36            3.5574     2.7370     1.9180 H       
  37 H37            4.5153     3.8317     0.8922 H       
  38 H38            2.7374     3.9082     0.8577 H       
  39 H39           -1.1862    -3.3516     4.0276 H       
  40 H40           -2.1241    -2.3278     2.9139 H       
  41 H41           -2.0078    -4.0806     2.6270 H       
@<TRIPOS>BOND
   1    1    2 1
   2    1    6 am
   3    1   22 1
   4    2    3 2
   5    2   16 1
   6    3    4 1
   7    4    5 2
   8    4    9 1
   9    5    6 1
  10    5    8 1
  11    6    7 2
  12    8   18 1
  13    8   19 1
  14    8   23 1
  15    9   10 1
  16    9   24 1
  17    9   25 1
  18   10   11 ar
  19   10   15 ar
  20   11   12 ar
  21   11   26 1
  22   12   13 ar
  23   12   27 1
  24   13   14 ar
  25   13   28 1
  26   14   15 ar
  27   14   29 1
  28   15   30 1
  29   16   17 1
  30   17   20 1
  31   17   31 1
  32   17   32 1
  33   18   33 1
  34   18   34 1
  35   18   35 1
  36   19   36 1
  37   19   37 1
  38   19   38 1
  39   20   21 1
  40   21   39 1
  41   21   40 1
  42   21   41 1

#	End of record

