#	Name: ASD01910894
#	Creating user name:	WinNT
#	Creation time:	15. 06. 2019 19:56

#	Modifying user name:	WinNT
#	Modification time:	15. 06. 2019 19:56

#	Program:	/corina/corina34_cracker 3.40 0067  02.08.2006

@<TRIPOS>MOLECULE
ASD01910894
  49   52    0    0    0
SMALL
NO_CHARGES


@<TRIPOS>ATOM
   1 C1            -0.0031     1.4256     0.1167 C.ar    
   2 N2             0.0223     0.0291     0.0716 N.3     
   3 C3            -0.5670    -0.5477     1.2874 C.3     
   4 C4            -0.6860    -2.0665     1.1223 C.3     
   5 N5             0.6345    -2.6016     0.7571 N.am    
   6 C6             1.3496    -1.9813    -0.3686 C.3     
   7 C7             1.3884    -0.4658    -0.1448 C.3     
   8 C8             1.1746    -3.6333     1.4356 C.2     
   9 C9             2.4369    -4.2455     0.9684 C.ar    
  10 C10            3.3764    -4.7049     1.8941 C.ar    
  11 C11            4.5563    -5.2770     1.4604 C.ar    
  12 C12            4.8163    -5.3994     0.1104 C.ar    
  13 C13            3.8850    -4.9435    -0.8279 C.ar    
  14 C14            2.6890    -4.3704    -0.3960 C.ar    
  15 C15            4.1558    -5.0704    -2.2283 C.1     
  16 O16            0.6241    -4.0605     2.4315 O.2     
  17 C17            4.3778    -5.1744    -3.3764 C.1     
  18 C18            4.6486    -5.3013    -4.7769 C.ar    
  19 C19            3.7254    -4.8493    -5.7230 C.ar    
  20 N20            3.9752    -4.9664    -7.0106 N.ar    
  21 C21            5.0920    -5.5079    -7.4575 C.ar    
  22 C22            6.0567    -5.9804    -6.5853 C.ar    
  23 C23            5.8469    -5.8759    -5.2221 C.ar    
  24 C24           -1.2168     2.1018     0.0789 C.ar    
  25 C25           -1.2378     3.4830     0.1236 C.ar    
  26 C26           -0.0532     4.1915     0.2059 C.ar    
  27 C27            1.1558     3.5213     0.2437 C.ar    
  28 C28            1.1841     2.1409     0.2052 C.ar    
  29 Cl29          -2.7043     1.2128    -0.0250 Cl      
  30 H30            0.0708    -0.3236     2.1424 H       
  31 H31           -1.5568    -0.1208     1.4496 H       
  32 H32           -1.0147    -2.5122     2.0611 H       
  33 H33           -1.4040    -2.2941     0.3344 H       
  34 H34            2.3666    -2.3707    -0.4155 H       
  35 H35            0.8272    -2.2007    -1.2998 H       
  36 H36            1.8168     0.0204    -1.0213 H       
  37 H37            1.9990    -0.2429     0.7301 H       
  38 H38            3.1799    -4.6121     2.9520 H       
  39 H39            5.2791    -5.6301     2.1810 H       
  40 H40            5.7409    -5.8478    -0.2219 H       
  41 H41            1.9659    -4.0165    -1.1159 H       
  42 H42            2.7992    -4.4005    -5.3957 H       
  43 H43            5.2560    -5.5841    -8.5223 H       
  44 H44            6.9662    -6.4220    -6.9650 H       
  45 H45            6.5832    -6.2365    -4.5190 H       
  46 H46           -2.1804     4.0095     0.0940 H       
  47 H47           -0.0723     5.2708     0.2404 H       
  48 H48            2.0791     4.0779     0.3080 H       
  49 H49            2.1289     1.6186     0.2348 H       
@<TRIPOS>BOND
   1    1    2 1
   2    1   24 ar
   3    1   28 ar
   4    2    3 1
   5    2    7 1
   6    3    4 1
   7    3   30 1
   8    3   31 1
   9    4    5 1
  10    4   32 1
  11    4   33 1
  12    5    6 1
  13    5    8 am
  14    6    7 1
  15    6   34 1
  16    6   35 1
  17    7   36 1
  18    7   37 1
  19    8    9 1
  20    8   16 2
  21    9   10 ar
  22    9   14 ar
  23   10   11 ar
  24   10   38 1
  25   11   12 ar
  26   11   39 1
  27   12   13 ar
  28   12   40 1
  29   13   14 ar
  30   13   15 1
  31   14   41 1
  32   15   17 3
  33   17   18 1
  34   18   19 ar
  35   18   23 ar
  36   19   20 ar
  37   19   42 1
  38   20   21 ar
  39   21   22 ar
  40   21   43 1
  41   22   23 ar
  42   22   44 1
  43   23   45 1
  44   24   25 ar
  45   24   29 1
  46   25   26 ar
  47   25   46 1
  48   26   27 ar
  49   26   47 1
  50   27   28 ar
  51   27   48 1
  52   28   49 1

#	End of record

