#	Name: ASD03320010
#	Creating user name:	WinNT
#	Creation time:	15. 06. 2019 20:35

#	Modifying user name:	WinNT
#	Modification time:	15. 06. 2019 20:35

#	Program:	/corina/corina34_cracker 3.40 0067  02.08.2006

@<TRIPOS>MOLECULE
ASD03320010
  40   42    0    0    0
SMALL
NO_CHARGES


@<TRIPOS>ATOM
   1 C1            -3.5479    -4.9178     0.0691 C.ar    
   2 C2            -2.5172    -4.2173    -0.5400 C.ar    
   3 C3            -2.5334    -2.8365    -0.5529 C.ar    
   4 C4            -3.5821    -2.1493     0.0442 C.ar    
   5 C5            -4.6136    -2.8513     0.6538 C.ar    
   6 C6            -4.5987    -4.2322     0.6608 C.ar    
   7 N7            -3.5991    -0.7493     0.0319 N.pl3   
   8 C8            -4.8053    -0.0714    -0.0576 C.ar    
   9 C9            -4.8460     1.3176     0.0538 C.ar    
  10 N10           -5.9406    -0.7367    -0.2565 N.ar    
  11 C11           -7.0917    -0.1011    -0.3429 C.ar    
  12 N12           -7.1744     1.2087    -0.2378 N.ar    
  13 C13           -6.0831     1.9501    -0.0432 C.ar    
  14 C14           -6.1859     3.4253     0.0741 C.ar    
  15 C15           -5.0304     4.2004     0.1729 C.ar    
  16 C16           -7.4345     4.0383     0.0800 C.ar    
  17 C17           -7.5232     5.4249     0.1906 C.ar    
  18 C18           -6.3593     6.1893     0.2946 C.ar    
  19 C19           -5.1234     5.5740     0.2827 C.ar    
  20 C20           -8.8463     6.0848     0.1972 C.2     
  21 N21           -8.9301     7.4257     0.3042 N.am    
  22 O22           -9.8585     5.4180     0.1061 O.2     
  23 O23           -3.5312    -6.2775     0.0814 O.3     
  24 C24           -4.6245    -6.9340     0.7261 C.3     
  25 H25           -1.7016    -4.7520    -1.0040 H       
  26 H26           -1.7307    -2.2913    -1.0269 H       
  27 H27           -5.4295    -2.3175     1.1183 H       
  28 H28           -5.4010    -4.7783     1.1345 H       
  29 H29           -2.7670    -0.2537     0.0861 H       
  30 H30           -3.9425     1.8879     0.2114 H       
  31 H31           -7.9942    -0.6717    -0.5051 H       
  32 H32           -4.0606     3.7252     0.1639 H       
  33 H33           -8.3315     3.4423    -0.0011 H       
  34 H34           -6.4259     7.2638     0.3804 H       
  35 H35           -4.2257     6.1690     0.3638 H       
  36 H36           -8.1224     7.9579     0.3768 H       
  37 H37           -9.7982     7.8586     0.3085 H       
  38 H38           -4.6635    -6.6321     1.7727 H       
  39 H39           -5.5564    -6.6570     0.2332 H       
  40 H40           -4.4877    -8.0136     0.6642 H       
@<TRIPOS>BOND
   1    1    2 ar
   2    1   23 1
   3    1    6 ar
   4    2    3 ar
   5    2   25 1
   6    3    4 ar
   7    3   26 1
   8    4    5 ar
   9    4    7 1
  10    5    6 ar
  11    5   27 1
  12    6   28 1
  13    7    8 1
  14    7   29 1
  15    8    9 ar
  16    8   10 ar
  17    9   13 ar
  18    9   30 1
  19   10   11 ar
  20   11   12 ar
  21   11   31 1
  22   12   13 ar
  23   13   14 1
  24   14   15 ar
  25   14   16 ar
  26   15   19 ar
  27   15   32 1
  28   16   17 ar
  29   16   33 1
  30   17   18 ar
  31   17   20 1
  32   18   19 ar
  33   18   34 1
  34   19   35 1
  35   20   21 am
  36   20   22 2
  37   21   36 1
  38   21   37 1
  39   23   24 1
  40   24   38 1
  41   24   39 1
  42   24   40 1

#	End of record

