#	Name: ASD01810484
#	Creating user name:	WinNT
#	Creation time:	15. 06. 2019 19:24

#	Modifying user name:	WinNT
#	Modification time:	15. 06. 2019 19:24

#	Program:	/corina/corina34_cracker 3.40 0067  02.08.2006

@<TRIPOS>MOLECULE
ASD01810484
  51   53    0    0    0
SMALL
NO_CHARGES


@<TRIPOS>ATOM
   1 C1            -0.0669    -0.0046    -0.0497 C.1     
   2 C2            -0.0734     1.4273    -0.0315 C.ar    
   3 C3             1.1308     2.1340    -0.0232 C.ar    
   4 C4             1.1173     3.5133    -0.0057 C.ar    
   5 C5            -0.0859     4.1965     0.0041 C.ar    
   6 C6            -1.2829     3.5025    -0.0036 C.ar    
   7 C7            -1.2840     2.1232    -0.0279 C.ar    
   8 N8            -0.0618    -1.1405    -0.0641 N.1     
   9 N9            -0.9861     8.2254     0.9410 N.am    
  10 C10           -1.4833     7.7435    -0.3548 C.3     
  11 C11           -1.4891     6.2117    -0.3420 C.3     
  12 C12           -0.0927     5.7033     0.0238 C.3     
  13 C13            0.2811     6.1966     1.4234 C.3     
  14 C14            0.3070     7.7283     1.4306 C.3     
  15 F15            0.8367     6.1857    -0.9039 F       
  16 C16           -1.6998     9.1109     1.6642 C.2     
  17 C17           -1.2330     9.5152     3.0077 C.ar    
  18 C18           -2.0730     9.3716     4.1136 C.ar    
  19 C19           -1.6350     9.7492     5.3664 C.ar    
  20 C20           -0.3652    10.2701     5.5320 C.ar    
  21 C21            0.4786    10.4176     4.4376 C.ar    
  22 C22            0.0498    10.0357     3.1752 C.ar    
  23 O23           -2.7272     9.5771     1.2120 O.2     
  24 C24            0.1053    10.6800     6.9037 C.3     
  25 C25           -3.4584     8.8048     3.9389 C.3     
  26 C26           -3.3780     7.2794     3.8517 C.3     
  27 N27            1.7606    10.9455     4.6100 N.pl3   
  28 H28            2.0707     1.6020    -0.0301 H       
  29 H29            2.0479     4.0612     0.0008 H       
  30 H30           -2.2185     4.0419     0.0045 H       
  31 H31           -2.2190     1.5828    -0.0388 H       
  32 H32           -2.4965     8.1114    -0.5172 H       
  33 H33           -0.8309     8.0998    -1.1520 H       
  34 H34           -2.2100     5.8567     0.3945 H       
  35 H35           -1.7643     5.8406    -1.3293 H       
  36 H36           -0.4565     5.8418     2.1433 H       
  37 H37            1.2659     5.8149     1.6927 H       
  38 H38            1.1054     8.0834     0.7791 H       
  39 H39            0.4751     8.0862     2.4464 H       
  40 H40           -2.2865     9.6376     6.2205 H       
  41 H41            0.7056    10.1453     2.3241 H       
  42 H42            0.5867     9.8322     7.3911 H       
  43 H43            0.8179    11.4999     6.8135 H       
  44 H44           -0.7483    11.0044     7.4988 H       
  45 H45           -4.0768     9.0879     4.7906 H       
  46 H46           -3.8992     9.1984     3.0230 H       
  47 H47           -2.7595     6.9963     2.9999 H       
  48 H48           -2.9372     6.8858     4.7676 H       
  49 H49           -4.3800     6.8694     3.7253 H       
  50 H50            2.0618    11.2092     5.4935 H       
  51 H51            2.3495    11.0484     3.8461 H       
@<TRIPOS>BOND
   1    1    2 1
   2    1    8 3
   3    2    3 ar
   4    2    7 ar
   5    3    4 ar
   6    3   28 1
   7    4    5 ar
   8    4   29 1
   9    5    6 ar
  10    5   12 1
  11    6    7 ar
  12    6   30 1
  13    7   31 1
  14    9   10 1
  15    9   14 1
  16    9   16 am
  17   10   11 1
  18   10   32 1
  19   10   33 1
  20   11   12 1
  21   11   34 1
  22   11   35 1
  23   12   13 1
  24   12   15 1
  25   13   14 1
  26   13   36 1
  27   13   37 1
  28   14   38 1
  29   14   39 1
  30   16   17 1
  31   16   23 2
  32   17   18 ar
  33   17   22 ar
  34   18   19 ar
  35   18   25 1
  36   19   20 ar
  37   19   40 1
  38   20   21 ar
  39   20   24 1
  40   21   22 ar
  41   21   27 1
  42   22   41 1
  43   24   42 1
  44   24   43 1
  45   24   44 1
  46   25   26 1
  47   25   45 1
  48   25   46 1
  49   26   47 1
  50   26   48 1
  51   26   49 1
  52   27   50 1
  53   27   51 1

#	End of record

