#	Name: ASD04910364
#	Creating user name:	WinNT
#	Creation time:	15. 06. 2019 20:55

#	Modifying user name:	WinNT
#	Modification time:	15. 06. 2019 20:55

#	Program:	/corina/corina34_cracker 3.40 0067  02.08.2006

@<TRIPOS>MOLECULE
ASD04910364
  54   56    0    0    0
SMALL
NO_CHARGES


@<TRIPOS>ATOM
   1 C1            -4.3358    -1.2557     3.3795 C.2     
   2 C2            -3.7661    -1.9793     2.2244 C.ar    
   3 C3            -4.6089    -2.5352     1.2600 C.ar    
   4 C4            -4.0702    -3.2092     0.1837 C.ar    
   5 C5            -2.6979    -3.3353     0.0589 C.ar    
   6 C6            -1.8569    -2.7872     1.0111 C.ar    
   7 C7            -2.3821    -2.1053     2.0892 C.ar    
   8 O8            -5.5401    -1.1433     3.4918 O.2     
   9 O9            -3.5200    -0.7252     4.3110 O.3     
  10 C10           -2.1167    -4.0735    -1.1194 C.3     
  11 C11           -1.6447    -3.0662    -2.1699 C.3     
  12 C12           -1.1698    -3.8146    -3.4170 C.3     
  13 C13           -0.6978    -2.8073    -4.4674 C.3     
  14 O14           -1.0083    -4.8646    -0.6863 O.3     
  15 C15           -0.8121    -6.0513    -1.3197 C.ar    
  16 C16           -1.7124    -6.4794    -2.2848 C.ar    
  17 C17           -1.5133    -7.6844    -2.9287 C.ar    
  18 C18           -0.4121    -8.4677    -2.6105 C.ar    
  19 C19            0.4884    -8.0388    -1.6448 C.ar    
  20 C20            0.2913    -6.8312    -1.0051 C.ar    
  21 N21           -0.2097    -9.6923    -3.2642 N.pl3   
  22 N22           -1.1274   -10.7480    -3.3402 N.2     
  23 C23           -0.5806   -11.7168    -4.0299 C.2     
  24 C24            0.7014   -11.3105    -4.4152 C.2     
  25 C25            0.9035   -10.0604    -3.9374 C.2     
  26 C26            1.6818   -12.1194    -5.2249 C.3     
  27 F27            1.1144   -13.3582    -5.5422 F       
  28 F28            1.9916   -11.4326    -6.4037 F       
  29 F29            2.8494   -12.3182    -4.4804 F       
  30 C30            1.6840    -8.8886    -1.2989 C.3     
  31 C31           -2.4915    -8.1495    -3.9765 C.3     
  32 H32           -5.6802    -2.4381     1.3567 H       
  33 H33           -4.7210    -3.6398    -0.5629 H       
  34 H34           -0.7868    -2.8899     0.9080 H       
  35 H35           -1.7244    -1.6738     2.8292 H       
  36 H36           -3.9391    -0.2609     5.0485 H       
  37 H37           -2.8780    -4.7215    -1.5537 H       
  38 H38           -2.4694    -2.4046    -2.4352 H       
  39 H39           -0.8222    -2.4769    -1.7645 H       
  40 H40           -0.3451    -4.4761    -3.1516 H       
  41 H41           -1.9923    -4.4038    -3.8224 H       
  42 H42           -1.5224    -2.1457    -4.7328 H       
  43 H43            0.1247    -2.2180    -4.0620 H       
  44 H44           -0.3594    -3.3405    -5.3559 H       
  45 H45           -2.5692    -5.8702    -2.5320 H       
  46 H46            0.9942    -6.4954    -0.2571 H       
  47 H47           -1.0399   -12.6665    -4.2614 H       
  48 H48            1.7950    -9.4650    -4.0680 H       
  49 H49            2.5341    -8.5857    -1.9102 H       
  50 H50            1.9296    -8.7583    -0.2449 H       
  51 H51            1.4530    -9.9363    -1.4913 H       
  52 H52           -2.2043    -7.7446    -4.9469 H       
  53 H53           -2.4857    -9.2386    -4.0211 H       
  54 H54           -3.4920    -7.8017    -3.7194 H       
@<TRIPOS>BOND
   1    1    2 1
   2    1    8 2
   3    1    9 1
   4    2    3 ar
   5    2    7 ar
   6    3    4 ar
   7    3   32 1
   8    4    5 ar
   9    4   33 1
  10    5    6 ar
  11    5   10 1
  12    6    7 ar
  13    6   34 1
  14    7   35 1
  15    9   36 1
  16   10   11 1
  17   10   14 1
  18   10   37 1
  19   11   12 1
  20   11   38 1
  21   11   39 1
  22   12   13 1
  23   12   40 1
  24   12   41 1
  25   13   42 1
  26   13   43 1
  27   13   44 1
  28   14   15 1
  29   15   16 ar
  30   15   20 ar
  31   16   17 ar
  32   16   45 1
  33   17   18 ar
  34   17   31 1
  35   18   19 ar
  36   18   21 1
  37   19   20 ar
  38   19   30 1
  39   20   46 1
  40   21   22 1
  41   21   25 1
  42   22   23 2
  43   23   24 1
  44   23   47 1
  45   24   25 2
  46   24   26 1
  47   25   48 1
  48   26   27 1
  49   26   28 1
  50   26   29 1
  51   30   49 1
  52   30   50 1
  53   30   51 1
  54   31   52 1
  55   31   53 1
  56   31   54 1

#	End of record

