#	Name: ASD01180024
#	Creating user name:	WinNT
#	Creation time:	15. 06. 2019 19:06

#	Modifying user name:	WinNT
#	Modification time:	15. 06. 2019 19:06

#	Program:	/corina/corina34_cracker 3.40 0067  02.08.2006

@<TRIPOS>MOLECULE
ASD01180024
  36   37    0    0    0
SMALL
NO_CHARGES


@<TRIPOS>ATOM
   1 N1             0.0652     1.2401     0.5124 N.ar    
   2 C2             0.0442    -0.0380     0.2209 C.ar    
   3 C3             1.1810    -0.6691    -0.3146 C.ar    
   4 N4             2.2875     0.0160    -0.5316 N.ar    
   5 C5             2.3260     1.3223    -0.2393 C.ar    
   6 C6             3.4891     2.0784    -0.4594 C.ar    
   7 C7             3.5003     3.4060    -0.1534 C.ar    
   8 C8             2.3698     4.0284     0.3772 C.ar    
   9 C9             1.2252     3.3251     0.6033 C.ar    
  10 C10            1.1778     1.9543     0.2997 C.ar    
  11 S11           -1.4219    -0.9736     0.5031 S.o2    
  12 O12           -0.9498    -2.2513     0.9080 O.2     
  13 O13           -2.1904    -0.1641     1.3825 O.2     
  14 C14           -2.2149    -1.0747    -1.1253 C.3     
  15 Cl15           2.4227     5.7220     0.7549 Cl      
  16 Cl16           4.9406     4.3357    -0.4269 Cl      
  17 N17            1.1389    -2.0222    -0.6166 N.pl3   
  18 C18            2.3535    -2.7124    -1.0577 C.3     
  19 C19            3.4226    -2.6099     0.0319 C.3     
  20 C20            2.0353    -4.1852    -1.3232 C.3     
  21 C21            2.8710    -2.0628    -2.3427 C.3     
  22 H22            4.3713     1.6091    -0.8692 H       
  23 H23            0.3576     3.8194     1.0148 H       
  24 H24           -1.5437    -1.5714    -1.8260 H       
  25 H25           -3.1410    -1.6438    -1.0437 H       
  26 H26           -2.4364    -0.0698    -1.4846 H       
  27 H27            0.3053    -2.5115    -0.5356 H       
  28 H28            3.0539    -3.0727     0.9473 H       
  29 H29            4.3263    -3.1234    -0.2963 H       
  30 H30            3.6493    -1.5606     0.2210 H       
  31 H31            1.2736    -4.2582    -2.0994 H       
  32 H32            2.9390    -4.6987    -1.6514 H       
  33 H33            1.6666    -4.6479    -0.4077 H       
  34 H34            3.0977    -1.0135    -2.1536 H       
  35 H35            3.7747    -2.5763    -2.6710 H       
  36 H36            2.1093    -2.1358    -3.1190 H       
@<TRIPOS>BOND
   1    1    2 ar
   2    1   10 ar
   3    2    3 ar
   4    2   11 1
   5    3    4 ar
   6    3   17 1
   7    4    5 ar
   8    5    6 ar
   9    5   10 ar
  10    6    7 ar
  11    6   22 1
  12    7    8 ar
  13    7   16 1
  14    8    9 ar
  15    8   15 1
  16    9   10 ar
  17    9   23 1
  18   11   12 2
  19   11   13 2
  20   11   14 1
  21   14   24 1
  22   14   25 1
  23   14   26 1
  24   17   18 1
  25   17   27 1
  26   18   19 1
  27   18   20 1
  28   18   21 1
  29   19   28 1
  30   19   29 1
  31   19   30 1
  32   20   31 1
  33   20   32 1
  34   20   33 1
  35   21   34 1
  36   21   35 1
  37   21   36 1

#	End of record

