#	Name: ASD04910590
#	Creating user name:	WinNT
#	Creation time:	15. 06. 2019 20:56

#	Modifying user name:	WinNT
#	Modification time:	15. 06. 2019 20:56

#	Program:	/corina/corina34_cracker 3.40 0067  02.08.2006

@<TRIPOS>MOLECULE
ASD04910590
  58   60    0    0    0
SMALL
NO_CHARGES


@<TRIPOS>ATOM
   1 C1             1.4061     1.5587     2.1305 C.2     
   2 C2             1.2150     0.0930     1.8365 C.3     
   3 C3             2.5773    -0.5608     1.5965 C.3     
   4 O4             2.5177     2.0317     2.1465 O.2     
   5 O5             0.3408     2.3397     2.3692 O.3     
   6 C6             3.4607    -2.7687     1.0656 C.2     
   7 C7             3.2733    -4.2066     0.7772 C.ar    
   8 C8             4.3784    -5.0203     0.5228 C.ar    
   9 C9             4.1966    -6.3613     0.2549 C.ar    
  10 C10            2.9222    -6.8999     0.2374 C.ar    
  11 C11            1.8225    -6.0988     0.4887 C.ar    
  12 C12            1.9909    -4.7574     0.7637 C.ar    
  13 O13            4.5791    -2.2928     1.0816 O.2     
  14 N14            2.3916    -1.9856     1.3107 N.am    
  15 C15            2.7312    -8.3654    -0.0570 C.3     
  16 C16            2.4364    -8.5521    -1.5467 C.3     
  17 C17            2.3659   -10.0461    -1.8693 C.3     
  18 C18            2.0711   -10.2327    -3.3590 C.3     
  19 O19            1.6359    -8.8669     0.7117 O.3     
  20 C20            1.7747   -10.1089     1.2465 C.ar    
  21 C21            2.8895   -10.8756     0.9393 C.ar    
  22 C22            3.0312   -12.1370     1.4826 C.ar    
  23 C23            2.0579   -12.6381     2.3364 C.ar    
  24 C24            0.9425   -11.8706     2.6435 C.ar    
  25 C25            0.8044   -10.6072     2.1039 C.ar    
  26 N26            2.2011   -13.9200     2.8883 N.pl3   
  27 N27            3.2693   -14.7986     2.6660 N.2     
  28 C28            3.0482   -15.8927     3.3497 C.2     
  29 C29            1.8339   -15.7469     4.0288 C.2     
  30 C30            1.3356   -14.5236     3.7335 C.2     
  31 C31            1.1963   -16.7688     4.9344 C.3     
  32 F32            2.0091   -17.9056     4.9999 F       
  33 F33            1.0470   -16.2278     6.2158 F       
  34 F34           -0.0592   -17.1219     4.4280 F       
  35 H35            0.7260    -0.3868     2.6843 H       
  36 H36            0.5953    -0.0214     0.9472 H       
  37 H37            3.0663    -0.0809     0.7488 H       
  38 H38            3.1970    -0.4464     2.4859 H       
  39 H39            0.5133     3.2733     2.5529 H       
  40 H40            5.3736    -4.6010     0.5355 H       
  41 H41            5.0509    -6.9921     0.0579 H       
  42 H42            0.8304    -6.5253     0.4736 H       
  43 H43            1.1320    -4.1340     0.9641 H       
  44 H44            1.4991    -2.3654     1.2980 H       
  45 H45            3.6383    -8.9100     0.2049 H       
  46 H46            1.4834    -8.0824    -1.7902 H       
  47 H47            3.2297    -8.0905    -2.1347 H       
  48 H48            3.3189   -10.5158    -1.6259 H       
  49 H49            1.5726   -10.5077    -1.2814 H       
  50 H50            2.0209   -11.2971    -3.5889 H       
  51 H51            1.1181    -9.7631    -3.6025 H       
  52 H52            2.8644    -9.7711    -3.9470 H       
  53 H53            3.6464   -10.4858     0.2748 H       
  54 H54            3.8988   -12.7338     1.2431 H       
  55 H55            0.1851   -12.2600     3.3077 H       
  56 H56           -0.0610   -10.0083     2.3462 H       
  57 H57            3.6923   -16.7590     3.3835 H       
  58 H58            0.4113   -14.1059     4.1041 H       
@<TRIPOS>BOND
   1    1    2 1
   2    1    4 2
   3    1    5 1
   4    2    3 1
   5    2   35 1
   6    2   36 1
   7    3   14 1
   8    3   37 1
   9    3   38 1
  10    5   39 1
  11    6    7 1
  12    6   13 2
  13    6   14 am
  14    7    8 ar
  15    7   12 ar
  16    8    9 ar
  17    8   40 1
  18    9   10 ar
  19    9   41 1
  20   10   11 ar
  21   10   15 1
  22   11   12 ar
  23   11   42 1
  24   12   43 1
  25   14   44 1
  26   15   16 1
  27   15   19 1
  28   15   45 1
  29   16   17 1
  30   16   46 1
  31   16   47 1
  32   17   18 1
  33   17   48 1
  34   17   49 1
  35   18   50 1
  36   18   51 1
  37   18   52 1
  38   19   20 1
  39   20   21 ar
  40   20   25 ar
  41   21   22 ar
  42   21   53 1
  43   22   23 ar
  44   22   54 1
  45   23   24 ar
  46   23   26 1
  47   24   25 ar
  48   24   55 1
  49   25   56 1
  50   26   27 1
  51   26   30 1
  52   27   28 2
  53   28   29 1
  54   28   57 1
  55   29   30 2
  56   29   31 1
  57   30   58 1
  58   31   32 1
  59   31   33 1
  60   31   34 1

#	End of record

