#	Name: ASD02198698
#	Creating user name:	WinNT
#	Creation time:	15. 06. 2019 20:20

#	Modifying user name:	WinNT
#	Modification time:	15. 06. 2019 20:20

#	Program:	/corina/corina34_cracker 3.40 0067  02.08.2006

@<TRIPOS>MOLECULE
ASD02198698
  54   58    0    0    0
SMALL
NO_CHARGES


@<TRIPOS>ATOM
   1 C1            -0.0433     1.5017    -0.1150 C.2     
   2 C2            -0.0730     0.1620     0.0975 C.2     
   3 N3             1.0713    -0.5397     0.2598 N.pl3   
   4 N4             2.2358    -0.0049     0.2262 N.2     
   5 C5             2.4073     1.2847     0.0280 C.2     
   6 C6             1.2215     2.1357    -0.1604 C.2     
   7 C7             0.9798    -1.9181     0.4758 C.ar    
   8 C8             1.5821    -2.4895     1.5966 C.ar    
   9 C9             1.4910    -3.8537     1.8093 C.ar    
  10 C10            0.7978    -4.6530     0.9032 C.ar    
  11 C11            0.1974    -4.0774    -0.2157 C.ar    
  12 C12            0.2843    -2.7171    -0.4232 C.ar    
  13 C13            3.7642     1.8671    -0.0042 C.2     
  14 N14            4.3063     2.6073    -1.0170 N.pl3   
  15 N15            5.6082     2.9586    -0.6391 N.2     
  16 C16            5.8519     2.4588     0.5462 C.2     
  17 C17            4.7196     1.7716     0.9838 C.2     
  18 C18            3.6736     2.9520    -2.2182 C.ar    
  19 C19            3.8074     4.2352    -2.7318 C.ar    
  20 C20            3.1827     4.5719    -3.9166 C.ar    
  21 C21            2.4241     3.6328    -4.5911 C.ar    
  22 C22            2.2889     2.3541    -4.0823 C.ar    
  23 C23            2.9158     2.0096    -2.9009 C.ar    
  24 O24            1.3245     3.3389    -0.3483 O.2     
  25 C25            0.6989    -6.1166     1.1286 C.2     
  26 C26            1.7061    -7.0399     1.1348 C.2     
  27 C27           -0.4668    -6.8886     1.3953 C.2     
  28 N28           -0.0677    -8.1195     1.5213 N.2     
  29 O29            1.1281    -8.2236     1.3809 O.3     
  30 C30            3.1733    -6.7792     0.9100 C.3     
  31 C31           -1.8810    -6.3805     1.5095 C.3     
  32 O32            2.2581    -1.7072     2.4787 O.3     
  33 C33            2.8497    -2.3600     3.6038 C.3     
  34 H34           -0.9547     2.0654    -0.2495 H       
  35 H35           -1.0229    -0.3504     0.1378 H       
  36 H36            1.9569    -4.2982     2.6764 H       
  37 H37           -0.3397    -4.6971    -0.9185 H       
  38 H38           -0.1817    -2.2731    -1.2904 H       
  39 H39            6.7754     2.5646     1.0961 H       
  40 H40            4.6136     1.2521     1.9247 H       
  41 H41            4.3992     4.9693    -2.2051 H       
  42 H42            3.2864     5.5697    -4.3166 H       
  43 H43            1.9360     3.8987    -5.5171 H       
  44 H44            1.6958     1.6229    -4.6114 H       
  45 H45            2.8101     1.0107    -2.5041 H       
  46 H46            3.6555    -6.5694     1.8648 H       
  47 H47            3.6329    -7.6571     0.4560 H       
  48 H48            3.2926    -5.9225     0.2467 H       
  49 H49           -2.3559    -6.4043     0.5287 H       
  50 H50           -2.4398    -7.0132     2.1991 H       
  51 H51           -1.8702    -5.3567     1.8833 H       
  52 H52            2.0728    -2.8547     4.1867 H       
  53 H53            3.5705    -3.1003     3.2568 H       
  54 H54            3.3570    -1.6228     4.2262 H       
@<TRIPOS>BOND
   1    1    2 2
   2    1    6 1
   3    1   34 1
   4    2    3 1
   5    2   35 1
   6    3    4 1
   7    3    7 1
   8    4    5 2
   9    5    6 1
  10    5   13 1
  11    6   24 2
  12    7    8 ar
  13    7   12 ar
  14    8    9 ar
  15    8   32 1
  16    9   10 ar
  17    9   36 1
  18   10   11 ar
  19   10   25 1
  20   11   12 ar
  21   11   37 1
  22   12   38 1
  23   13   14 1
  24   13   17 2
  25   14   15 1
  26   14   18 1
  27   15   16 2
  28   16   17 1
  29   16   39 1
  30   17   40 1
  31   18   19 ar
  32   18   23 ar
  33   19   20 ar
  34   19   41 1
  35   20   21 ar
  36   20   42 1
  37   21   22 ar
  38   21   43 1
  39   22   23 ar
  40   22   44 1
  41   23   45 1
  42   25   27 1
  43   25   26 2
  44   26   30 1
  45   26   29 1
  46   27   28 2
  47   27   31 1
  48   28   29 1
  49   30   46 1
  50   30   47 1
  51   30   48 1
  52   31   49 1
  53   31   50 1
  54   31   51 1
  55   32   33 1
  56   33   52 1
  57   33   53 1
  58   33   54 1

#	End of record

