#	Name: ASD02500782
#	Creating user name:	WinNT
#	Creation time:	15. 06. 2019 20:23

#	Modifying user name:	WinNT
#	Modification time:	15. 06. 2019 20:23

#	Program:	/corina/corina34_cracker 3.40 0067  02.08.2006

@<TRIPOS>MOLECULE
ASD02500782
  51   54    0    0    0
SMALL
NO_CHARGES


@<TRIPOS>ATOM
   1 N1            -0.0958     1.2908     0.3356 N.am    
   2 C2             0.0600    -0.1344     0.0125 C.3     
   3 C3             0.7999    -0.2555    -1.3255 C.3     
   4 N4             1.9974     0.5952    -1.2786 N.am    
   5 C5             1.8415     2.0204    -0.9555 C.3     
   6 C6             1.1017     2.1415     0.3825 C.3     
   7 C7            -1.3183    -0.7887    -0.1018 C.3     
   8 S8            -1.5947     1.9282     0.6348 S.o2    
   9 O9            -1.4674     3.3363     0.4931 O.2     
  10 O10           -2.5180     1.1517    -0.1161 O.2     
  11 O11           -2.8290     0.9130     6.3075 O.3     
  12 C12           -2.5357     1.1588     5.0013 C.ar    
  13 C13           -1.8833     2.3278     4.6265 C.ar    
  14 O14           -1.5184     3.2510     5.5577 O.3     
  15 C15           -2.1523     3.1584     6.8381 C.3     
  16 C16           -2.1245     1.6895     7.2824 C.3     
  17 C17           -1.5980     2.5600     3.2896 C.ar    
  18 C18           -1.9589     1.6299     2.3328 C.ar    
  19 C19           -2.6052     0.4665     2.7056 C.ar    
  20 C20           -2.8942     0.2296     4.0366 C.ar    
  21 S21            3.4955    -0.0409    -1.5839 S.o2    
  22 O22            4.4328     0.8159    -0.9462 O.2     
  23 O23            3.4038    -1.4325    -1.3112 O.2     
  24 C24            3.7827     0.1088    -3.3159 C.ar    
  25 C25            4.3890     1.2458    -3.8217 C.ar    
  26 C26            4.6141     1.3624    -5.1830 C.ar    
  27 C27            4.2337     0.3441    -6.0366 C.ar    
  28 C28            3.6283    -0.7915    -5.5327 C.ar    
  29 C29            3.4073    -0.9128    -4.1711 C.ar    
  30 F30            2.8210    -2.0256    -3.6781 F       
  31 F31            4.7605     2.2415    -2.9876 F       
  32 H32            0.6373    -0.6261     0.7956 H       
  33 H33            1.0939    -1.2924    -1.4884 H       
  34 H34            0.1484     0.0741    -2.1349 H       
  35 H35            2.8235     2.4865    -0.8741 H       
  36 H36            1.2643     2.5120    -1.7385 H       
  37 H37            0.8077     3.1783     0.5454 H       
  38 H38            1.7531     1.8119     1.1919 H       
  39 H39           -1.8318    -0.4027    -0.9823 H       
  40 H40           -1.2014    -1.8685    -0.1936 H       
  41 H41           -1.9036    -0.5610     0.7891 H       
  42 H42           -1.6130     3.7712     7.5605 H       
  43 H43           -3.1845     3.5005     6.7630 H       
  44 H44           -2.6106     1.5898     8.2529 H       
  45 H45           -1.0925     1.3454     7.3505 H       
  46 H46           -1.0932     3.4684     2.9956 H       
  47 H47           -2.8854    -0.2586     1.9558 H       
  48 H48           -3.3994    -0.6802     4.3253 H       
  49 H49            5.0868     2.2495    -5.5779 H       
  50 H50            4.4094     0.4361    -7.0983 H       
  51 H51            3.3312    -1.5864    -6.2007 H       
@<TRIPOS>BOND
   1    1    2 1
   2    1    6 1
   3    1    8 am
   4    2    3 1
   5    2    7 1
   6    2   32 1
   7    3    4 1
   8    3   33 1
   9    3   34 1
  10    4    5 1
  11    4   21 am
  12    5    6 1
  13    5   35 1
  14    5   36 1
  15    6   37 1
  16    6   38 1
  17    7   39 1
  18    7   40 1
  19    7   41 1
  20    8    9 2
  21    8   10 2
  22    8   18 1
  23   11   12 1
  24   11   16 1
  25   12   13 ar
  26   12   20 ar
  27   13   14 1
  28   13   17 ar
  29   14   15 1
  30   15   16 1
  31   15   42 1
  32   15   43 1
  33   16   44 1
  34   16   45 1
  35   17   18 ar
  36   17   46 1
  37   18   19 ar
  38   19   20 ar
  39   19   47 1
  40   20   48 1
  41   21   22 2
  42   21   23 2
  43   21   24 1
  44   24   25 ar
  45   24   29 ar
  46   25   26 ar
  47   25   31 1
  48   26   27 ar
  49   26   49 1
  50   27   28 ar
  51   27   50 1
  52   28   29 ar
  53   28   51 1
  54   29   30 1

#	End of record

