#	Name: ASD08150748
#	Creating user name:	WinNT
#	Creation time:	15. 06. 2019 21:16

#	Modifying user name:	WinNT
#	Modification time:	15. 06. 2019 21:16

#	Program:	/corina/corina34_cracker 3.40 0067  02.08.2006

@<TRIPOS>MOLECULE
ASD08150748
  31   33    0    0    0
SMALL
NO_CHARGES


@<TRIPOS>ATOM
   1 C1            -0.0774     1.1823     0.0643 C.2     
   2 N2             0.0957    -0.1251     0.1483 N.2     
   3 C3             1.2989    -0.6738     0.0848 C.2     
   4 C4             2.4103     0.1528    -0.0750 C.2     
   5 C5             2.2173     1.5459    -0.1637 C.2     
   6 N6             0.9536     2.0579    -0.0921 N.am    
   7 S7            -1.5479     2.1713     0.1103 S.3     
   8 C8             0.5964     3.3819    -0.1617 C.2     
   9 C9            -0.6819     3.7061    -0.0764 C.2     
  10 O10            3.1737     2.2899    -0.3033 O.2     
  11 S11            4.8666    -0.2731    -1.5175 S.3     
  12 C12            3.7666    -0.4219    -0.1494 C.2     
  13 N13            4.3448    -1.1211     0.7870 N.2     
  14 C14            5.5628    -1.5528     0.5424 C.2     
  15 C15            6.0703    -1.2218    -0.6474 C.2     
  16 C16            1.6462     4.4492    -0.3338 C.3     
  17 C17            1.4646    -2.1683     0.1841 C.3     
  18 C18            1.0768    -2.6322     1.5896 C.3     
  19 N19            0.6003    -2.8221    -0.8017 N.2     
  20 N20            0.6469    -3.9368    -0.9384 N.1     
  21 N21            0.6934    -5.0515    -1.0752 N.pl3   
  22 H22           -1.1090     4.6972    -0.1164 H       
  23 H23            6.1183    -2.1385     1.2598 H       
  24 H24            7.0502    -1.4899    -1.0139 H       
  25 H25            1.8107     4.6290    -1.3963 H       
  26 H26            1.3097     5.3700     0.1426 H       
  27 H27            2.5775     4.1206     0.1276 H       
  28 H28            2.5038    -2.4325    -0.0118 H       
  29 H29            0.0376    -2.3681     1.7856 H       
  30 H30            1.1967    -3.7132     1.6615 H       
  31 H31            1.7199    -2.1458     2.3231 H       
@<TRIPOS>BOND
   1    1    2 2
   2    1    6 1
   3    1    7 1
   4    2    3 1
   5    3    4 2
   6    3   17 1
   7    4    5 1
   8    4   12 1
   9    5    6 am
  10    5   10 2
  11    6    8 1
  12    7    9 1
  13    8    9 2
  14    8   16 1
  15    9   22 1
  16   11   12 1
  17   11   15 1
  18   12   13 2
  19   13   14 1
  20   14   15 2
  21   14   23 1
  22   15   24 1
  23   16   25 1
  24   16   26 1
  25   16   27 1
  26   17   18 1
  27   17   19 1
  28   17   28 1
  29   18   29 1
  30   18   30 1
  31   18   31 1
  32   19   20 2
  33   20   21 2

#	End of record

