#	Name: ASD01883162
#	Creating user name:	WinNT
#	Creation time:	15. 06. 2019 19:45

#	Modifying user name:	WinNT
#	Modification time:	15. 06. 2019 19:45

#	Program:	/corina/corina34_cracker 3.40 0067  02.08.2006

@<TRIPOS>MOLECULE
ASD01883162
  42   43    0    0    0
SMALL
NO_CHARGES


@<TRIPOS>ATOM
   1 N1            -0.0162     1.3416     0.0094 N.am    
   2 C2             0.0021    -0.0041     0.0020 C.2     
   3 C3            -1.2155    -0.7273     0.0098 C.2     
   4 C4            -2.4264    -0.0105     0.0252 C.2     
   5 C5            -2.3785     1.3984     0.0323 C.2     
   6 C6            -1.1852     2.0331     0.0299 C.2     
   7 O7             1.0658    -0.5999    -0.0117 O.2     
   8 C8            -1.2144    -2.1593     0.0016 C.1     
   9 N9            -1.2136    -3.2953    -0.0049 N.1     
  10 C10            1.2514     2.0761     0.0013 C.3     
  11 C11            1.6789     2.3395    -1.4440 C.3     
  12 C12            3.0027     3.1066    -1.4525 C.3     
  13 C13            3.4933     3.2612    -2.8935 C.3     
  14 C14            2.7944     4.4902    -0.8334 C.3     
  15 C15           -3.7205    -0.7195     0.0332 C.ar    
  16 C16           -4.3254    -1.0639     1.2478 C.ar    
  17 C17           -5.5359    -1.7265     1.2492 C.ar    
  18 C18           -6.1542    -2.0516     0.0484 C.ar    
  19 C19           -5.5586    -1.7123    -1.1600 C.ar    
  20 C20           -4.3509    -1.0450    -1.1736 C.ar    
  21 O21           -7.3448    -2.7039     0.0558 O.3     
  22 C22           -7.9259    -3.0079    -1.2138 C.3     
  23 F23           -3.7728    -0.7157    -2.3495 F       
  24 F24           -3.7250    -0.7488     2.4163 F       
  25 H25           -3.2946     1.9702     0.0441 H       
  26 H26           -1.1607     3.1128     0.0358 H       
  27 H27            1.1245     3.0255     0.5214 H       
  28 H28            2.0168     1.4855     0.5046 H       
  29 H29            1.8057     1.3901    -1.9642 H       
  30 H30            0.9135     2.9302    -1.9474 H       
  31 H31            3.7447     2.5572    -0.8731 H       
  32 H32            2.7513     3.8106    -3.4729 H       
  33 H33            4.4364     3.8077    -2.8995 H       
  34 H34            3.6416     2.2755    -3.3345 H       
  35 H35            3.7375     5.0366    -0.8395 H       
  36 H36            2.0524     5.0395    -1.4129 H       
  37 H37            2.4449     4.3800     0.1931 H       
  38 H38           -6.0033    -1.9931     2.1856 H       
  39 H39           -6.0437    -1.9680    -2.0904 H       
  40 H40           -7.2468    -3.6443    -1.7812 H       
  41 H41           -8.8722    -3.5279    -1.0651 H       
  42 H42           -8.1019    -2.0833    -1.7636 H       
@<TRIPOS>BOND
   1    1    2 am
   2    1   10 1
   3    1    6 1
   4    2    3 1
   5    2    7 2
   6    3    4 2
   7    3    8 1
   8    4    5 1
   9    4   15 1
  10    5    6 2
  11    5   25 1
  12    6   26 1
  13    8    9 3
  14   10   11 1
  15   10   27 1
  16   10   28 1
  17   11   12 1
  18   11   29 1
  19   11   30 1
  20   12   13 1
  21   12   14 1
  22   12   31 1
  23   13   32 1
  24   13   33 1
  25   13   34 1
  26   14   35 1
  27   14   36 1
  28   14   37 1
  29   15   16 ar
  30   15   20 ar
  31   16   17 ar
  32   16   24 1
  33   17   18 ar
  34   17   38 1
  35   18   19 ar
  36   18   21 1
  37   19   20 ar
  38   19   39 1
  39   20   23 1
  40   21   22 1
  41   22   40 1
  42   22   41 1
  43   22   42 1

#	End of record

