#	Name: ASD03430377
#	Creating user name:	WinNT
#	Creation time:	15. 06. 2019 20:41

#	Modifying user name:	WinNT
#	Modification time:	15. 06. 2019 20:41

#	Program:	/corina/corina34_cracker 3.40 0067  02.08.2006

@<TRIPOS>MOLECULE
ASD03430377
  59   63    0    0    0
SMALL
NO_CHARGES


@<TRIPOS>ATOM
   1 N1            -0.0157     1.4932     0.4901 N.am    
   2 C2             0.0409     0.2263     0.9344 C.2     
   3 C3             1.4805    -0.0488     1.3138 C.3     
   4 C4             2.1944     1.2486     1.0118 C.ar    
   5 C5             3.5068     1.6460     1.1354 C.ar    
   6 C6             3.8770     2.9283     0.7697 C.ar    
   7 C7             2.9262     3.8059     0.2812 C.ar    
   8 C8             1.6107     3.4103     0.1564 C.ar    
   9 C9             1.2302     2.1206     0.5226 C.ar    
  10 O10           -0.8869    -0.5505     1.0164 O.2     
  11 C11            1.5859    -0.3806     2.7800 C.ar    
  12 C12            1.1471     0.5307     3.7305 C.ar    
  13 C13            1.2444     0.2249     5.0790 C.ar    
  14 C14            1.7801    -0.9912     5.4748 C.ar    
  15 C15            2.2173    -1.8989     4.5208 C.ar    
  16 C16            2.1141    -1.5940     3.1768 C.ar    
  17 C17            2.7996    -3.2208     4.9504 C.3     
  18 O18            1.8771    -1.2937     6.7962 O.3     
  19 C19            1.4079    -0.3121     7.7226 C.3     
  20 O20            0.6230     1.7219     3.3394 O.3     
  21 O21            2.0136    -1.1103     0.5193 O.3     
  22 C22           -1.2434     2.1395     0.0197 C.3     
  23 C23           -0.9991     2.7578    -1.3327 C.ar    
  24 C24           -1.5151     4.0065    -1.6251 C.ar    
  25 C25           -1.2910     4.5737    -2.8657 C.ar    
  26 C26           -0.5507     3.8924    -3.8136 C.ar    
  27 C27           -0.0340     2.6442    -3.5209 C.ar    
  28 C28           -0.2543     2.0788    -2.2788 C.ar    
  29 C29           -2.3417     1.1132    -0.0881 C.ar    
  30 C30           -3.4804     1.2356     0.6860 C.ar    
  31 C31           -4.4879     0.2942     0.5871 C.ar    
  32 C32           -4.3568    -0.7692    -0.2863 C.ar    
  33 C33           -3.2185    -0.8911    -1.0611 C.ar    
  34 C34           -2.2129     0.0526    -0.9653 C.ar    
  35 H35            4.2463     0.9579     1.5176 H       
  36 H36            4.9057     3.2431     0.8658 H       
  37 H37            3.2153     4.8067    -0.0038 H       
  38 H38            0.8740     4.1014    -0.2259 H       
  39 H39            0.9038     0.9328     5.8201 H       
  40 H40            2.4509    -2.3036     2.4356 H       
  41 H41            2.0033    -3.9613     5.0259 H       
  42 H42            3.5338    -3.5505     4.2153 H       
  43 H43            3.2829    -3.1068     5.9207 H       
  44 H44            1.9727     0.6109     7.5912 H       
  45 H45            0.3502    -0.1195     7.5432 H       
  46 H46            1.5429    -0.6789     8.7401 H       
  47 H47           -0.3340     1.7044     3.2018 H       
  48 H48            1.5527    -1.9533     0.6290 H       
  49 H49           -1.5391     2.9153     0.7259 H       
  50 H50           -2.0935     4.5388    -0.8845 H       
  51 H51           -1.6947     5.5490    -3.0944 H       
  52 H52           -0.3762     4.3353    -4.7831 H       
  53 H53            0.5442     2.1118    -4.2616 H       
  54 H54            0.1525     1.1052    -2.0488 H       
  55 H55           -3.5828     2.0665     1.3683 H       
  56 H56           -5.3772     0.3895     1.1924 H       
  57 H57           -5.1436    -1.5051    -0.3630 H       
  58 H58           -3.1159    -1.7221    -1.7431 H       
  59 H59           -1.3252    -0.0405    -1.5733 H       
@<TRIPOS>BOND
   1    1    2 am
   2    1    9 1
   3    1   22 1
   4    2    3 1
   5    2   10 2
   6    3    4 1
   7    3   11 1
   8    3   21 1
   9    4    5 ar
  10    4    9 ar
  11    5    6 ar
  12    5   35 1
  13    6    7 ar
  14    6   36 1
  15    7    8 ar
  16    7   37 1
  17    8    9 ar
  18    8   38 1
  19   11   12 ar
  20   11   16 ar
  21   12   13 ar
  22   12   20 1
  23   13   14 ar
  24   13   39 1
  25   14   15 ar
  26   14   18 1
  27   15   16 ar
  28   15   17 1
  29   16   40 1
  30   17   41 1
  31   17   42 1
  32   17   43 1
  33   18   19 1
  34   19   44 1
  35   19   45 1
  36   19   46 1
  37   20   47 1
  38   21   48 1
  39   22   23 1
  40   22   29 1
  41   22   49 1
  42   23   24 ar
  43   23   28 ar
  44   24   25 ar
  45   24   50 1
  46   25   26 ar
  47   25   51 1
  48   26   27 ar
  49   26   52 1
  50   27   28 ar
  51   27   53 1
  52   28   54 1
  53   29   30 ar
  54   29   34 ar
  55   30   31 ar
  56   30   55 1
  57   31   32 ar
  58   31   56 1
  59   32   33 ar
  60   32   57 1
  61   33   34 ar
  62   33   58 1
  63   34   59 1

#	End of record

