#	Name: ASD08178314
#	Creating user name:	WinNT
#	Creation time:	15. 06. 2019 21:18

#	Modifying user name:	WinNT
#	Modification time:	15. 06. 2019 21:18

#	Program:	/corina/corina34_cracker 3.40 0067  02.08.2006

@<TRIPOS>MOLECULE
ASD08178314
  78   80    0    0    0
SMALL
NO_CHARGES


@<TRIPOS>ATOM
   1 N1            -0.0175     1.2958     0.4994 N.am    
   2 C2             0.1032     0.0070    -0.0093 C.2     
   3 C3            -0.9975    -0.6769    -0.3804 C.2     
   4 N4             1.3583    -0.5755    -0.1351 N.pl3   
   5 N5            -3.2230    -2.1315    -1.1596 N.pl3   
   6 C6            -1.9632    -2.7162    -1.2858 C.2     
   7 C7            -0.8701    -2.0369    -0.9173 C.2     
   8 C8            -1.8324    -4.1126    -1.8371 C.3     
   9 C9            -2.0283    -5.1269    -0.7084 C.3     
  10 C10           -1.8955    -6.5447    -1.2681 C.3     
  11 C11           -2.0913    -7.5589    -0.1395 C.3     
  12 C12           -1.9605    -8.9554    -0.6907 C.2     
  13 N13           -0.8670    -9.6444    -0.7743 N.2     
  14 N14           -0.9650   -10.8018    -1.2690 N.2     
  15 C15           -2.1426   -11.1979    -1.6478 C.2     
  16 S16           -3.2705    -9.9481    -1.3310 S.3     
  17 N17           -2.4394   -12.4340    -2.2118 N.am    
  18 C18           -1.4598   -13.3392    -2.4052 C.2     
  19 C19           -1.7815   -14.6787    -3.0163 C.3     
  20 O20           -0.3194   -13.0758    -2.0875 O.2     
  21 C21           -0.5212   -15.4979    -3.1229 C.ar    
  22 C22           -0.1433   -16.3234    -2.0807 C.ar    
  23 C23            1.0130   -17.0749    -2.1784 C.ar    
  24 C24            1.4099   -16.1799    -4.3634 C.ar    
  25 C25            0.2542   -15.4282    -4.2654 C.ar    
  26 C26            1.0668     1.9337     0.9830 C.2     
  27 C27            0.9617     3.3714     1.4222 C.3     
  28 O28            2.1273     1.3505     1.0646 O.2     
  29 C29            2.3038     3.8446     1.9181 C.ar    
  30 C30            3.2018     4.4203     1.0389 C.ar    
  31 C31            2.6346     3.7080     3.2533 C.ar    
  32 C32            3.8657     4.1420     3.7082 C.ar    
  33 C33            4.7661     4.7122     2.8279 C.ar    
  34 C34            4.4329     4.8543     1.4938 C.ar    
  35 C35            1.7909   -17.0012    -3.3185 C.ar    
  36 C36            2.2552   -16.1035    -5.6086 C.3     
  37 C37            3.2959   -14.9930    -5.4511 C.3     
  38 O38            2.6324   -13.7437    -5.2484 O.3     
  39 C39            4.1886   -15.2976    -4.2465 C.3     
  40 C40            4.1541   -14.9154    -6.7154 C.3     
  41 H41           -0.8813     1.7370     0.5026 H       
  42 H42           -1.9731    -0.2242    -0.2826 H       
  43 H43            2.1397    -0.0182    -0.2759 H       
  44 H44            1.4531    -1.5394    -0.0820 H       
  45 H45           -3.3072    -1.2327    -0.8047 H       
  46 H46           -4.0150    -2.6237    -1.4266 H       
  47 H47            0.1056    -2.4897    -1.0150 H       
  48 H48           -2.5895    -4.2726    -2.6047 H       
  49 H49           -0.8412    -4.2401    -2.2721 H       
  50 H50           -1.2712    -4.9669     0.0593 H       
  51 H51           -3.0195    -4.9994    -0.2733 H       
  52 H52           -2.6525    -6.7046    -2.0358 H       
  53 H53           -0.9042    -6.6722    -1.7032 H       
  54 H54           -1.3343    -7.3990     0.6282 H       
  55 H55           -3.0826    -7.4314     0.2956 H       
  56 H56           -3.3515   -12.6447    -2.4659 H       
  57 H57           -2.5024   -15.2012    -2.3876 H       
  58 H58           -2.2049   -14.5324    -4.0100 H       
  59 H59           -0.7511   -16.3810    -1.1898 H       
  60 H60            1.3086   -17.7194    -1.3637 H       
  61 H61           -0.0436   -14.7868    -5.0818 H       
  62 H62            0.6483     3.9869     0.5790 H       
  63 H63            0.2283     3.4536     2.2244 H       
  64 H64            2.9417     4.5307    -0.0035 H       
  65 H65            1.9312     3.2625     3.9411 H       
  66 H66            4.1239     4.0360     4.7515 H       
  67 H67            5.7278     5.0517     3.1834 H       
  68 H68            5.1363     5.2998     0.8060 H       
  69 H69            2.6943   -17.5880    -3.3947 H       
  70 H70            2.7613   -17.0564    -5.7632 H       
  71 H71            1.6192   -15.8864    -6.4667 H       
  72 H72            2.0480   -13.4863    -5.9746 H       
  73 H73            4.6947   -16.2506    -4.4012 H       
  74 H74            4.9300   -14.5065    -4.1344 H       
  75 H75            3.5772   -15.3529    -3.3459 H       
  76 H76            3.5181   -14.6983    -7.5735 H       
  77 H77            4.8955   -14.1242    -6.6032 H       
  78 H78            4.6602   -15.8683    -6.8700 H       
@<TRIPOS>BOND
   1    1    2 1
   2    1   26 am
   3    1   41 1
   4    2    3 2
   5    2    4 1
   6    3    7 1
   7    3   42 1
   8    4   43 1
   9    4   44 1
  10    5    6 1
  11    5   45 1
  12    5   46 1
  13    6    7 2
  14    6    8 1
  15    7   47 1
  16    8    9 1
  17    8   48 1
  18    8   49 1
  19    9   10 1
  20    9   50 1
  21    9   51 1
  22   10   11 1
  23   10   52 1
  24   10   53 1
  25   11   12 1
  26   11   54 1
  27   11   55 1
  28   12   13 2
  29   12   16 1
  30   13   14 1
  31   14   15 2
  32   15   16 1
  33   15   17 1
  34   17   18 am
  35   17   56 1
  36   18   19 1
  37   18   20 2
  38   19   21 1
  39   19   57 1
  40   19   58 1
  41   21   22 ar
  42   21   25 ar
  43   22   23 ar
  44   22   59 1
  45   23   35 ar
  46   23   60 1
  47   24   25 ar
  48   24   36 1
  49   24   35 ar
  50   25   61 1
  51   26   27 1
  52   26   28 2
  53   27   29 1
  54   27   62 1
  55   27   63 1
  56   29   30 ar
  57   29   31 ar
  58   30   34 ar
  59   30   64 1
  60   31   32 ar
  61   31   65 1
  62   32   33 ar
  63   32   66 1
  64   33   34 ar
  65   33   67 1
  66   34   68 1
  67   35   69 1
  68   36   37 1
  69   36   70 1
  70   36   71 1
  71   37   39 1
  72   37   38 1
  73   37   40 1
  74   38   72 1
  75   39   73 1
  76   39   74 1
  77   39   75 1
  78   40   76 1
  79   40   77 1
  80   40   78 1

#	End of record

