#	Name: ASD01140007
#	Creating user name:	WinNT
#	Creation time:	15. 06. 2019 18:59

#	Modifying user name:	WinNT
#	Modification time:	15. 06. 2019 18:59

#	Program:	/corina/corina34_cracker 3.40 0067  02.08.2006

@<TRIPOS>MOLECULE
ASD01140007
  37   41    0    0    0
SMALL
NO_CHARGES


@<TRIPOS>ATOM
   1 O1            -1.0149    -0.7685     3.3961 O.3     
   2 O2             0.3487     0.0227     0.1481 O.3     
   3 O3             3.0822    -0.1852     3.9248 O.3     
   4 O4             1.7200    -2.3587     0.4596 O.3     
   5 O5            -1.4854    -1.2892     0.4089 O.2     
   6 O6             1.4862    -3.9477     2.0581 O.2     
   7 C7             1.3036    -0.0908     2.3184 C.3     
   8 C8            -0.1143    -0.6934     2.3086 C.3     
   9 C9             2.1760    -0.9894     3.1671 C.3     
  10 C10           -0.0934    -1.8686     3.2946 C.3     
  11 C11            1.6404     0.0409     0.8394 C.3     
  12 C12            1.2021    -1.7046     4.1335 C.3     
  13 C13            2.9627    -2.0396     2.3956 C.3     
  14 C14            2.4757    -1.1199     0.2972 C.3     
  15 C15            3.6980    -1.3100     1.2381 C.3     
  16 C16           -0.5253    -0.7102     0.8593 C.2     
  17 C17            1.2593     1.2991     2.9565 C.3     
  18 C18            1.9630    -2.9145     1.6518 C.2     
  19 C19            4.2597     0.0113     1.6962 C.2     
  20 C20            5.7211     0.3192     1.4950 C.3     
  21 C21            3.4776     0.8921     2.2694 C.2     
  22 H22           -0.4405    -2.8717     3.0468 H       
  23 H23            2.1461     0.9891     0.6568 H       
  24 H24            3.6306    -2.6153     3.0363 H       
  25 H25            2.7768    -0.9645    -0.7387 H       
  26 H26            3.6759    -0.6926     4.4950 H       
  27 H27            1.5965    -2.6783     4.4239 H       
  28 H28            1.0137    -1.0887     5.0129 H       
  29 H29            4.4659    -1.9337     0.7806 H       
  30 H30            0.3736     1.3815     3.5866 H       
  31 H31            2.1522     1.4489     3.5634 H       
  32 H32            1.2203     2.0570     2.1742 H       
  33 H33            5.8797     0.6810     0.4791 H       
  34 H34            6.0325     1.0845     2.2059 H       
  35 H35            6.3083    -0.5852     1.6543 H       
  36 H36            3.8664     1.5363     3.0442 H       
  37 H37            2.4440     0.9742     1.9671 H       
@<TRIPOS>BOND
   1    1   10 1
   2    1    8 1
   3    2   11 1
   4    2   16 1
   5    3    9 1
   6    3   26 1
   7    4   14 1
   8    4   18 1
   9    5   16 2
  10    6   18 2
  11    7    8 1
  12    7   17 1
  13    7    9 1
  14    7   11 1
  15    8   10 1
  16    8   16 1
  17    9   12 1
  18    9   13 1
  19   10   12 1
  20   10   22 1
  21   11   23 1
  22   11   14 1
  23   12   27 1
  24   12   28 1
  25   13   18 1
  26   13   24 1
  27   13   15 1
  28   14   15 1
  29   14   25 1
  30   15   19 1
  31   15   29 1
  32   17   30 1
  33   17   31 1
  34   17   32 1
  35   19   20 1
  36   19   21 2
  37   20   33 1
  38   20   34 1
  39   20   35 1
  40   21   36 1
  41   21   37 1

#	End of record

