#	Name: ASD00170015
#	Creating user name:	WinNT
#	Creation time:	15. 06. 2019 18:31

#	Modifying user name:	WinNT
#	Modification time:	15. 06. 2019 18:31

#	Program:	/corina/corina34_cracker 3.40 0067  02.08.2006

@<TRIPOS>MOLECULE
ASD00170015
  35   37    0    0    0
SMALL
NO_CHARGES


@<TRIPOS>ATOM
   1 C1            -0.0697     1.3006    -0.3506 C.2     
   2 N2            -0.0484    -0.0059    -0.3344 N.2     
   3 N3            -1.1645    -0.7657     0.0090 N.am    
   4 C4            -2.3405    -0.2159     0.3476 C.2     
   5 C5            -2.4910     1.2040     0.3676 C.2     
   6 C6            -1.3222     2.0172     0.0142 C.2     
   7 O7            -3.2831    -0.9304     0.6384 O.2     
   8 C8            -3.5880     1.9739     0.6790 C.2     
   9 S9            -3.2410     3.6339     0.5477 S.3     
  10 C10           -1.5828     3.3358     0.0680 C.2     
  11 N11           -4.8186     1.4622     1.0516 N.pl3   
  12 C12            1.1388     2.0588    -0.7214 C.2     
  13 O13            2.2719     1.4045    -1.0455 O.3     
  14 O14            1.1136     3.2737    -0.7349 O.2     
  15 C15           -1.0546    -2.1599     0.0000 C.ar    
  16 C16           -0.5041    -2.8074    -1.0984 C.ar    
  17 C17           -0.3970    -4.1856    -1.1039 C.ar    
  18 C18           -0.8377    -4.9192    -0.0163 C.ar    
  19 C19           -1.3866    -4.2766     1.0783 C.ar    
  20 C20           -1.4906    -2.8998     1.0924 C.ar    
  21 C21            3.4229     2.2155    -1.4002 C.3     
  22 C22            4.6054     1.3041    -1.7345 C.3     
  23 Cl23           0.2903    -4.9967    -2.4763 Cl      
  24 H24           -0.8637     4.1097    -0.1563 H       
  25 H25           -4.9484     0.5025     1.1062 H       
  26 H26           -5.5514     2.0633     1.2581 H       
  27 H27           -0.1604    -2.2350    -1.9473 H       
  28 H28           -0.7531    -5.9959    -0.0226 H       
  29 H29           -1.7299    -4.8520     1.9253 H       
  30 H30           -1.9195    -2.3989     1.9478 H       
  31 H31            3.1811     2.8299    -2.2675 H       
  32 H32            3.6862     2.8593    -0.5609 H       
  33 H33            4.3421     0.6603    -2.5737 H       
  34 H34            5.4695     1.9128    -2.0007 H       
  35 H35            4.8472     0.6897    -0.8672 H       
@<TRIPOS>BOND
   1    1    2 2
   2    1   12 1
   3    1    6 1
   4    2    3 1
   5    3    4 am
   6    3   15 1
   7    4    5 1
   8    4    7 2
   9    5    6 1
  10    5    8 2
  11    6   10 2
  12    8    9 1
  13    8   11 1
  14    9   10 1
  15   10   24 1
  16   11   25 1
  17   11   26 1
  18   12   13 1
  19   12   14 2
  20   13   21 1
  21   15   16 ar
  22   15   20 ar
  23   16   17 ar
  24   16   27 1
  25   17   18 ar
  26   17   23 1
  27   18   19 ar
  28   18   28 1
  29   19   20 ar
  30   19   29 1
  31   20   30 1
  32   21   22 1
  33   21   31 1
  34   21   32 1
  35   22   33 1
  36   22   34 1
  37   22   35 1

#	End of record

