#	Name: ASD01910707
#	Creating user name:	WinNT
#	Creation time:	15. 06. 2019 19:56

#	Modifying user name:	WinNT
#	Modification time:	15. 06. 2019 19:56

#	Program:	/corina/corina34_cracker 3.40 0067  02.08.2006

@<TRIPOS>MOLECULE
ASD01910707
  52   55    0    0    0
SMALL
NO_CHARGES


@<TRIPOS>ATOM
   1 C1            12.4921    -1.8934     4.2633 C.ar    
   2 C2            13.1102    -2.0565     3.0309 C.ar    
   3 C3            12.3983    -1.7388     1.8880 C.ar    
   4 C4            11.0948    -1.2693     2.0117 C.ar    
   5 N5            10.5402    -1.1270     3.2057 N.ar    
   6 C6            11.1951    -1.4225     4.3124 C.ar    
   7 N7            10.3680    -0.9463     0.8716 N.3     
   8 C8             9.0222    -0.4729     1.2219 C.3     
   9 C9             8.3209     0.0416    -0.0397 C.3     
  10 N10            8.3619    -1.0159    -1.0612 N.am    
  11 C11            9.6595    -1.6364    -1.3686 C.3     
  12 C12           10.3081    -2.0848    -0.0547 C.3     
  13 C13            7.2404    -1.4055    -1.6989 C.2     
  14 C14            7.3212    -2.3800    -2.8082 C.ar    
  15 O15            6.1624    -0.9559    -1.3623 O.2     
  16 C16            6.3483    -3.3735    -2.9390 C.ar    
  17 C17            6.4215    -4.2850    -3.9742 C.ar    
  18 C18            7.4552    -4.2216    -4.8865 C.ar    
  19 C19            8.4367    -3.2325    -4.7677 C.ar    
  20 C20            8.3647    -2.3055    -3.7281 C.ar    
  21 C21            9.5091    -3.1678    -5.7144 C.1     
  22 C22           10.3883    -3.1148    -6.4906 C.1     
  23 C23           11.4608    -3.0501    -7.4373 C.ar    
  24 C24            7.5267    -5.2205    -6.0126 C.3     
  25 C25           12.4420    -2.0625    -7.3198 C.ar    
  26 C26           13.4727    -2.0060    -8.2350 C.ar    
  27 C27           13.5365    -2.9239    -9.2679 C.ar    
  28 C28           12.5674    -3.9058    -9.3916 C.ar    
  29 C29           11.5339    -3.9780    -8.4796 C.ar    
  30 Cl30          12.6564    -5.0520   -10.6923 Cl      
  31 H31           13.0189    -2.1366     5.1742 H       
  32 H32           14.1241    -2.4228     2.9659 H       
  33 H33           12.8487    -1.8533     0.9131 H       
  34 H34           10.7106    -1.2938     5.2690 H       
  35 H35            8.4471    -1.2948     1.6483 H       
  36 H36            9.0987     0.3343     1.9503 H       
  37 H37            7.2844     0.2870     0.1918 H       
  38 H38            8.8362     0.9280    -0.4095 H       
  39 H39            9.5080    -2.5004    -2.0157 H       
  40 H40           10.3035    -0.9113    -1.8661 H       
  41 H41           11.3172    -2.4466    -0.2521 H       
  42 H42            9.7150    -2.8843     0.3895 H       
  43 H43            5.5368    -3.4294    -2.2286 H       
  44 H44            5.6665    -5.0512    -4.0699 H       
  45 H45            9.1197    -1.5393    -3.6311 H       
  46 H46            6.9836    -4.8348    -6.8754 H       
  47 H47            8.5689    -5.3877    -6.2843 H       
  48 H48            7.0792    -6.1615    -5.6925 H       
  49 H49           12.3935    -1.3445    -6.5145 H       
  50 H50           14.2317    -1.2429    -8.1449 H       
  51 H51           14.3456    -2.8745    -9.9816 H       
  52 H52           10.7788    -4.7441    -8.5765 H       
@<TRIPOS>BOND
   1    1    2 ar
   2    1    6 ar
   3    1   31 1
   4    2    3 ar
   5    2   32 1
   6    3    4 ar
   7    3   33 1
   8    4    5 ar
   9    4    7 1
  10    5    6 ar
  11    6   34 1
  12    7    8 1
  13    7   12 1
  14    8    9 1
  15    8   35 1
  16    8   36 1
  17    9   10 1
  18    9   37 1
  19    9   38 1
  20   10   11 1
  21   10   13 am
  22   11   12 1
  23   11   39 1
  24   11   40 1
  25   12   41 1
  26   12   42 1
  27   13   14 1
  28   13   15 2
  29   14   16 ar
  30   14   20 ar
  31   16   17 ar
  32   16   43 1
  33   17   18 ar
  34   17   44 1
  35   18   19 ar
  36   18   24 1
  37   19   20 ar
  38   19   21 1
  39   20   45 1
  40   21   22 3
  41   22   23 1
  42   23   25 ar
  43   23   29 ar
  44   24   46 1
  45   24   47 1
  46   24   48 1
  47   25   26 ar
  48   25   49 1
  49   26   27 ar
  50   26   50 1
  51   27   28 ar
  52   27   51 1
  53   28   29 ar
  54   28   30 1
  55   29   52 1

#	End of record

