#	Name: ASD04590619
#	Creating user name:	WinNT
#	Creation time:	15. 06. 2019 20:51

#	Modifying user name:	WinNT
#	Modification time:	15. 06. 2019 20:51

#	Program:	/corina/corina34_cracker 3.40 0067  02.08.2006

@<TRIPOS>MOLECULE
ASD04590619
  62   67    0    0    0
SMALL
NO_CHARGES


@<TRIPOS>ATOM
   1 N1            -0.0159     1.3230     0.0093 N.ar    
   2 C2             0.0021    -0.0041     0.0020 C.ar    
   3 N3             1.1296    -0.6958    -0.0125 N.ar    
   4 C4             2.3054    -0.0742    -0.0204 C.ar    
   5 C5             2.3202     1.3348    -0.0129 C.ar    
   6 C6             1.1085     2.0193     0.0023 C.ar    
   7 N7             3.6032    -0.5217    -0.0351 N.pl3   
   8 C8             4.4831     0.5468    -0.0378 C.ar    
   9 C9             3.7326     1.7361    -0.0243 C.ar    
  10 C10            5.8689     0.6385    -0.0506 C.ar    
  11 N11            6.4628     1.8144    -0.0499 N.ar    
  12 C12            5.7871     2.9499    -0.0374 C.ar    
  13 C13            4.4085     2.9558    -0.0238 C.ar    
  14 N14           -1.2019    -0.6887     0.0103 N.pl3   
  15 C15           -2.4060     0.0171     0.0261 C.2     
  16 C16            4.0009    -1.9317    -0.0461 C.3     
  17 C17            3.3993    -2.6598     1.1736 C.3     
  18 C18            3.4367    -2.6288    -1.2965 C.3     
  19 C19            2.5120    -3.7563    -0.7930 C.3     
  20 C20            2.0994    -3.3024     0.6293 C.3     
  21 N21           -2.4241     1.3232     0.0328 N.2     
  22 S22           -4.0655     1.7626     0.0510 S.3     
  23 C23           -4.6449     0.1402     0.0485 C.2     
  24 N24           -3.5640    -0.6104     0.0291 N.2     
  25 N25           -5.9615    -0.2822     0.0593 N.3     
  26 C26           -6.8813     0.8625     0.0734 C.3     
  27 C27           -8.3187     0.3616     0.2317 C.3     
  28 C28           -8.6584    -0.5756    -0.9305 C.3     
  29 C29           -7.6563    -1.7332    -0.9519 C.3     
  30 C30           -6.2381    -1.1716    -1.0760 C.3     
  31 N31          -10.0169    -1.1056    -0.7529 N.3     
  32 C32          -10.4214    -1.9156    -1.9097 C.3     
  33 C33          -10.1223    -1.8771     0.4927 C.3     
  34 H34            1.0868     3.0990     0.0080 H       
  35 H35            6.4648    -0.2622    -0.0607 H       
  36 H36            6.3230     3.8876    -0.0375 H       
  37 H37            3.8623     3.8874    -0.0136 H       
  38 H38           -1.2083    -1.6587     0.0052 H       
  39 H39            5.0877    -2.0129    -0.0317 H       
  40 H40            4.0828    -3.4285     1.5343 H       
  41 H41            3.1700    -1.9489     1.9675 H       
  42 H42            2.8670    -1.9180    -1.8952 H       
  43 H43            4.2497    -3.0491    -1.8884 H       
  44 H44            1.6352    -3.8455    -1.4343 H       
  45 H45            3.0522    -4.7020    -0.7499 H       
  46 H46            1.8070    -4.1579     1.2382 H       
  47 H47            1.2956    -2.5677     0.5823 H       
  48 H48           -6.6315     1.5188     0.9070 H       
  49 H49           -6.7898     1.4135    -0.8626 H       
  50 H50           -8.4144    -0.1777     1.1741 H       
  51 H51           -9.0025     1.2104     0.2265 H       
  52 H52           -8.6006    -0.0264    -1.8702 H       
  53 H53           -7.7416    -2.3055    -0.0282 H       
  54 H54           -7.8669    -2.3811    -1.8029 H       
  55 H55           -6.1496    -0.6110    -2.0065 H       
  56 H56           -5.5212    -1.9927    -1.0771 H       
  57 H57           -9.7324    -2.7521    -2.0263 H       
  58 H58          -11.4308    -2.2955    -1.7521 H       
  59 H59          -10.4011    -1.3001    -2.8091 H       
  60 H60           -9.8847    -1.2337     1.3399 H       
  61 H61          -11.1381    -2.2578     0.5994 H       
  62 H62           -9.4225    -2.7122     0.4632 H       
@<TRIPOS>BOND
   1    1    2 ar
   2    1    6 ar
   3    2    3 ar
   4    2   14 1
   5    3    4 ar
   6    4    5 ar
   7    4    7 1
   8    5    6 ar
   9    5    9 1
  10    6   34 1
  11    7    8 1
  12    7   16 1
  13    8    9 ar
  14    8   10 ar
  15    9   13 ar
  16   10   11 ar
  17   10   35 1
  18   11   12 ar
  19   12   13 ar
  20   12   36 1
  21   13   37 1
  22   14   15 1
  23   14   38 1
  24   15   21 2
  25   15   24 1
  26   16   18 1
  27   16   17 1
  28   16   39 1
  29   17   20 1
  30   17   40 1
  31   17   41 1
  32   18   19 1
  33   18   42 1
  34   18   43 1
  35   19   20 1
  36   19   44 1
  37   19   45 1
  38   20   46 1
  39   20   47 1
  40   21   22 1
  41   22   23 1
  42   23   24 2
  43   23   25 1
  44   25   26 1
  45   25   30 1
  46   26   27 1
  47   26   48 1
  48   26   49 1
  49   27   28 1
  50   27   50 1
  51   27   51 1
  52   28   29 1
  53   28   31 1
  54   28   52 1
  55   29   30 1
  56   29   53 1
  57   29   54 1
  58   30   55 1
  59   30   56 1
  60   31   32 1
  61   31   33 1
  62   32   57 1
  63   32   58 1
  64   32   59 1
  65   33   60 1
  66   33   61 1
  67   33   62 1

#	End of record

