#	Name: ASD09790015
#	Creating user name:	WinNT
#	Creation time:	15. 06. 2019 21:24

#	Modifying user name:	WinNT
#	Modification time:	15. 06. 2019 21:24

#	Program:	/corina/corina34_cracker 3.40 0067  02.08.2006

@<TRIPOS>MOLECULE
ASD09790015
  37   40    0    0    0
SMALL
NO_CHARGES


@<TRIPOS>ATOM
   1 C1            -0.2541     2.1069    -0.5399 C.2     
   2 C2            -0.4532     0.6710    -0.2435 C.ar    
   3 C3             0.5839    -0.0306     0.3907 C.ar    
   4 O4             1.7335     0.5848     0.7328 O.3     
   5 C5             2.0771     1.7867     0.2274 C.ar    
   6 C6             1.1276     2.6040    -0.4115 C.ar    
   7 C7            -1.6389     0.0246    -0.5850 C.ar    
   8 C8            -1.7898    -1.3158    -0.2996 C.ar    
   9 C9            -0.7666    -2.0137     0.3234 C.ar    
  10 C10            0.4103    -1.3830     0.6669 C.ar    
  11 C11            1.4927     3.8588    -0.9151 C.ar    
  12 C12            3.3864     2.2341     0.3345 C.ar    
  13 C13            3.7443     3.4736    -0.1732 C.ar    
  14 C14            2.8030     4.2862    -0.7943 C.ar    
  15 O15           -1.1737     2.8317    -0.8741 O.2     
  16 O16            0.5688     4.6490    -1.5172 O.3     
  17 O17            5.0291     3.8981    -0.0633 O.3     
  18 C18            5.2892     4.8232     0.8818 C.2     
  19 C19            6.6370     5.4147     0.9841 C.ar    
  20 O20            4.4137     5.1700     1.6495 O.2     
  21 C21            6.9126     6.3711     1.9676 C.ar    
  22 C22            8.1787     6.9196     2.0563 C.ar    
  23 C23            7.6462     5.0186     0.1033 C.ar    
  24 C24            8.9036     5.5750     0.2047 C.ar    
  25 C25            9.1690     6.5250     1.1760 C.ar    
  26 F26            5.9447     6.7575     2.8273 F       
  27 H27           -2.4350     0.5700    -1.0698 H       
  28 H28           -2.7067    -1.8229    -0.5615 H       
  29 H29           -0.8928    -3.0639     0.5419 H       
  30 H30            1.1987    -1.9398     1.1513 H       
  31 H31            4.1290     1.6146     0.8152 H       
  32 H32            3.0943     5.2512    -1.1820 H       
  33 H33            0.1085     5.2469    -0.9124 H       
  34 H34            8.3943     7.6580     2.8143 H       
  35 H35            7.4421     4.2776    -0.6555 H       
  36 H36            9.6842     5.2687    -0.4760 H       
  37 H37           10.1562     6.9569     1.2494 H       
@<TRIPOS>BOND
   1    1    2 1
   2    1    6 1
   3    1   15 2
   4    2    3 ar
   5    2    7 ar
   6    3    4 1
   7    3   10 ar
   8    4    5 1
   9    5   12 ar
  10    5    6 ar
  11    6   11 ar
  12    7    8 ar
  13    7   27 1
  14    8    9 ar
  15    8   28 1
  16    9   10 ar
  17    9   29 1
  18   10   30 1
  19   11   14 ar
  20   11   16 1
  21   12   13 ar
  22   12   31 1
  23   13   14 ar
  24   13   17 1
  25   14   32 1
  26   16   33 1
  27   17   18 1
  28   18   19 1
  29   18   20 2
  30   19   23 ar
  31   19   21 ar
  32   21   22 ar
  33   21   26 1
  34   22   25 ar
  35   22   34 1
  36   23   24 ar
  37   23   35 1
  38   24   25 ar
  39   24   36 1
  40   25   37 1

#	End of record

