#	Name: ASD05380323
#	Creating user name:	WinNT
#	Creation time:	15. 06. 2019 20:59

#	Modifying user name:	WinNT
#	Modification time:	15. 06. 2019 20:59

#	Program:	/corina/corina34_cracker 3.40 0067  02.08.2006

@<TRIPOS>MOLECULE
ASD05380323
  65   69    0    0    0
SMALL
NO_CHARGES


@<TRIPOS>ATOM
   1 N1            -0.2273     2.2980    -0.9996 N.ar    
   2 C2            -0.0193     0.9980    -0.7890 C.ar    
   3 C3             1.2674     0.4845    -0.9436 C.ar    
   4 C4             2.2881     1.3566    -1.3140 C.ar    
   5 N5             2.0041     2.6409    -1.5065 N.ar    
   6 C6             0.7693     3.0950    -1.3506 C.ar    
   7 N7             3.5876     0.8900    -1.4798 N.am    
   8 C8             3.9954    -0.5233    -1.4813 C.3     
   9 C9             4.6717     1.6544    -1.6700 C.2     
  10 O10            5.8071     0.9596    -1.8019 O.3     
  11 C11            5.5196    -0.4651    -1.6999 C.3     
  12 C12            6.2460    -1.0678    -0.5251 C.ar    
  13 O13            4.6273     2.8675    -1.7189 O.2     
  14 N14            0.5146     4.4392    -1.5605 N.3     
  15 C15           -0.9188     4.7325    -1.4170 C.3     
  16 C16            1.0049     4.8688    -2.8782 C.3     
  17 C17            0.7572     6.3705    -3.0441 C.3     
  18 O18           -0.6364     6.6407    -2.8704 O.3     
  19 C19           -1.1472     6.2355    -1.5975 C.3     
  20 C20           -1.1402     0.1115    -0.3956 C.ar    
  21 C21           -1.9670     0.4374     0.6834 C.ar    
  22 N22           -2.9558    -0.3782     1.0027 N.ar    
  23 C23           -3.1681    -1.4916     0.3154 C.ar    
  24 N24           -2.4060    -1.8349    -0.7137 N.ar    
  25 C25           -1.4009    -1.0691    -1.0979 C.ar    
  26 C26           -1.7333     1.7007     1.4711 C.3     
  27 F27           -2.1332     2.8049     0.7110 F       
  28 F28           -2.4767     1.6559     2.6555 F       
  29 F29           -0.3731     1.8139     1.7783 F       
  30 N30           -4.2133    -2.3182     0.6823 N.pl3   
  31 C31            6.7972    -2.3301    -0.6283 C.ar    
  32 C32            7.4662    -2.8842     0.4536 C.ar    
  33 C33            7.5798    -2.1686     1.6364 C.ar    
  34 C34            7.0267    -0.9063     1.7346 C.ar    
  35 C35            6.3651    -0.3543     0.6535 C.ar    
  36 C36            3.3166    -1.2773    -2.6265 C.3     
  37 C37            3.6941    -2.7583    -2.5565 C.3     
  38 O38            8.0090    -4.1262     0.3547 O.3     
  39 C39            8.6832    -4.6333     1.5081 C.3     
  40 H40            1.4679    -0.5640    -0.7799 H       
  41 H41            3.7611    -0.9904    -0.5247 H       
  42 H42            5.7925    -0.9770    -2.6227 H       
  43 H43           -1.4799     4.1855    -2.1747 H       
  44 H44           -1.2548     4.4298    -0.4252 H       
  45 H45            2.0732     4.6657    -2.9530 H       
  46 H46            0.4746     4.3240    -3.6592 H       
  47 H47            1.3302     6.9187    -2.2962 H       
  48 H48            1.0670     6.6824    -4.0415 H       
  49 H49           -2.2148     6.4499    -1.5488 H       
  50 H50           -0.6296     6.7798    -0.8076 H       
  51 H51           -0.7843    -1.3547    -1.9373 H       
  52 H52           -4.7792    -2.0803     1.4333 H       
  53 H53           -4.3809    -3.1363     0.1888 H       
  54 H54            6.7071    -2.8854    -1.5502 H       
  55 H55            8.0998    -2.5980     2.4800 H       
  56 H56            7.1149    -0.3488     2.6553 H       
  57 H57            5.9335     0.6326     0.7322 H       
  58 H58            2.2351    -1.1735    -2.5392 H       
  59 H59            3.6456    -0.8632    -3.5796 H       
  60 H60            4.7623    -2.8702    -2.7424 H       
  61 H61            3.4548    -3.1479    -1.5670 H       
  62 H62            3.1342    -3.3120    -3.3101 H       
  63 H63            9.5104    -3.9718     1.7655 H       
  64 H64            7.9852    -4.6844     2.3437 H       
  65 H65            9.0682    -5.6305     1.2947 H       
@<TRIPOS>BOND
   1    1    2 ar
   2    1    6 ar
   3    2    3 ar
   4    2   20 1
   5    3    4 ar
   6    3   40 1
   7    4    5 ar
   8    4    7 1
   9    5    6 ar
  10    6   14 1
  11    7    8 1
  12    7    9 am
  13    8   36 1
  14    8   11 1
  15    8   41 1
  16    9   10 1
  17    9   13 2
  18   10   11 1
  19   11   12 1
  20   11   42 1
  21   12   31 ar
  22   12   35 ar
  23   14   15 1
  24   14   16 1
  25   15   19 1
  26   15   43 1
  27   15   44 1
  28   16   17 1
  29   16   45 1
  30   16   46 1
  31   17   18 1
  32   17   47 1
  33   17   48 1
  34   18   19 1
  35   19   49 1
  36   19   50 1
  37   20   21 ar
  38   20   25 ar
  39   21   22 ar
  40   21   26 1
  41   22   23 ar
  42   23   24 ar
  43   23   30 1
  44   24   25 ar
  45   25   51 1
  46   26   27 1
  47   26   28 1
  48   26   29 1
  49   30   52 1
  50   30   53 1
  51   31   32 ar
  52   31   54 1
  53   32   33 ar
  54   32   38 1
  55   33   34 ar
  56   33   55 1
  57   34   35 ar
  58   34   56 1
  59   35   57 1
  60   36   37 1
  61   36   58 1
  62   36   59 1
  63   37   60 1
  64   37   61 1
  65   37   62 1
  66   38   39 1
  67   39   63 1
  68   39   64 1
  69   39   65 1

#	End of record

