#	Name: ASD02560114
#	Creating user name:	WinNT
#	Creation time:	15. 06. 2019 20:24

#	Modifying user name:	WinNT
#	Modification time:	15. 06. 2019 20:24

#	Program:	/corina/corina34_cracker 3.40 0067  02.08.2006

@<TRIPOS>MOLECULE
ASD02560114
  59   63    0    0    0
SMALL
NO_CHARGES


@<TRIPOS>ATOM
   1 N1             0.0922     1.3288     0.3995 N.2     
   2 N2            -0.1361     0.1268     0.2319 N.2     
   3 C3             1.5173     1.6301     0.2121 C.3     
   4 N4             2.1955     0.3111     0.2832 N.3     
   5 C5             1.0925    -0.6062    -0.0997 C.3     
   6 S6             1.1887    -2.1439     0.8578 S.3     
   7 C7             1.0385    -1.5677     2.5713 C.3     
   8 C8             1.1014    -2.7483     3.5057 C.2     
   9 O9             1.2344    -3.8684     3.0596 O.2     
  10 N10            1.0098    -2.5597     4.8371 N.am    
  11 Br11           1.8164     2.4599    -1.5449 Br      
  12 C12            3.2453     0.2392    -0.6313 C.ar    
  13 C13            1.0061    -3.6608     5.7013 C.ar    
  14 C14            0.3286    -3.5930     6.9131 C.ar    
  15 C15            0.3269    -4.6822     7.7634 C.ar    
  16 C16            0.9983    -5.8383     7.4095 C.ar    
  17 C17            1.6730    -5.9084     6.2049 C.ar    
  18 C18            1.6744    -4.8250     5.3476 C.ar    
  19 Cl19          -0.5138    -2.1417     7.3578 Cl      
  20 S20            0.9943    -7.2249     8.4968 S.o2    
  21 O21            2.1456    -7.9922     8.1727 O.2     
  22 O22            0.7422    -6.7135     9.7984 O.2     
  23 C23            4.3241     1.1459    -0.5497 C.ar    
  24 C24            3.2418    -0.7214    -1.6197 C.ar    
  25 C25            4.2853    -0.8019    -2.5373 C.ar    
  26 C26            5.3354     0.0631    -2.4853 C.ar    
  27 C27            5.3800     1.0542    -1.4897 C.ar    
  28 C28            6.4524     1.9604    -1.4137 C.ar    
  29 C29            6.4666     2.9087    -0.4387 C.ar    
  30 C30            5.4278     2.9970     0.4927 C.ar    
  31 C31            4.3686     2.1355     0.4441 C.ar    
  32 C32            6.4527    -0.0462    -3.4907 C.3     
  33 O33           -0.2098    -8.0810     8.1307 O.3     
  34 C34            7.2342    -1.3606    -3.5382 C.3     
  35 C35            6.2569    -1.0106    -4.6622 C.3     
  36 O36            5.4700     3.9550     1.4560 O.3     
  37 C37            6.6004     4.8291     1.4525 C.3     
  38 H38            1.8748     2.2840     1.0075 H       
  39 H39            1.1303    -0.8202    -1.1678 H       
  40 H40            1.8552    -0.8819     2.7969 H       
  41 H41            0.0862    -1.0532     2.6995 H       
  42 H42            0.9464    -1.6609     5.1963 H       
  43 H43           -0.1989    -4.6304     8.7054 H       
  44 H44            2.1965    -6.8127     5.9319 H       
  45 H45            2.2017    -4.8808     4.4068 H       
  46 H46            2.4204    -1.4198    -1.6828 H       
  47 H47            4.2618    -1.5633    -3.3029 H       
  48 H48            7.2618     1.9036    -2.1264 H       
  49 H49            7.2920     3.6029    -0.3831 H       
  50 H50            3.5718     2.2133     1.1690 H       
  51 H51            7.0039     0.8743    -3.6829 H       
  52 H52           -0.3064    -8.8760     8.6726 H       
  53 H53            8.2995    -1.3049    -3.7621 H       
  54 H54            6.9403    -2.1464    -2.8423 H       
  55 H55            5.3201    -1.5661    -4.7057 H       
  56 H56            6.6793    -0.7247    -5.6255 H       
  57 H57            6.5093     5.5440     2.2703 H       
  58 H58            7.5118     4.2450     1.5803 H       
  59 H59            6.6423     5.3652     0.5044 H       
@<TRIPOS>BOND
   1    1    2 2
   2    1    3 1
   3    2    5 1
   4    3    4 1
   5    3   11 1
   6    3   38 1
   7    4    5 1
   8    4   12 1
   9    5    6 1
  10    5   39 1
  11    6    7 1
  12    7    8 1
  13    7   40 1
  14    7   41 1
  15    8    9 2
  16    8   10 am
  17   10   13 1
  18   10   42 1
  19   12   23 ar
  20   12   24 ar
  21   13   14 ar
  22   13   18 ar
  23   14   15 ar
  24   14   19 1
  25   15   16 ar
  26   15   43 1
  27   16   17 ar
  28   16   20 1
  29   17   18 ar
  30   17   44 1
  31   18   45 1
  32   20   21 2
  33   20   22 2
  34   20   33 1
  35   23   27 ar
  36   23   31 ar
  37   24   25 ar
  38   24   46 1
  39   25   26 ar
  40   25   47 1
  41   26   27 ar
  42   26   32 1
  43   27   28 ar
  44   28   29 ar
  45   28   48 1
  46   29   30 ar
  47   29   49 1
  48   30   31 ar
  49   30   36 1
  50   31   50 1
  51   32   34 1
  52   32   35 1
  53   32   51 1
  54   33   52 1
  55   34   35 1
  56   34   53 1
  57   34   54 1
  58   35   55 1
  59   35   56 1
  60   36   37 1
  61   37   57 1
  62   37   58 1
  63   37   59 1

#	End of record

