#	Name: ASD01918190
#	Creating user name:	WinNT
#	Creation time:	15. 06. 2019 20:10

#	Modifying user name:	WinNT
#	Modification time:	15. 06. 2019 20:10

#	Program:	/corina/corina34_cracker 3.40 0067  02.08.2006

@<TRIPOS>MOLECULE
ASD01918190
  40   42    0    0    0
SMALL
NO_CHARGES


@<TRIPOS>ATOM
   1 N1             0.0430     1.3148     0.1333 N.ar    
   2 C2             0.0703    -0.0011     0.1451 C.ar    
   3 C3             1.2722    -0.6877     0.1671 C.ar    
   4 C4             2.4634     0.0238     0.1762 C.ar    
   5 C5             2.4076     1.4066     0.1629 C.ar    
   6 C6             1.1605     2.0346     0.1414 C.ar    
   7 N7             1.0884     3.4001     0.1285 N.2     
   8 N8            -0.0611     3.9851     0.1085 N.2     
   9 C9            -0.1331     5.3466     0.0956 C.ar    
  10 C10           -1.4467     7.3619     0.0668 C.ar    
  11 C11           -1.3793     5.9829     0.0798 C.ar    
  12 C12            1.0393     6.1110     0.1041 C.ar    
  13 C13            0.9649     7.4859     0.0915 C.ar    
  14 C14           -0.2732     8.1182     0.0704 C.ar    
  15 O15           -2.6560     7.9834     0.0513 O.3     
  16 C16           -3.8150     7.1474     0.0494 C.3     
  17 N17           -0.3431     9.5122     0.0572 N.am    
  18 C18            0.6799    10.2336    -0.4424 C.2     
  19 O19            1.6921     9.6744    -0.8163 O.2     
  20 C20            0.5704    11.7078    -0.5359 C.ar    
  21 C21            1.6315    12.4479    -1.0534 C.ar    
  22 N22           -0.5397    12.3123    -0.1310 N.ar    
  23 C23           -0.6773    13.6187    -0.1969 C.ar    
  24 C24            1.5143    13.8263    -1.1345 C.ar    
  25 C25            0.3396    14.4171    -0.6953 C.ar    
  26 H26           -0.8581    -0.5530     0.1380 H       
  27 H27            1.2825    -1.7676     0.1774 H       
  28 H28            3.4131    -0.4902     0.1937 H       
  29 H29            3.3154     1.9916     0.1698 H       
  30 H30           -2.2863     5.3966     0.0774 H       
  31 H31            2.0023     5.6224     0.1208 H       
  32 H32            1.8704     8.0745     0.0983 H       
  33 H33           -4.7108     7.7683     0.0365 H       
  34 H34           -3.8019     6.5101    -0.8347 H       
  35 H35           -3.8164     6.5262     0.9451 H       
  36 H36           -1.1280     9.9618     0.4076 H       
  37 H37            2.5326    11.9543    -1.3862 H       
  38 H38           -1.5956    14.0753     0.1417 H       
  39 H39            2.3197    14.4267    -1.5311 H       
  40 H40            0.2164    15.4889    -0.7454 H       
@<TRIPOS>BOND
   1    1    2 ar
   2    1    6 ar
   3    2    3 ar
   4    2   26 1
   5    3    4 ar
   6    3   27 1
   7    4    5 ar
   8    4   28 1
   9    5    6 ar
  10    5   29 1
  11    6    7 1
  12    7    8 2
  13    8    9 1
  14    9   12 ar
  15    9   11 ar
  16   10   11 ar
  17   10   14 ar
  18   10   15 1
  19   11   30 1
  20   12   13 ar
  21   12   31 1
  22   13   14 ar
  23   13   32 1
  24   14   17 1
  25   15   16 1
  26   16   33 1
  27   16   34 1
  28   16   35 1
  29   17   18 am
  30   17   36 1
  31   18   19 2
  32   18   20 1
  33   20   21 ar
  34   20   22 ar
  35   21   24 ar
  36   21   37 1
  37   22   23 ar
  38   23   25 ar
  39   23   38 1
  40   24   25 ar
  41   24   39 1
  42   25   40 1

#	End of record

