#	Name: ASD01903036
#	Creating user name:	WinNT
#	Creation time:	15. 06. 2019 19:54

#	Modifying user name:	WinNT
#	Modification time:	15. 06. 2019 19:54

#	Program:	/corina/corina34_cracker 3.40 0067  02.08.2006

@<TRIPOS>MOLECULE
ASD01903036
  36   38    0    0    0
SMALL
NO_CHARGES


@<TRIPOS>ATOM
   1 C1             0.1107     1.3524    -0.5668 C.ar    
   2 C2             0.0910     0.0001    -0.2855 C.ar    
   3 C3             1.2786    -0.7191    -0.2501 C.ar    
   4 C4             2.4845    -0.0800    -0.4970 C.ar    
   5 C5             2.5052     1.2721    -0.7784 C.ar    
   6 C6             1.3185     1.9922    -0.8141 C.ar    
   7 N7             1.3395     3.3627    -1.0988 N.am    
   8 C8             2.2430     3.8566    -1.9684 C.2     
   9 O9             3.0903     3.1268    -2.4443 O.2     
  10 C10            2.2032     5.2889    -2.3441 C.ar    
  11 O11            1.2591    -2.0500     0.0272 O.3     
  12 N12            1.2755     6.0810    -1.8210 N.ar    
  13 C13            1.2055     7.3580    -2.1281 C.ar    
  14 C14            2.1044     7.9267    -3.0160 C.ar    
  15 C15            3.0898     7.1353    -3.5858 C.ar    
  16 C16            3.1435     5.7946    -3.2393 C.ar    
  17 Cl17          -1.4181    -0.8002     0.0243 Cl      
  18 C18            2.4492    -2.7003     0.1185 C.ar    
  19 C19            3.1129    -2.7663     1.3350 C.ar    
  20 C20            4.3224    -3.4275     1.4262 C.ar    
  21 C21            4.8722    -4.0243     0.3043 C.ar    
  22 C22            4.2112    -3.9589    -0.9106 C.ar    
  23 C23            2.9986    -3.3037    -1.0035 C.ar    
  24 F24            6.0551    -4.6706     0.3950 F       
  25 H25           -0.8130     1.9110    -0.5988 H       
  26 H26            3.4077    -0.6397    -0.4690 H       
  27 H27            3.4445     1.7692    -0.9706 H       
  28 H28            0.7037     3.9569    -0.6701 H       
  29 H29            0.4366     7.9716    -1.6824 H       
  30 H30            2.0378     8.9762    -3.2620 H       
  31 H31            3.8020     7.5551    -4.2808 H       
  32 H32            3.8980     5.1490    -3.6639 H       
  33 H33            2.6845    -2.3006     2.2102 H       
  34 H34            4.8395    -3.4787     2.3730 H       
  35 H35            4.6414    -4.4246    -1.7849 H       
  36 H36            2.4832    -3.2529    -1.9512 H       
@<TRIPOS>BOND
   1    1    2 ar
   2    1    6 ar
   3    1   25 1
   4    2    3 ar
   5    2   17 1
   6    3    4 ar
   7    3   11 1
   8    4    5 ar
   9    4   26 1
  10    5    6 ar
  11    5   27 1
  12    6    7 1
  13    7    8 am
  14    7   28 1
  15    8    9 2
  16    8   10 1
  17   10   12 ar
  18   10   16 ar
  19   11   18 1
  20   12   13 ar
  21   13   14 ar
  22   13   29 1
  23   14   15 ar
  24   14   30 1
  25   15   16 ar
  26   15   31 1
  27   16   32 1
  28   18   19 ar
  29   18   23 ar
  30   19   20 ar
  31   19   33 1
  32   20   21 ar
  33   20   34 1
  34   21   22 ar
  35   21   24 1
  36   22   23 ar
  37   22   35 1
  38   23   36 1

#	End of record

