#	Name: ASD05143052
#	Creating user name:	WinNT
#	Creation time:	15. 06. 2019 20:57

#	Modifying user name:	WinNT
#	Modification time:	15. 06. 2019 20:57

#	Program:	/corina/corina34_cracker 3.40 0067  02.08.2006

@<TRIPOS>MOLECULE
ASD05143052
 146  150    0    0    0
SMALL
NO_CHARGES


@<TRIPOS>ATOM
   1 C1             2.6237     1.9046     0.9021 C.2     
   2 C2             3.6060     0.7748     1.0750 C.3     
   3 N3             3.0503     3.1085     0.4718 N.am    
   4 O4             1.4486     1.7290     1.1454 O.2     
   5 C5             2.0954     4.2067     0.3037 C.3     
   6 C6             1.0305     3.8047    -0.7188 C.3     
   7 C7             1.4355     4.5054     1.6252 C.2     
   8 C8             1.6953     3.5447    -2.0721 C.3     
   9 C9             0.6478     3.0394    -3.0662 C.3     
  10 N10            1.3029     2.6835    -4.3273 N.pl3   
  11 C11            0.5575     2.2017    -5.3772 C.2     
  12 N12            1.1723     1.8678    -6.5607 N.pl3   
  13 N13           -0.7322     2.0615    -5.2505 N.2     
  14 O14            1.5553     3.7316     2.5514 O.2     
  15 N15            0.7122     5.6323     1.7778 N.am    
  16 C16            0.1668     5.9789     3.0893 C.3     
  17 C17            1.1633     6.9023     3.7987 C.3     
  18 C18            1.3613     6.4499     5.2471 C.3     
  19 C19            2.4749     7.2490     5.8723 C.2     
  20 O20            3.4968     7.4679     5.2533 O.2     
  21 N21            2.3132     7.7215     7.1449 N.am    
  22 C22            3.4410     8.5285     7.6668 C.3     
  23 C23            2.9207     9.4336     8.7867 C.3     
  24 C24            2.5711    10.8077     8.2157 C.3     
  25 C25            1.8755    11.6490     9.2891 C.3     
  26 N26            1.1288    12.7389     8.6350 N.am    
  27 C27            2.9121    12.2445    10.2090 C.2     
  28 N28            3.4509    11.4958    11.1916 N.am    
  29 O29            3.2608    13.3971    10.0643 O.2     
  30 C30           -0.2224    12.7696     8.7991 C.2     
  31 O31           -0.8063    11.8620     9.3462 O.2     
  32 C32           -0.9842    13.9719     8.3000 C.3     
  33 N33           -2.3516    13.5694     7.9070 N.am    
  34 C34           -1.0601    15.0210     9.4141 C.3     
  35 C35           -2.5036    13.1682     6.6089 C.2     
  36 O36           -1.5292    13.0158     5.8989 O.2     
  37 C37           -3.8832    12.9552     6.0471 C.3     
  38 N38           -3.8117    12.2611     4.7453 N.am    
  39 C39           -4.7423    12.1525     7.0231 C.3     
  40 C40           -3.1045    11.1091     4.6971 C.2     
  41 O41           -2.5674    10.6757     5.6971 O.2     
  42 C42           -2.9379    10.3246     3.4120 C.3     
  43 C43           -1.7120    16.2715     8.8830 C.2     
  44 C44           -3.1503    16.5371     8.8014 C.ar    
  45 C45           -3.2772    17.8218     8.2427 C.ar    
  46 N46           -2.0040    18.2901     8.0075 N.pl3   
  47 C47           -1.0848    17.3558     8.4003 C.2     
  48 C48           -4.2922    15.8113     9.1461 C.ar    
  49 C49           -5.5289    16.3537     8.9386 C.ar    
  50 C50           -5.6596    17.6211     8.3871 C.ar    
  51 C51           -4.5464    18.3547     8.0406 C.ar    
  52 N52           -3.6791     9.0560     3.5832 N.am    
  53 C53           -1.4373    10.0965     3.2135 C.3     
  54 C54           -0.7598    11.4158     2.9461 C.ar    
  55 C55           -0.1188    12.0819     3.9756 C.ar    
  56 C56            0.5038    13.2897     3.7378 C.ar    
  57 C57            0.4861    13.8398     2.4545 C.ar    
  58 C58           -0.1626    13.1622     1.4202 C.ar    
  59 C59           -0.7766    11.9526     1.6710 C.ar    
  60 C60           -1.1546     6.6842     2.9741 C.2     
  61 O61           -1.6284     7.1727     3.9953 O.2     
  62 C62           -6.1715    12.0575     6.4853 C.3     
  63 C63           -7.0318    11.2538     7.4624 C.3     
  64 N64           -8.4003    11.1629     6.9475 N.pl3   
  65 C65           -9.3593    10.4829     7.6604 C.2     
  66 N66          -10.6436    10.3976     7.1771 N.pl3   
  67 N67           -9.0509     9.9192     8.7944 N.2     
  68 N68           -1.8511     6.7906     1.8300 N.am    
  69 C69           -2.8081     7.8468     1.5058 C.3     
  70 C70           -3.2042     5.9248     0.0347 C.3     
  71 C71           -3.6210     7.3898     0.2740 C.3     
  72 C72           -3.7419     8.0952     2.6485 C.2     
  73 O73           -4.6927     7.3226     2.7447 O.2     
  74 C74           -1.8331     5.8306     0.7225 C.3     
  75 C75            1.1299    15.0935     2.2005 C.1     
  76 N76            1.6406    16.0880     1.9989 N.1     
  77 O77           -3.0798     5.6568    -1.3641 O.3     
  78 H78            4.6050     1.1176     0.8059 H       
  79 H79            3.6023     0.4461     2.1143 H       
  80 H80            3.3210    -0.0563     0.4300 H       
  81 H81            3.9895     3.2477     0.2733 H       
  82 H82            2.6208     5.0943    -0.0489 H       
  83 H83            0.5266     2.8990    -0.3815 H       
  84 H84            0.3023     4.6093    -0.8204 H       
  85 H85            2.1338     4.4702    -2.4453 H       
  86 H86            2.4768     2.7939    -1.9547 H       
  87 H87            0.1503     2.1611    -2.6547 H       
  88 H88           -0.0885     3.8224    -3.2475 H       
  89 H89            2.2627     2.7879    -4.4215 H       
  90 H90            2.1320     1.9721    -6.6549 H       
  91 H91            0.6463     1.5279    -7.3014 H       
  92 H92           -1.2582     1.7216    -5.9913 H       
  93 H93            0.5535     6.2135     1.0176 H       
  94 H94            0.0468     5.0734     3.6851 H       
  95 H95            2.1180     6.8679     3.2714 H       
  96 H96            0.7779     7.9214     3.7836 H       
  97 H97            0.4407     6.6101     5.8070 H       
  98 H98            1.6169     5.3916     5.2671 H       
  99 H99            1.5183     7.5387     7.6693 H       
 100 H100           4.2090     7.8651     8.0631 H       
 101 H101           3.8565     9.1388     6.8668 H       
 102 H102           2.0323     8.9858     9.2321 H       
 103 H103           3.6942     9.5380     9.5478 H       
 104 H104           3.4842    11.3105     7.8961 H       
 105 H105           1.9043    10.6884     7.3617 H       
 106 H106           1.1947    11.0227     9.8624 H       
 107 H107           1.5870    13.4156     8.1086 H       
 108 H108           3.1720    10.5740    11.3074 H       
 109 H109           4.1175    11.8788    11.7832 H       
 110 H110          -0.4665    14.4002     7.4399 H       
 111 H111          -3.0843    13.6054     8.5404 H       
 112 H112          -1.6487    14.6284    10.2433 H       
 113 H113          -0.0539    15.2553     9.7617 H       
 114 H114          -4.3430    13.9377     5.8871 H       
 115 H115          -4.2531    12.6236     3.9547 H       
 116 H116          -4.3279    11.1503     7.1324 H       
 117 H117          -4.7514    12.6498     7.9930 H       
 118 H118          -3.3428    10.8966     2.5817 H       
 119 H119          -1.7904    19.1551     7.6239 H       
 120 H120          -0.0135    17.4705     8.3259 H       
 121 H121          -4.1983    14.8245     9.5749 H       
 122 H122          -6.4119    15.7919     9.2054 H       
 123 H123          -6.6439    18.0363     8.2288 H       
 124 H124          -4.6585    19.3399     7.6125 H       
 125 H125          -4.1618     8.9065     4.4383 H       
 126 H126          -1.0159     9.6474     4.1128 H       
 127 H127          -1.2802     9.4291     2.3661 H       
 128 H128          -0.1063    11.6555     4.9678 H       
 129 H129           1.0034    13.8088     4.5424 H       
 130 H130          -0.1803    13.5823     0.4255 H       
 131 H131          -1.2787    11.4275     0.8719 H       
 132 H132          -6.5859    13.0598     6.3759 H       
 133 H133          -6.1625    11.5603     5.5153 H       
 134 H134          -6.6174    10.2516     7.5718 H       
 135 H135          -7.0409    11.7511     8.4324 H       
 136 H136          -8.6298    11.5824     6.1036 H       
 137 H137         -10.8731    10.8171     6.3332 H       
 138 H138         -11.3202     9.9179     7.6801 H       
 139 H139          -9.7275     9.4395     9.2974 H       
 140 H140          -2.2719     8.7570     1.2189 H       
 141 H141          -3.9126     5.2401     0.4971 H       
 142 H142          -4.6894     7.4582     0.4702 H       
 143 H143          -3.3570     7.9960    -0.5933 H       
 144 H144          -1.0506     6.0959     0.0120 H       
 145 H145          -1.6827     4.8215     1.1024 H       
 146 H146          -2.8193     4.7484    -1.5689 H       
@<TRIPOS>BOND
   1    1    2 1
   2    1    3 am
   3    1    4 2
   4    2   78 1
   5    2   79 1
   6    2   80 1
   7    3    5 1
   8    3   81 1
   9    5    6 1
  10    5    7 1
  11    5   82 1
  12    6    8 1
  13    6   83 1
  14    6   84 1
  15    7   14 2
  16    7   15 am
  17    8    9 1
  18    8   85 1
  19    8   86 1
  20    9   10 1
  21    9   87 1
  22    9   88 1
  23   10   11 1
  24   10   89 1
  25   11   12 1
  26   11   13 2
  27   12   90 1
  28   12   91 1
  29   13   92 1
  30   15   16 1
  31   15   93 1
  32   16   17 1
  33   16   60 1
  34   16   94 1
  35   17   18 1
  36   17   95 1
  37   17   96 1
  38   18   19 1
  39   18   97 1
  40   18   98 1
  41   19   20 2
  42   19   21 am
  43   21   22 1
  44   21   99 1
  45   22   23 1
  46   22  100 1
  47   22  101 1
  48   23   24 1
  49   23  102 1
  50   23  103 1
  51   24   25 1
  52   24  104 1
  53   24  105 1
  54   25   26 1
  55   25   27 1
  56   25  106 1
  57   26   30 am
  58   26  107 1
  59   27   28 am
  60   27   29 2
  61   28  108 1
  62   28  109 1
  63   30   31 2
  64   30   32 1
  65   32   33 1
  66   32   34 1
  67   32  110 1
  68   33   35 am
  69   33  111 1
  70   34   43 1
  71   34  112 1
  72   34  113 1
  73   35   36 2
  74   35   37 1
  75   37   38 1
  76   37   39 1
  77   37  114 1
  78   38   40 am
  79   38  115 1
  80   39   62 1
  81   39  116 1
  82   39  117 1
  83   40   41 2
  84   40   42 1
  85   42   52 1
  86   42   53 1
  87   42  118 1
  88   43   44 1
  89   43   47 2
  90   44   45 ar
  91   44   48 ar
  92   45   46 1
  93   45   51 ar
  94   46   47 1
  95   46  119 1
  96   47  120 1
  97   48   49 ar
  98   48  121 1
  99   49   50 ar
 100   49  122 1
 101   50   51 ar
 102   50  123 1
 103   51  124 1
 104   52   72 am
 105   52  125 1
 106   53   54 1
 107   53  126 1
 108   53  127 1
 109   54   55 ar
 110   54   59 ar
 111   55   56 ar
 112   55  128 1
 113   56   57 ar
 114   56  129 1
 115   57   58 ar
 116   57   75 1
 117   58   59 ar
 118   58  130 1
 119   59  131 1
 120   60   61 2
 121   60   68 am
 122   62   63 1
 123   62  132 1
 124   62  133 1
 125   63   64 1
 126   63  134 1
 127   63  135 1
 128   64   65 1
 129   64  136 1
 130   65   66 1
 131   65   67 2
 132   66  137 1
 133   66  138 1
 134   67  139 1
 135   68   69 1
 136   68   74 1
 137   69   71 1
 138   69   72 1
 139   69  140 1
 140   70   71 1
 141   70   77 1
 142   70   74 1
 143   70  141 1
 144   71  142 1
 145   71  143 1
 146   72   73 2
 147   74  144 1
 148   74  145 1
 149   75   76 3
 150   77  146 1

#	End of record

