#	Name: ASD01820195
#	Creating user name:	WinNT
#	Creation time:	15. 06. 2019 19:36

#	Modifying user name:	WinNT
#	Modification time:	15. 06. 2019 19:36

#	Program:	/corina/corina34_cracker 3.40 0067  02.08.2006

@<TRIPOS>MOLECULE
ASD01820195
 102  107    0    0    0
SMALL
NO_CHARGES


@<TRIPOS>ATOM
   1 N1             1.0977     1.0417     1.4246 N.am    
   2 C2             0.9720    -0.1782     0.8683 C.2     
   3 C3             2.3261     1.8030     1.1846 C.3     
   4 C4             2.1562     2.6633    -0.0692 C.3     
   5 C5             3.4391     3.4585    -0.3197 C.3     
   6 N6             3.5160     3.8294    -1.7391 N.4     
   7 C7             4.6480     4.7424    -1.9460 C.3     
   8 C8             4.7281     5.1287    -3.4242 C.3     
   9 C9             5.9072     6.0796    -3.6397 C.3     
  10 C10            5.9872     6.4660    -5.1180 C.3     
  11 C11            7.1663     7.4169    -5.3335 C.3     
  12 C12            7.2463     7.8032    -6.8117 C.3     
  13 N13            8.3784     8.7162    -7.0187 N.4     
  14 C14            8.4552     9.0872    -8.4380 C.3     
  15 C15            9.6343    10.0381    -8.6535 C.3     
  16 N16           10.8433    11.3349   -10.3381 N.am    
  17 O17            1.8710    -0.6256     0.1823 O.2     
  18 C18            9.7143    10.4244   -10.1317 C.3     
  19 O19            9.5242    13.0788    -9.9643 O.2     
  20 C20            8.1873     9.9251    -6.2062 C.3     
  21 C21            9.6247     8.0494    -6.6187 C.3     
  22 C22            3.7070     2.6205    -2.5515 C.3     
  23 C23            2.2697     4.4963    -2.1391 C.3     
  24 C24           -0.2460    -0.9725     1.0862 C.ar    
  25 C25           -1.2756    -0.4294     1.8881 C.ar    
  26 C26           -1.1105     0.8542     2.4567 C.ar    
  27 C27            0.1340     1.5899     2.1887 C.2     
  28 O28            0.2978     2.6958     2.6674 O.2     
  29 C29           -0.4172    -2.2328     0.5332 C.ar    
  30 C30           -1.5874    -2.9454     0.7683 C.ar    
  31 C31           -2.5921    -2.4364     1.5400 C.ar    
  32 C32           -2.4583    -1.1621     2.1187 C.ar    
  33 C33           -3.4640    -0.5946     2.9208 C.ar    
  34 C34           -3.2880     0.6468     3.4609 C.ar    
  35 C35           -2.1264     1.3784     3.2419 C.ar    
  36 C36           12.0501    10.8150   -10.6323 C.2     
  37 C37           13.2071    11.6967   -10.8463 C.ar    
  38 C38           13.0245    13.0941   -10.7372 C.ar    
  39 C39           11.7439    13.6060   -10.4274 C.ar    
  40 C40           10.6345    12.6610   -10.2319 C.2     
  41 C41           14.4673    11.2041   -11.1511 C.ar    
  42 C42           15.5306    12.0784   -11.3446 C.ar    
  43 C43           15.3726    13.4306   -11.2427 C.ar    
  44 C44           14.1114    13.9705   -10.9354 C.ar    
  45 C45           13.8977    15.3553   -10.8199 C.ar    
  46 C46           12.6540    15.8322   -10.5201 C.ar    
  47 C47           11.5749    14.9785   -10.3221 C.ar    
  48 O48           12.1838     9.6095   -10.7211 O.2     
  49 C49            1.8722     1.7613    -1.2719 C.3     
  50 C50            0.9876     3.6304     0.1304 C.3     
  51 H51            2.5285     2.4456     2.0415 H       
  52 H52            3.1587     1.1141     1.0425 H       
  53 H53            3.4326     4.3608     0.2918 H       
  54 H54            4.3026     2.8475    -0.0566 H       
  55 H55            4.5063     5.6394    -1.3432 H       
  56 H56            5.5728     4.2476    -1.6492 H       
  57 H57            4.8698     4.2317    -4.0270 H       
  58 H58            3.8033     5.6236    -3.7210 H       
  59 H59            5.7654     6.9767    -3.0369 H       
  60 H60            6.8319     5.5848    -3.3429 H       
  61 H61            6.1289     5.5690    -5.7208 H       
  62 H62            5.0624     6.9608    -5.4148 H       
  63 H63            7.0245     8.3139    -4.7307 H       
  64 H64            8.0910     6.9221    -5.0367 H       
  65 H65            7.3881     6.9062    -7.4146 H       
  66 H66            6.3215     8.2980    -7.1085 H       
  67 H67            8.5970     8.1902    -9.0408 H       
  68 H68            7.5304     9.5820    -8.7348 H       
  69 H69            9.4925    10.9351    -8.0507 H       
  70 H70           10.5590     9.5433    -8.3567 H       
  71 H71            9.8561     9.5274   -10.7345 H       
  72 H72            8.7895    10.9192   -10.4285 H       
  73 H73            8.1303     9.6499    -5.1531 H       
  74 H74            9.0273    10.6026    -6.3598 H       
  75 H75            7.2625    10.4199    -6.5030 H       
  76 H76            9.7664     7.1524    -7.2215 H       
  77 H77           10.4647     8.7268    -6.7722 H       
  78 H78            9.5677     7.7741    -5.5655 H       
  79 H79            2.7354     2.2161    -2.8352 H       
  80 H80            4.2723     2.8715    -3.4490 H       
  81 H81            4.2552     1.8769    -1.9730 H       
  82 H82            1.9078     5.1136    -1.3168 H       
  83 H83            2.4570     5.1245    -3.0099 H       
  84 H84            1.5194     3.7455    -2.3873 H       
  85 H85            0.3603    -2.6615    -0.0817 H       
  86 H86           -1.7048    -3.9252     0.3295 H       
  87 H87           -3.4903    -3.0127     1.7054 H       
  88 H88           -4.3763    -1.1409     3.1094 H       
  89 H89           -4.0695     1.0701     4.0744 H       
  90 H90           -2.0156     2.3581     3.6828 H       
  91 H91           14.6229    10.1389   -11.2380 H       
  92 H92           16.5055    11.6781   -11.5810 H       
  93 H93           16.2170    14.0859   -11.3979 H       
  94 H94           14.7178    16.0423   -10.9681 H       
  95 H95           12.5051    16.8984   -10.4343 H       
  96 H96           10.6025    15.3851   -10.0860 H       
  97 H97            1.0699     1.0665    -1.0235 H       
  98 H98            1.5723     2.3735    -2.1224 H       
  99 H99            2.7719     1.2013    -1.5266 H       
 100 H100           1.2732     4.4031     0.8441 H       
 101 H101           0.7319     4.0929    -0.8229 H       
 102 H102           0.1250     3.0841     0.5121 H       
@<TRIPOS>BOND
   1    1    2 am
   2    1    3 1
   3    1   27 am
   4    2   17 2
   5    2   24 1
   6    3    4 1
   7    3   51 1
   8    3   52 1
   9    4    5 1
  10    4   49 1
  11    4   50 1
  12    5    6 1
  13    5   53 1
  14    5   54 1
  15    6    7 1
  16    6   22 1
  17    6   23 1
  18    7    8 1
  19    7   55 1
  20    7   56 1
  21    8    9 1
  22    8   57 1
  23    8   58 1
  24    9   10 1
  25    9   59 1
  26    9   60 1
  27   10   11 1
  28   10   61 1
  29   10   62 1
  30   11   12 1
  31   11   63 1
  32   11   64 1
  33   12   13 1
  34   12   65 1
  35   12   66 1
  36   13   14 1
  37   13   20 1
  38   13   21 1
  39   14   15 1
  40   14   67 1
  41   14   68 1
  42   15   18 1
  43   15   69 1
  44   15   70 1
  45   16   36 am
  46   16   18 1
  47   16   40 am
  48   18   71 1
  49   18   72 1
  50   19   40 2
  51   20   73 1
  52   20   74 1
  53   20   75 1
  54   21   76 1
  55   21   77 1
  56   21   78 1
  57   22   79 1
  58   22   80 1
  59   22   81 1
  60   23   82 1
  61   23   83 1
  62   23   84 1
  63   24   25 ar
  64   24   29 ar
  65   25   26 ar
  66   25   32 ar
  67   26   27 1
  68   26   35 ar
  69   27   28 2
  70   29   30 ar
  71   29   85 1
  72   30   31 ar
  73   30   86 1
  74   31   32 ar
  75   31   87 1
  76   32   33 ar
  77   33   34 ar
  78   33   88 1
  79   34   35 ar
  80   34   89 1
  81   35   90 1
  82   36   37 1
  83   36   48 2
  84   37   38 ar
  85   37   41 ar
  86   38   39 ar
  87   38   44 ar
  88   39   40 1
  89   39   47 ar
  90   41   42 ar
  91   41   91 1
  92   42   43 ar
  93   42   92 1
  94   43   44 ar
  95   43   93 1
  96   44   45 ar
  97   45   46 ar
  98   45   94 1
  99   46   47 ar
 100   46   95 1
 101   47   96 1
 102   49   97 1
 103   49   98 1
 104   49   99 1
 105   50  100 1
 106   50  101 1
 107   50  102 1

#	End of record

