#	Name: ASD01881255
#	Creating user name:	WinNT
#	Creation time:	15. 06. 2019 19:42

#	Modifying user name:	WinNT
#	Modification time:	15. 06. 2019 19:42

#	Program:	/corina/corina34_cracker 3.40 0067  02.08.2006

@<TRIPOS>MOLECULE
ASD01881255
  52   54    0    0    0
SMALL
NO_CHARGES


@<TRIPOS>ATOM
   1 C1            -0.0184     1.5028     0.0103 C.2     
   2 C2             0.0021    -0.0041     0.0020 C.3     
   3 C3             1.4513    -0.4944    -0.0145 C.3     
   4 C4             1.4720    -2.0242    -0.0229 C.3     
   5 O5             1.0237     2.1235     0.0037 O.2     
   6 C6            -1.3000     2.2197     0.0203 C.ar    
   7 C7            -1.3218     3.6199     0.0280 C.ar    
   8 C8            -2.5211     4.2844     0.0373 C.ar    
   9 C9            -3.7146     3.5704     0.0392 C.ar    
  10 C10           -3.6985     2.1797     0.0315 C.ar    
  11 C11           -2.5046     1.5055     0.0163 C.ar    
  12 O12           -4.8986     4.2326     0.0489 O.3     
  13 C13           -6.0863     3.4381     0.0502 C.3     
  14 C14           -7.8607     4.7656    -1.1225 C.ar    
  15 C15           -7.2938     4.3398     0.0614 C.ar    
  16 C16           -7.8562     4.7567     1.2709 C.ar    
  17 C17           -8.9758     5.5924     1.2252 C.ar    
  18 C18           -9.4790     5.9707    -0.0024 C.ar    
  19 N19           -8.9179     5.5545    -1.1217 N.ar    
  20 C20           -7.2809     4.3238     2.5681 C.ar    
  21 C21           -7.0004     5.2643     3.5574 C.ar    
  22 C22           -6.4653     4.8560     4.7623 C.ar    
  23 C23           -6.2068     3.5161     4.9886 C.ar    
  24 C24           -6.4828     2.5783     4.0099 C.ar    
  25 C25           -7.0242     2.9746     2.8039 C.ar    
  26 C26          -10.6859     6.8708    -0.0658 C.3     
  27 C27           -7.2603     4.3284    -2.4338 C.3     
  28 H28           -0.4983    -0.3791     0.8948 H       
  29 H29           -0.5153    -0.3696    -0.8850 H       
  30 H30            1.9516    -0.1193    -0.9073 H       
  31 H31            1.9686    -0.1289     0.8726 H       
  32 H32            2.5045    -2.3735    -0.0346 H       
  33 H33            0.9717    -2.3993     0.8699 H       
  34 H34            0.9547    -2.3897    -0.9099 H       
  35 H35           -0.3956     4.1753     0.0269 H       
  36 H36           -2.5390     5.3643     0.0437 H       
  37 H37           -4.6281     1.6298     0.0333 H       
  38 H38           -2.4932     0.4256     0.0059 H       
  39 H39           -6.1071     2.8142    -0.8433 H       
  40 H40           -6.0982     2.8039     0.9366 H       
  41 H41           -9.4404     5.9365     2.1374 H       
  42 H42           -7.2012     6.3108     3.3815 H       
  43 H43           -6.2476     5.5840     5.5297 H       
  44 H44           -5.7876     3.2010     5.9327 H       
  45 H45           -6.2783     1.5335     4.1917 H       
  46 H46           -7.2441     2.2409     2.0424 H       
  47 H47          -10.3626     7.9117    -0.0790 H       
  48 H48          -11.2530     6.6550    -0.9713 H       
  49 H49          -11.3152     6.6969     0.8071 H       
  50 H50           -7.7268     3.3969    -2.7544 H       
  51 H51           -7.4314     5.0982    -3.1863 H       
  52 H52           -6.1885     4.1740    -2.3091 H       
@<TRIPOS>BOND
   1    1    2 1
   2    1    5 2
   3    1    6 1
   4    2    3 1
   5    2   28 1
   6    2   29 1
   7    3    4 1
   8    3   30 1
   9    3   31 1
  10    4   32 1
  11    4   33 1
  12    4   34 1
  13    6    7 ar
  14    6   11 ar
  15    7    8 ar
  16    7   35 1
  17    8    9 ar
  18    8   36 1
  19    9   10 ar
  20    9   12 1
  21   10   11 ar
  22   10   37 1
  23   11   38 1
  24   12   13 1
  25   13   15 1
  26   13   39 1
  27   13   40 1
  28   14   15 ar
  29   14   19 ar
  30   14   27 1
  31   15   16 ar
  32   16   17 ar
  33   16   20 1
  34   17   18 ar
  35   17   41 1
  36   18   19 ar
  37   18   26 1
  38   20   21 ar
  39   20   25 ar
  40   21   22 ar
  41   21   42 1
  42   22   23 ar
  43   22   43 1
  44   23   24 ar
  45   23   44 1
  46   24   25 ar
  47   24   45 1
  48   25   46 1
  49   26   47 1
  50   26   48 1
  51   26   49 1
  52   27   50 1
  53   27   51 1
  54   27   52 1

#	End of record

