#	Name: ASD01917676
#	Creating user name:	WinNT
#	Creation time:	15. 06. 2019 20:09

#	Modifying user name:	WinNT
#	Modification time:	15. 06. 2019 20:09

#	Program:	/corina/corina34_cracker 3.40 0067  02.08.2006

@<TRIPOS>MOLECULE
ASD01917676
  42   45    0    0    0
SMALL
NO_CHARGES


@<TRIPOS>ATOM
   1 C1             0.7389     0.4500    -1.1699 C.3     
   2 N2             0.0021    -0.0041     0.0020 N.am    
   3 C3             0.4052     0.1753     1.2617 C.2     
   4 O4             1.5581     0.7936     1.5673 O.3     
   5 C5             2.1076     1.6733     0.5496 C.3     
   6 C6             2.1502     0.9344    -0.7838 C.3     
   7 O7            -0.2962    -0.2353     2.1649 O.2     
   8 C8            -1.2040    -0.6694    -0.2060 C.ar    
   9 N9            -1.2248    -1.9933    -0.2198 N.ar    
  10 C10           -2.3396    -2.6680    -0.4126 C.ar    
  11 C11           -3.5495    -2.0003    -0.6114 C.ar    
  12 C12           -3.5616    -0.5971    -0.6025 C.ar    
  13 C13           -2.3706     0.0672    -0.3907 C.ar    
  14 C14           -4.7598    -2.7363    -0.8216 C.1     
  15 C15           -5.7521    -3.3397    -0.9940 C.1     
  16 C16           -6.9623    -4.0756    -1.2042 C.ar    
  17 C17           -8.1690    -3.4003    -1.4024 C.ar    
  18 C18           -9.3325    -4.1171    -1.6051 C.ar    
  19 C19           -9.3046    -5.5025    -1.6117 C.ar    
  20 C20           -8.1134    -6.1782    -1.4161 C.ar    
  21 C21           -6.9410    -5.4750    -1.2180 C.ar    
  22 C22            2.9532    -0.3766    -0.6371 C.3     
  23 C23            2.4007    -1.2860    -1.7546 C.3     
  24 C24            0.9932    -0.7634    -2.0915 C.3     
  25 H25            2.5689     1.5700    -1.5640 H       
  26 H26            0.1899     1.2343    -1.6909 H       
  27 F27          -10.5004    -3.4657    -1.7969 F       
  28 F28           -5.7785    -6.1365    -1.0276 F       
  29 H29            1.4783     2.5582     0.4551 H       
  30 H30            3.1168     1.9720     0.8328 H       
  31 H31           -2.3173    -3.7478    -0.4172 H       
  32 H32           -4.4808    -0.0506    -0.7535 H       
  33 H33           -2.3426     1.1468    -0.3774 H       
  34 H34           -8.1923    -2.3206    -1.3968 H       
  35 H35          -10.2175    -6.0576    -1.7699 H       
  36 H36           -8.0993    -7.2581    -1.4225 H       
  37 H37            4.0168    -0.1912    -0.7870 H       
  38 H38            2.7772    -0.8242     0.3411 H       
  39 H39            3.0412    -1.2274    -2.6345 H       
  40 H40            2.3421    -2.3161    -1.4029 H       
  41 H41            0.2515    -1.5390    -1.9005 H       
  42 H42            0.9500    -0.4543    -3.1359 H       
@<TRIPOS>BOND
   1    1    2 1
   2    1    6 1
   3    1   26 1
   4    1   24 1
   5    2    3 am
   6    2    8 1
   7    3    4 1
   8    3    7 2
   9    4    5 1
  10    5    6 1
  11    5   29 1
  12    5   30 1
  13    6   22 1
  14    6   25 1
  15    8    9 ar
  16    8   13 ar
  17    9   10 ar
  18   10   11 ar
  19   10   31 1
  20   11   12 ar
  21   11   14 1
  22   12   13 ar
  23   12   32 1
  24   13   33 1
  25   14   15 3
  26   15   16 1
  27   16   17 ar
  28   16   21 ar
  29   17   18 ar
  30   17   34 1
  31   18   19 ar
  32   18   27 1
  33   19   20 ar
  34   19   35 1
  35   20   21 ar
  36   20   36 1
  37   21   28 1
  38   22   23 1
  39   22   37 1
  40   22   38 1
  41   23   24 1
  42   23   39 1
  43   23   40 1
  44   24   41 1
  45   24   42 1

#	End of record

