#	Name: ASD00431312
#	Creating user name:	WinNT
#	Creation time:	15. 06. 2019 18:35

#	Modifying user name:	WinNT
#	Modification time:	15. 06. 2019 18:35

#	Program:	/corina/corina34_cracker 3.40 0067  02.08.2006

@<TRIPOS>MOLECULE
ASD00431312
  40   41    0    0    0
SMALL
NO_CHARGES


@<TRIPOS>ATOM
   1 C1            -0.0866     1.2089     0.5763 C.2     
   2 N2            -0.0001    -0.0088     0.0053 N.am    
   3 O3             0.8946     1.7114     1.0876 O.2     
   4 O4            -1.2591     1.8712     0.5754 O.3     
   5 C5             1.2438    -0.6448    -0.1036 C.ar    
   6 C6             1.3302    -2.0258     0.0116 C.ar    
   7 C7             2.5561    -2.6520    -0.0962 C.ar    
   8 C8             3.7014    -1.9015    -0.3197 C.ar    
   9 C9             3.6157    -0.5215    -0.4349 C.ar    
  10 C10            2.3896     0.1053    -0.3324 C.ar    
  11 O11            4.9083    -2.5185    -0.4253 O.3     
  12 S12            6.5077    -4.2983    -1.7183 S.3     
  13 C13            5.1106    -3.3425    -1.4802 C.2     
  14 N14            4.2709    -3.5190    -2.4550 N.2     
  15 C15            4.6211    -4.3559    -3.4037 C.2     
  16 C16            5.8363    -4.9258    -3.2215 C.2     
  17 C17            6.4786    -5.8931    -4.1160 C.2     
  18 N18            7.6514    -6.3669    -3.8249 N.2     
  19 O19            8.2719    -7.3015    -4.6890 O.3     
  20 C20           -1.2786     3.1778     1.2083 C.3     
  21 C21           -0.2841     4.1015     0.5021 C.3     
  22 C22           -2.6852     3.7716     1.1091 C.3     
  23 C23           -0.8870     3.0372     2.6807 C.3     
  24 H24           -0.7988    -0.4450    -0.3302 H       
  25 H25            0.4387    -2.6100     0.1859 H       
  26 H26            2.6234    -3.7261    -0.0063 H       
  27 H27            4.5076     0.0622    -0.6088 H       
  28 H28            2.3224     1.1791    -0.4262 H       
  29 H29            3.9941    -4.5715    -4.2562 H       
  30 H30            5.9759    -6.2117    -5.0172 H       
  31 H31            9.1424    -7.5968    -4.3891 H       
  32 H32           -0.5631     4.2017    -0.5468 H       
  33 H33           -0.2988     5.0824     0.9773 H       
  34 H34            0.7180     3.6785     0.5728 H       
  35 H35           -3.3937     3.1135     1.6122 H       
  36 H36           -2.6998     4.7525     1.5843 H       
  37 H37           -2.9641     3.8718     0.0602 H       
  38 H38            0.1150     2.6142     2.7514 H       
  39 H39           -0.9017     4.0181     3.1558 H       
  40 H40           -1.5955     2.3791     3.1838 H       
@<TRIPOS>BOND
   1    1    2 am
   2    1    3 2
   3    1    4 1
   4    2    5 1
   5    2   24 1
   6    4   20 1
   7    5    6 ar
   8    5   10 ar
   9    6    7 ar
  10    6   25 1
  11    7    8 ar
  12    7   26 1
  13    8    9 ar
  14    8   11 1
  15    9   10 ar
  16    9   27 1
  17   10   28 1
  18   11   13 1
  19   12   13 1
  20   12   16 1
  21   13   14 2
  22   14   15 1
  23   15   16 2
  24   15   29 1
  25   16   17 1
  26   17   18 2
  27   17   30 1
  28   18   19 1
  29   19   31 1
  30   20   21 1
  31   20   23 1
  32   20   22 1
  33   21   32 1
  34   21   33 1
  35   21   34 1
  36   22   35 1
  37   22   36 1
  38   22   37 1
  39   23   38 1
  40   23   39 1
  41   23   40 1

#	End of record

