#	Name: ASD01914841
#	Creating user name:	WinNT
#	Creation time:	15. 06. 2019 20:04

#	Modifying user name:	WinNT
#	Modification time:	15. 06. 2019 20:04

#	Program:	/corina/corina34_cracker 3.40 0067  02.08.2006

@<TRIPOS>MOLECULE
ASD01914841
  36   37    0    0    0
SMALL
NO_CHARGES


@<TRIPOS>ATOM
   1 C1             1.1237    -0.7827    -0.6231 C.3     
   2 C2             0.0021    -0.0041     0.0020 C.2     
   3 C3             0.0618     1.2919     0.2183 C.2     
   4 C4             1.2611     2.1213    -0.1477 C.3     
   5 C5             2.4659     1.2083    -0.3887 C.3     
   6 N6             2.0579     0.1259    -1.2996 N.3     
   7 C7             3.2275    -0.6037    -1.8072 C.3     
   8 N8            -3.2591    -1.2034     1.0957 N.pl3   
   9 N9            -2.3370    -0.1800     0.8429 N.2     
  10 C10           -1.2258    -0.7273     0.3917 C.2     
  11 C11           -1.4152    -2.1277     0.3457 C.2     
  12 C12           -2.6712    -2.3896     0.7832 C.2     
  13 S13           -0.2308    -3.3190    -0.1858 S.3     
  14 C14           -1.1166    -4.8900     0.0089 C.3     
  15 C15           -0.2079    -6.0443    -0.4187 C.3     
  16 C16           -0.9438    -7.3494    -0.2569 C.2     
  17 C17           -1.0604    -8.1706    -1.2794 C.2     
  18 F18           -0.5203    -7.8432    -2.4737 F       
  19 F19           -1.7201    -9.3406    -1.1344 F       
  20 H20            1.6551    -1.3355     0.1517 H       
  21 H21            0.7147    -1.4857    -1.3487 H       
  22 H22           -0.7849     1.7801     0.6777 H       
  23 H23            1.0477     2.6871    -1.0546 H       
  24 H24            1.4862     2.8118     0.6652 H       
  25 H25            3.2752     1.7817    -0.8406 H       
  26 H26            2.7988     0.7837     0.5584 H       
  27 H27            2.9017    -1.3629    -2.5182 H       
  28 H28            3.9031     0.0930    -2.3035 H       
  29 H29            3.7457    -1.0826    -0.9763 H       
  30 H30           -4.1591    -1.0869     1.4381 H       
  31 H31           -3.1242    -3.3663     0.8689 H       
  32 H32           -1.4016    -5.0195     1.0530 H       
  33 H33           -2.0114    -4.8822    -0.6136 H       
  34 H34            0.0770    -5.9148    -1.4628 H       
  35 H35            0.6868    -6.0521     0.2038 H       
  36 H36           -1.3756    -7.6111     0.6978 H       
@<TRIPOS>BOND
   1    1    2 1
   2    1    6 1
   3    1   20 1
   4    1   21 1
   5    2    3 2
   6    2   10 1
   7    3    4 1
   8    3   22 1
   9    4    5 1
  10    4   23 1
  11    4   24 1
  12    5    6 1
  13    5   25 1
  14    5   26 1
  15    6    7 1
  16    7   27 1
  17    7   28 1
  18    7   29 1
  19    8    9 1
  20    8   12 1
  21    8   30 1
  22    9   10 2
  23   10   11 1
  24   11   12 2
  25   11   13 1
  26   12   31 1
  27   13   14 1
  28   14   15 1
  29   14   32 1
  30   14   33 1
  31   15   16 1
  32   15   34 1
  33   15   35 1
  34   16   17 2
  35   16   36 1
  36   17   18 1
  37   17   19 1

#	End of record

