#	Name: ASD02610054
#	Creating user name:	WinNT
#	Creation time:	15. 06. 2019 20:25

#	Modifying user name:	WinNT
#	Modification time:	15. 06. 2019 20:25

#	Program:	/corina/corina34_cracker 3.40 0067  02.08.2006

@<TRIPOS>MOLECULE
ASD02610054
 132  138    0    0    0
SMALL
NO_CHARGES


@<TRIPOS>ATOM
   1 O1             2.0119    -0.6379    -0.3956 O.3     
   2 C2             3.3901    -0.1815    -0.4134 C.3     
   3 C3             3.5086     1.1464    -1.1864 C.3     
   4 C4             3.8634     0.1693     1.0182 C.3     
   5 O5             2.7491     0.4305     1.8739 O.3     
   6 C6             4.6917     1.4575     0.7799 C.3     
   7 O7             3.9550     2.1452    -0.2540 O.3     
   8 N8             4.7478     2.2677     1.9992 N.pl3   
   9 C9             4.5268     1.0000    -2.3190 C.3     
  10 C10            5.6397     2.1206     3.0313 C.ar    
  11 C11            5.3114     3.1117     3.9712 C.ar    
  12 N12            4.2558     3.7998     3.4737 N.2     
  13 C13            3.9273     3.3098     2.3137 C.2     
  14 N14            6.6546     1.3006     3.2849 N.ar    
  15 C15            7.3448     1.4123     4.4001 C.ar    
  16 N16            7.0735     2.3274     5.3130 N.ar    
  17 C17            6.0773     3.1909     5.1470 C.ar    
  18 N18            5.8006     4.1462     6.1093 N.pl3   
  19 O19            4.5449     2.1960    -3.1008 O.3     
  20 P20            5.5031     2.3933    -4.3795 P.3     
  21 O21            6.9702     2.1380    -3.9680 O.co2   
  22 O22            5.0973     1.3945    -5.4861 O.co2   
  23 O23            5.3552     3.8977    -4.9338 O.3     
  24 P24            6.2175     4.8068    -5.9448 P.3     
  25 O25            5.8682     6.3595    -5.7010 O.3     
  26 O26            7.7234     4.5719    -5.6918 O.co2   
  27 O27            5.8742     4.4243    -7.4018 O.co2   
  28 P28            6.5665     7.7442    -6.1334 P.3     
  29 O29            6.6330     7.8298    -7.6963 O.co2   
  30 O30            5.7289     8.9468    -5.5797 O.co2   
  31 O31            8.0173     7.8035    -5.5450 O.co2   
  32 C32            1.8090    -1.9679    -0.3448 C.2     
  33 N33            0.5536    -2.4579    -0.3257 N.am    
  34 O34            2.7578    -2.7266    -0.3162 O.2     
  35 C35            0.3329    -3.9051    -0.2704 C.3     
  36 C36           -1.1700    -4.1918    -0.2590 C.3     
  37 N37           -1.3907    -5.6390    -0.2038 N.am    
  38 C38           -2.6461    -6.1290    -0.1847 C.2     
  39 C39           -9.8724   -11.9177    -0.7883 C.ar    
  40 C40           -8.5465   -11.6780    -1.1258 C.ar    
  41 C41           -2.8731    -7.6177    -0.1278 C.3     
  42 O42           -3.5931    -5.3718    -0.2132 O.2     
  43 C43          -10.8193   -12.1352    -1.7649 C.ar    
  44 C44          -10.4528   -12.1160    -3.0991 C.ar    
  45 C45           -9.1356   -11.8784    -3.4478 C.ar    
  46 C46           -8.1849   -11.6607    -2.4728 C.ar    
  47 C47           -4.3760    -7.9043    -0.1164 C.3     
  48 C48           -4.6065    -9.4157    -0.0587 C.3     
  49 C49           -6.1094    -9.7024    -0.0473 C.3     
  50 C50           -6.3399   -11.2138     0.0104 C.3     
  51 N51           -7.7789   -11.4882     0.0214 N.pl3   
  52 C52           -8.5318   -11.5884     1.1593 C.2     
  53 C53           -9.9508   -11.8816     0.7206 C.3     
  54 C54          -10.8929   -10.7643     1.1734 C.3     
  55 C55          -10.4140   -13.2311     1.2730 C.3     
  56 C56           -8.0921   -11.4563     2.4311 C.2     
  57 C57           -8.9933   -11.5878     3.5047 C.2     
  58 C58           -8.5503   -11.4547     4.7860 C.2     
  59 C59           -9.4509   -11.5779     5.8567 C.2     
  60 C60          -10.9367   -11.8570     5.7515 C.3     
  61 N61           -9.1604   -11.4784     7.1274 N.2     
  62 C62          -10.2327   -11.6418     7.9486 C.ar    
  63 C63          -11.3869   -11.8817     7.1946 C.ar    
  64 C64          -10.3382   -11.6092     9.3466 C.ar    
  65 C65          -11.5605   -11.8078     9.9499 C.ar    
  66 C66          -12.6920   -12.0405     9.1874 C.ar    
  67 C67          -12.5999   -12.0787     7.8052 C.ar    
  68 C68          -11.6435   -10.7377     4.9844 C.3     
  69 C69          -11.1859   -13.2095     5.0811 C.3     
  70 C70           -7.8064   -11.2159     7.6212 C.3     
  71 C71           -7.7693    -9.8479     8.3053 C.3     
  72 S72          -11.6612   -12.3943    -4.3509 S.o2    
  73 O73          -10.9701   -13.0146    -5.4706 O.co2   
  74 O74          -12.6667   -13.2738    -3.7751 O.co2   
  75 O75          -12.2098   -11.0934    -4.7010 O.co2   
  76 S76          -14.2483   -12.2928     9.9742 S.o2    
  77 O77          -14.6695   -10.9361    10.0095 O.2     
  78 O78          -14.8231   -13.1486     8.9962 O.2     
  79 O79          -13.7651   -12.8768    11.1761 O.2     
  80 H80            4.0364    -0.9395    -0.8560 H       
  81 H81            2.5368     1.4266    -1.5928 H       
  82 H82            4.4877    -0.6251     1.4271 H       
  83 H83            2.9946     0.6550     2.7819 H       
  84 H84            5.6967     1.2099     0.4384 H       
  85 H85            5.5169     0.8264    -1.8974 H       
  86 H86            4.2483     0.1569    -2.9512 H       
  87 H87            3.1187     3.6704     1.6951 H       
  88 H88            8.1634     0.7300     4.5753 H       
  89 H89            6.3366     4.1910     6.9165 H       
  90 H90            5.0706     4.7710     5.9766 H       
  91 H91           -0.2038    -1.8523    -0.3485 H       
  92 H92            0.7858    -4.3753    -1.1433 H       
  93 H93            0.7864    -4.3075     0.6354 H       
  94 H94           -1.6229    -3.7216     0.6138 H       
  95 H95           -1.6235    -3.7894    -1.1648 H       
  96 H96           -0.6333    -6.2446    -0.1809 H       
  97 H97           -2.4202    -8.0879    -1.0007 H       
  98 H98           -2.4196    -8.0200     0.7780 H       
  99 H99          -11.8469   -12.3208    -1.4894 H       
 100 H100          -8.8499   -11.8639    -4.4893 H       
 101 H101          -7.1584   -11.4759    -2.7529 H       
 102 H102          -4.8289    -7.4341     0.7565 H       
 103 H103          -4.8295    -7.5019    -1.0222 H       
 104 H104          -4.1536    -9.8859    -0.9315 H       
 105 H105          -4.1530    -9.8181     0.8471 H       
 106 H106          -6.5623    -9.2322     0.8256 H       
 107 H107          -6.5629    -9.3000    -0.9531 H       
 108 H108          -5.8870   -11.6840    -0.8624 H       
 109 H109          -5.8864   -11.6162     0.9163 H       
 110 H110         -10.5741    -9.8195     0.7331 H       
 111 H111         -11.9084   -10.9918     0.8494 H       
 112 H112         -10.8672   -10.6856     2.2602 H       
 113 H113         -10.3772   -13.2097     2.3622 H       
 114 H114         -11.4360   -13.4254     0.9477 H       
 115 H115          -9.7588   -14.0195     0.9028 H       
 116 H116          -7.0496   -11.2501     2.6234 H       
 117 H117         -10.0358   -11.7940     3.3124 H       
 118 H118          -7.5067   -11.2545     4.9786 H       
 119 H119          -9.4610   -11.4287     9.9503 H       
 120 H120         -11.6365   -11.7821    11.0269 H       
 121 H121         -13.4822   -12.2598     7.2092 H       
 122 H122         -11.2442   -10.6830     3.9717 H       
 123 H123         -12.7128   -10.9448     4.9427 H       
 124 H124         -11.4770    -9.7878     5.4924 H       
 125 H125         -10.6980   -13.9959     5.6570 H       
 126 H126         -12.2580   -13.4020     5.0388 H       
 127 H127         -10.7794   -13.1942     4.0699 H       
 128 H128          -7.5247   -11.9879     8.3372 H       
 129 H129          -7.1070   -11.2231     6.7851 H       
 130 H130          -6.7618    -9.6525     8.6727 H       
 131 H131          -8.0510    -9.0758     7.5893 H       
 132 H132          -8.4686    -9.8407     9.1414 H       
@<TRIPOS>BOND
   1    1   32 1
   2    1    2 1
   3    2    3 1
   4    2    4 1
   5    2   80 1
   6    3    7 1
   7    3    9 1
   8    3   81 1
   9    4    5 1
  10    4    6 1
  11    4   82 1
  12    5   83 1
  13    6    8 1
  14    6    7 1
  15    6   84 1
  16    8   10 1
  17    8   13 1
  18    9   19 1
  19    9   85 1
  20    9   86 1
  21   10   11 ar
  22   10   14 ar
  23   11   12 1
  24   11   17 ar
  25   12   13 2
  26   13   87 1
  27   14   15 ar
  28   15   16 ar
  29   15   88 1
  30   16   17 ar
  31   17   18 1
  32   18   89 1
  33   18   90 1
  34   19   20 1
  35   20   21 ar
  36   20   22 ar
  37   20   23 1
  38   23   24 1
  39   24   25 1
  40   24   26 ar
  41   24   27 ar
  42   25   28 1
  43   28   29 ar
  44   28   30 ar
  45   28   31 ar
  46   32   33 am
  47   32   34 2
  48   33   35 1
  49   33   91 1
  50   35   36 1
  51   35   92 1
  52   35   93 1
  53   36   37 1
  54   36   94 1
  55   36   95 1
  56   37   38 am
  57   37   96 1
  58   38   41 1
  59   38   42 2
  60   39   40 ar
  61   39   43 ar
  62   39   53 1
  63   40   51 1
  64   40   46 ar
  65   41   47 1
  66   41   97 1
  67   41   98 1
  68   43   44 ar
  69   43   99 1
  70   44   45 ar
  71   44   72 1
  72   45   46 ar
  73   45  100 1
  74   46  101 1
  75   47   48 1
  76   47  102 1
  77   47  103 1
  78   48   49 1
  79   48  104 1
  80   48  105 1
  81   49   50 1
  82   49  106 1
  83   49  107 1
  84   50   51 1
  85   50  108 1
  86   50  109 1
  87   51   52 1
  88   52   53 1
  89   52   56 2
  90   53   54 1
  91   53   55 1
  92   54  110 1
  93   54  111 1
  94   54  112 1
  95   55  113 1
  96   55  114 1
  97   55  115 1
  98   56   57 1
  99   56  116 1
 100   57   58 2
 101   57  117 1
 102   58   59 1
 103   58  118 1
 104   59   60 1
 105   59   61 2
 106   60   68 1
 107   60   69 1
 108   60   63 1
 109   61   62 1
 110   61   70 1
 111   62   63 ar
 112   62   64 ar
 113   63   67 ar
 114   64   65 ar
 115   64  119 1
 116   65   66 ar
 117   65  120 1
 118   66   67 ar
 119   66   76 1
 120   67  121 1
 121   68  122 1
 122   68  123 1
 123   68  124 1
 124   69  125 1
 125   69  126 1
 126   69  127 1
 127   70   71 1
 128   70  128 1
 129   70  129 1
 130   71  130 1
 131   71  131 1
 132   71  132 1
 133   72   73 ar
 134   72   74 ar
 135   72   75 ar
 136   76   77 2
 137   76   78 2
 138   76   79 2

#	End of record

