#	Name: ASD00890010
#	Creating user name:	WinNT
#	Creation time:	15. 06. 2019 18:53

#	Modifying user name:	WinNT
#	Modification time:	15. 06. 2019 18:53

#	Program:	/corina/corina34_cracker 3.40 0067  02.08.2006

@<TRIPOS>MOLECULE
ASD00890010
  61   63    0    0    0
SMALL
NO_CHARGES


@<TRIPOS>ATOM
   1 C1             1.1486     0.7085     0.9400 C.3     
   2 C2             1.0048    -0.8139     0.8885 C.3     
   3 C3             1.9330    -1.4492     1.9257 C.3     
   4 C4             1.7893    -2.9716     1.8742 C.3     
   5 C5             2.1654    -3.4725     0.4783 C.3     
   6 C6             1.2371    -2.8372    -0.5588 C.3     
   7 C7             1.3809    -1.3148    -0.5073 C.3     
   8 C8             2.0238    -4.9719     0.4276 C.2     
   9 O9             1.4824    -5.5611     1.3391 O.2     
  10 N10            2.4987    -5.6583    -0.6306 N.am    
  11 C11            2.4371    -7.0510    -0.6427 C.ar    
  12 C12            3.5365    -7.8000    -0.2472 C.ar    
  13 C13            3.4761    -9.1789    -0.2585 C.ar    
  14 C14            2.3165    -9.8279    -0.6656 C.ar    
  15 C15            1.2121    -9.0961    -1.0627 C.ar    
  16 C16            1.2613    -7.7001    -1.0493 C.ar    
  17 C17            0.0886    -6.9133    -1.4711 C.2     
  18 O18            0.1064    -5.7015    -1.3832 O.2     
  19 O19           -1.0034    -7.5378    -1.9543 O.3     
  20 O20            2.2677   -11.1866    -0.6738 O.3     
  21 C21            2.3823   -11.8217    -1.8696 C.ar    
  22 C22            2.6455   -11.0936    -3.0208 C.ar    
  23 C23            2.7620   -11.7420    -4.2352 C.ar    
  24 C24            2.6164   -13.1151    -4.3039 C.ar    
  25 C25            2.3539   -13.8432    -3.1579 C.ar    
  26 C26            2.2418   -13.2006    -1.9405 C.ar    
  27 C27            1.9562   -13.9948    -0.6919 C.3     
  28 F28            1.8471   -15.3512    -1.0168 F       
  29 F29            2.9997   -13.8168     0.2228 F       
  30 F30            0.7568   -13.5536    -0.1227 F       
  31 C31            3.0796    -4.9408    -1.7681 C.3     
  32 C32            4.5653    -5.2873    -1.8847 C.3     
  33 C33            2.3577    -5.3520    -3.0529 C.3     
  34 H34            2.1803     0.9836     0.7210 H       
  35 H35            0.4872     1.1610     0.2011 H       
  36 H36            0.8806     1.0653     1.9344 H       
  37 H37           -0.0270    -1.0890     1.1075 H       
  38 H38            2.9648    -1.1741     1.7067 H       
  39 H39            1.6651    -1.0923     2.9201 H       
  40 H40            2.4506    -3.4241     2.6131 H       
  41 H41            0.7575    -3.2467     2.0931 H       
  42 H42            3.1971    -3.1974     0.2594 H       
  43 H43            1.5051    -3.1940    -1.5533 H       
  44 H44            0.2054    -3.1123    -0.3399 H       
  45 H45            0.7196    -0.8622    -1.2462 H       
  46 H46            2.4127    -1.0397    -0.7263 H       
  47 H47            4.4414    -7.3029     0.0698 H       
  48 H48            4.3347    -9.7566     0.0504 H       
  49 H49            0.3122    -9.6029    -1.3787 H       
  50 H50           -1.7477    -6.9796    -2.2181 H       
  51 H51            2.7590   -10.0209    -2.9678 H       
  52 H52            2.9666   -11.1756    -5.1318 H       
  53 H53            2.7074   -13.6199    -5.2543 H       
  54 H54            2.2406   -14.9158    -3.2142 H       
  55 H55            2.9677    -3.8673    -1.6161 H       
  56 H56            4.6738    -6.3425    -2.1353 H       
  57 H57            5.0199    -4.6794    -2.6670 H       
  58 H58            5.0608    -5.0867    -0.9347 H       
  59 H59            1.2966    -5.1195    -2.9638 H       
  60 H60            2.7796    -4.8066    -3.8971 H       
  61 H61            2.4828    -6.4229    -3.2132 H       
@<TRIPOS>BOND
   1    1    2 1
   2    1   34 1
   3    1   35 1
   4    1   36 1
   5    2    3 1
   6    2    7 1
   7    2   37 1
   8    3    4 1
   9    3   38 1
  10    3   39 1
  11    4    5 1
  12    4   40 1
  13    4   41 1
  14    5    6 1
  15    5    8 1
  16    5   42 1
  17    6    7 1
  18    6   43 1
  19    6   44 1
  20    7   45 1
  21    7   46 1
  22    8    9 2
  23    8   10 am
  24   10   11 1
  25   10   31 1
  26   11   12 ar
  27   11   16 ar
  28   12   13 ar
  29   12   47 1
  30   13   14 ar
  31   13   48 1
  32   14   15 ar
  33   14   20 1
  34   15   16 ar
  35   15   49 1
  36   16   17 1
  37   17   18 2
  38   17   19 1
  39   19   50 1
  40   20   21 1
  41   21   22 ar
  42   21   26 ar
  43   22   23 ar
  44   22   51 1
  45   23   24 ar
  46   23   52 1
  47   24   25 ar
  48   24   53 1
  49   25   26 ar
  50   25   54 1
  51   26   27 1
  52   27   28 1
  53   27   29 1
  54   27   30 1
  55   31   32 1
  56   31   33 1
  57   31   55 1
  58   32   56 1
  59   32   57 1
  60   32   58 1
  61   33   59 1
  62   33   60 1
  63   33   61 1

#	End of record

