#	Name: ASD09900002
#	Creating user name:	WinNT
#	Creation time:	15. 06. 2019 21:24

#	Modifying user name:	WinNT
#	Modification time:	15. 06. 2019 21:24

#	Program:	/corina/corina34_cracker 3.40 0067  02.08.2006

@<TRIPOS>MOLECULE
ASD09900002
  66   68    0    0    0
SMALL
NO_CHARGES


@<TRIPOS>ATOM
   1 C1            -2.8806     6.1816     3.2051 C.ar    
   2 C2            -3.7977     6.3536     4.2422 C.ar    
   3 C3            -4.9883     5.6385     4.2479 C.ar    
   4 C4            -5.2705     4.7554     3.2296 C.ar    
   5 C5            -4.3554     4.5772     2.1845 C.ar    
   6 C6            -3.1573     5.3033     2.1770 C.ar    
   7 O7            -1.7159     6.8837     3.2042 O.3     
   8 C8            -0.8231     6.6581     2.1115 C.3     
   9 O9            -3.5252     7.2225     5.2494 O.3     
  10 C10           -4.5073     7.3504     6.2795 C.3     
  11 C11           -4.6529     3.6363     1.0979 C.2     
  12 C12           -5.8149     2.9382     1.1049 C.2     
  13 C13           -6.1003     2.0358     0.0627 C.2     
  14 C14           -7.3370     1.1771     0.1270 C.3     
  15 O15           -5.3496     1.9494    -0.8884 O.2     
  16 C16           -7.2096     0.1973     1.2650 C.2     
  17 C17           -8.5628     2.0644     0.3528 C.3     
  18 C18           -8.6921     3.0591    -0.8025 C.3     
  19 C19           -8.8512     2.2946    -2.1183 C.3     
  20 C20           -7.6254     1.4073    -2.3440 C.3     
  21 C21           -7.4961     0.4126    -1.1887 C.3     
  22 C22           -6.2130    -0.7964     1.2300 C.2     
  23 O23           -7.9668     0.2650     2.2124 O.2     
  24 C24           -6.1630    -1.7407     2.2014 C.2     
  25 C25           -5.1239    -2.7768     2.1649 C.ar    
  26 C26           -5.0702    -3.7537     3.1677 C.ar    
  27 C27           -4.1865    -2.7953     1.1245 C.ar    
  28 C28           -3.2128    -3.7686     1.0931 C.ar    
  29 C29           -3.1575    -4.7334     2.0907 C.ar    
  30 C30           -4.0907    -4.7252     3.1277 C.ar    
  31 O31           -4.0322    -5.6720     4.1021 O.3     
  32 C32           -5.0192    -5.6035     5.1332 C.3     
  33 O33           -2.1954    -5.6910     2.0535 O.3     
  34 C34           -1.2757    -5.6445     0.9608 C.3     
  35 H35           -5.6947     5.7752     5.0534 H       
  36 H36           -6.1969     4.2002     3.2372 H       
  37 H37           -2.4483     5.1699     1.3732 H       
  38 H38            0.0645     7.2789     2.2333 H       
  39 H39           -0.5320     5.6079     2.0910 H       
  40 H40           -1.3209     6.9154     1.1765 H       
  41 H41           -5.4472     7.6910     5.8451 H       
  42 H42           -4.6583     6.3835     6.7596 H       
  43 H43           -4.1657     8.0741     7.0195 H       
  44 H44           -3.9460     3.5002     0.2928 H       
  45 H45           -6.5218     3.0744     1.9100 H       
  46 H46           -9.4573     1.4432     0.3993 H       
  47 H47           -8.4495     2.6090     1.2902 H       
  48 H48           -9.5654     3.6912    -0.6417 H       
  49 H49           -7.7976     3.6802    -0.8490 H       
  50 H50           -9.7457     1.6735    -2.0718 H       
  51 H51           -8.9434     3.0033    -2.9413 H       
  52 H52           -7.7387     0.8627    -3.2814 H       
  53 H53           -6.7309     2.0285    -2.3906 H       
  54 H54           -6.6228    -0.2195    -1.3496 H       
  55 H55           -8.3906    -0.2085    -1.1422 H       
  56 H56           -5.4883    -0.8065     0.4293 H       
  57 H57           -6.8877    -1.7306     3.0021 H       
  58 H58           -5.7931    -3.7464     3.9700 H       
  59 H59           -4.2275    -2.0468     0.3470 H       
  60 H60           -2.4905    -3.7820     0.2903 H       
  61 H61           -4.9397    -4.6468     5.6494 H       
  62 H62           -6.0119    -5.6973     4.6928 H       
  63 H63           -4.8590    -6.4142     5.8440 H       
  64 H64           -1.8214    -5.7410     0.0222 H       
  65 H65           -0.7424    -4.6940     0.9749 H       
  66 H66           -0.5617    -6.4631     1.0517 H       
@<TRIPOS>BOND
   1    1    2 ar
   2    1    7 1
   3    1    6 ar
   4    2    3 ar
   5    2    9 1
   6    3    4 ar
   7    3   35 1
   8    4    5 ar
   9    4   36 1
  10    5    6 ar
  11    5   11 1
  12    6   37 1
  13    7    8 1
  14    8   38 1
  15    8   39 1
  16    8   40 1
  17    9   10 1
  18   10   41 1
  19   10   42 1
  20   10   43 1
  21   11   12 2
  22   11   44 1
  23   12   13 1
  24   12   45 1
  25   13   14 1
  26   13   15 2
  27   14   16 1
  28   14   17 1
  29   14   21 1
  30   16   22 1
  31   16   23 2
  32   17   18 1
  33   17   46 1
  34   17   47 1
  35   18   19 1
  36   18   48 1
  37   18   49 1
  38   19   20 1
  39   19   50 1
  40   19   51 1
  41   20   21 1
  42   20   52 1
  43   20   53 1
  44   21   54 1
  45   21   55 1
  46   22   24 2
  47   22   56 1
  48   24   25 1
  49   24   57 1
  50   25   26 ar
  51   25   27 ar
  52   26   30 ar
  53   26   58 1
  54   27   28 ar
  55   27   59 1
  56   28   29 ar
  57   28   60 1
  58   29   30 ar
  59   29   33 1
  60   30   31 1
  61   31   32 1
  62   32   61 1
  63   32   62 1
  64   32   63 1
  65   33   34 1
  66   34   64 1
  67   34   65 1
  68   34   66 1

#	End of record

