#	Name: ASD01916629
#	Creating user name:	WinNT
#	Creation time:	15. 06. 2019 20:07

#	Modifying user name:	WinNT
#	Modification time:	15. 06. 2019 20:07

#	Program:	/corina/corina34_cracker 3.40 0067  02.08.2006

@<TRIPOS>MOLECULE
ASD01916629
  46   50    0    0    0
SMALL
NO_CHARGES


@<TRIPOS>ATOM
   1 C1            -0.0171     1.4099     0.0098 C.ar    
   2 C2             0.0021    -0.0041     0.0020 C.ar    
   3 C3            -1.1912    -0.7262     0.0229 C.ar    
   4 C4            -2.3844    -0.0654     0.0465 C.ar    
   5 C5            -2.4221     1.3373     0.0480 C.ar    
   6 C6            -1.2414     2.0757     0.0308 C.ar    
   7 N7             1.1581     2.0909     0.0022 N.2     
   8 C8             2.2991     1.4718    -0.0179 C.2     
   9 N9             2.3999     0.1176    -0.0694 N.am    
  10 C10            1.3122    -0.6744    -0.0330 C.2     
  11 C11           -3.6838     2.0145     0.0682 C.1     
  12 O12            1.4074    -1.8881    -0.0288 O.2     
  13 C13           -4.7181     2.5696     0.0848 C.1     
  14 C14           -5.9797     3.2467     0.1051 C.ar    
  15 N15           -6.0155     4.5758     0.1065 N.ar    
  16 C16           -7.1554     5.2349     0.1244 C.ar    
  17 C17           -8.3648     4.5637     0.1425 C.ar    
  18 C18           -8.3746     3.1753     0.1417 C.ar    
  19 C19           -7.1645     2.5059     0.1174 C.ar    
  20 C20            3.5946     2.2564     0.0480 C.3     
  21 C21            4.2208     2.3777    -1.3194 C.3     
  22 C22            5.0666     1.1326    -1.7042 C.3     
  23 C23            4.2435    -0.1517    -1.6079 C.3     
  24 C24            3.7550    -0.4429    -0.1949 C.3     
  25 C25            3.2368     2.4504    -2.4909 C.3     
  26 O26            4.0557     2.1472    -3.6412 O.3     
  27 C27            5.2090     1.3941    -3.2370 C.3     
  28 H28            4.8563     3.2628    -1.3455 H       
  29 H29            6.0135     1.0736    -1.1676 H       
  30 H30           -1.1705    -1.8060     0.0202 H       
  31 H31           -3.3072    -0.6262     0.0637 H       
  32 H32           -1.2742     3.1552     0.0327 H       
  33 H33           -7.1459     6.3149     0.1253 H       
  34 H34           -9.2934     5.1149     0.1574 H       
  35 H35           -9.3067     2.6300     0.1556 H       
  36 H36           -7.1355     1.4263     0.1160 H       
  37 H37            3.3901     3.2535     0.4381 H       
  38 H38            4.2887     1.7466     0.7160 H       
  39 H39            3.3794    -0.0645    -2.2667 H       
  40 H40            4.8564    -0.9871    -1.9462 H       
  41 H41            4.4187     0.0278     0.5304 H       
  42 H42            3.7269    -1.5196    -0.0276 H       
  43 H43            2.4476     1.7076    -2.3755 H       
  44 H44            2.8135     3.4514    -2.5746 H       
  45 H45            6.1154     1.9665    -3.4344 H       
  46 H46            5.2422     0.4466    -3.7748 H       
@<TRIPOS>BOND
   1    1    2 ar
   2    1    7 1
   3    1    6 ar
   4    2    3 ar
   5    2   10 1
   6    3    4 ar
   7    3   30 1
   8    4    5 ar
   9    4   31 1
  10    5    6 ar
  11    5   11 1
  12    6   32 1
  13    7    8 2
  14    8    9 1
  15    8   20 1
  16    9   10 am
  17    9   24 1
  18   10   12 2
  19   11   13 3
  20   13   14 1
  21   14   15 ar
  22   14   19 ar
  23   15   16 ar
  24   16   17 ar
  25   16   33 1
  26   17   18 ar
  27   17   34 1
  28   18   19 ar
  29   18   35 1
  30   19   36 1
  31   20   21 1
  32   20   37 1
  33   20   38 1
  34   21   22 1
  35   21   25 1
  36   21   28 1
  37   22   23 1
  38   22   29 1
  39   22   27 1
  40   23   24 1
  41   23   39 1
  42   23   40 1
  43   24   41 1
  44   24   42 1
  45   25   26 1
  46   25   43 1
  47   25   44 1
  48   26   27 1
  49   27   45 1
  50   27   46 1

#	End of record

