#	Name: ASD05790110
#	Creating user name:	WinNT
#	Creation time:	15. 06. 2019 21:03

#	Modifying user name:	WinNT
#	Modification time:	15. 06. 2019 21:03

#	Program:	/corina/corina34_cracker 3.40 0067  02.08.2006

@<TRIPOS>MOLECULE
ASD05790110
 107  114    0    0    0
SMALL
NO_CHARGES


@<TRIPOS>ATOM
   1 C1            -0.7936    -1.1994     2.7329 C.3     
   2 C2            -0.6970    -2.6122     3.3136 C.3     
   3 C3             0.1150    -2.5669     4.6107 C.3     
   4 C4             1.4662    -1.9404     4.3184 C.2     
   5 C5             1.4839    -0.6106     3.5999 C.3     
   6 C6             0.6030    -0.7108     2.3493 C.3     
   7 C7             2.5358    -2.5829     4.6956 C.2     
   8 C8             3.9428    -2.0735     4.4905 C.3     
   9 C9             3.8528    -0.5575     4.3827 C.3     
  10 C10            2.8958    -0.2571     3.2033 C.3     
  11 C11            5.1446     0.1255     3.9099 C.3     
  12 C12            4.6725     1.3992     3.2164 C.2     
  13 C13            3.1858     1.2077     2.8989 C.3     
  14 C14            0.9319     0.4753     4.5256 C.3     
  15 N15           -2.0424    -3.1189     3.5956 N.am    
  16 C16           -2.2702    -4.4469     3.6239 C.2     
  17 O17           -1.3596    -5.2241     3.4155 O.2     
  18 C18            6.0098     0.4485     5.1143 C.3     
  19 C19            7.3152     1.0830     4.7712 C.3     
  20 C20            7.2578     2.5607     4.4714 C.3     
  21 C21            6.7629     2.8449     3.0656 C.3     
  22 C22            5.3523     2.4171     2.8843 C.2     
  23 C23            4.5361     3.4320     2.1262 C.3     
  24 C24            8.6813     3.1671     4.6287 C.3     
  25 C25            8.4901     4.2221     5.7191 C.3     
  26 C26            7.2790     3.6180     6.4869 C.3     
  27 O27            6.4063     3.2293     5.4366 O.3     
  28 N28            9.5582     4.3491     6.7019 N.am    
  29 C29            9.2599     5.2219     7.8573 C.3     
  30 C30            7.9442     4.8238     8.5217 C.3     
  31 C31            6.8178     4.6517     7.4876 C.3     
  32 C32            9.6777     2.0974     5.0803 C.3     
  33 C33           10.7388     3.7132     6.5669 C.2     
  34 O34           11.1297     3.3854     5.4641 O.2     
  35 C35            7.5418     5.9084     9.5230 C.3     
  36 O36           11.4850     3.4412     7.6540 O.3     
  37 C37           13.4365     2.5367     8.7548 C.ar    
  38 C38           13.1991     1.3825     9.4776 C.ar    
  39 C39           13.8377     1.1806    10.6868 C.ar    
  40 C40           14.7142     2.1325    11.1730 C.ar    
  41 C41           14.9523     3.2863    10.4498 C.ar    
  42 C42           14.3126     3.4889     9.2413 C.ar    
  43 C43           12.7450     2.7541     7.4336 C.3     
  44 O44           -3.5066    -4.9125     3.8830 O.3     
  45 C45           -5.1166    -6.6857     4.2022 C.ar    
  46 C46           -6.0284    -6.8194     3.1718 C.ar    
  47 C47           -7.3464    -7.1290     3.4509 C.ar    
  48 C48           -7.7525    -7.3054     4.7604 C.ar    
  49 C49           -6.8406    -7.1726     5.7908 C.ar    
  50 C50           -5.5229    -6.8616     5.5117 C.ar    
  51 C51           -3.6785    -6.3543     3.8975 C.3     
  52 H52           -1.4297    -1.2130     1.8479 H       
  53 H53           -1.2215    -0.5287     3.4779 H       
  54 H54           -0.2025    -3.2678     2.5969 H       
  55 H55           -0.4132    -1.9672     5.3519 H       
  56 H56            0.2558    -3.5792     4.9894 H       
  57 H57            1.0514    -1.4125     1.6460 H       
  58 H58            0.5270     0.2703     1.8806 H       
  59 H59            2.4082    -3.5372     5.1849 H       
  60 H60            4.5665    -2.3499     5.3406 H       
  61 H61            4.3586    -2.4880     3.5721 H       
  62 H62            3.4840    -0.1212     5.3110 H       
  63 H63            3.1891    -0.8579     2.3424 H       
  64 H64            5.6778    -0.5145     3.2070 H       
  65 H65            2.9935     1.4203     1.8473 H       
  66 H66            2.5778     1.8529     3.5330 H       
  67 H67            1.5497     0.5376     5.4214 H       
  68 H68            0.9443     1.4346     4.0082 H       
  69 H69           -0.0916     0.2273     4.8066 H       
  70 H70           -2.7693    -2.4985     3.7620 H       
  71 H71            5.4570     1.1230     5.7681 H       
  72 H72            6.2053    -0.4752     5.6591 H       
  73 H73            8.0000     0.9294     5.6051 H       
  74 H74            7.7250     0.5727     3.8995 H       
  75 H75            6.8378     3.9149     2.8717 H       
  76 H76            7.3910     2.3108     2.3526 H       
  77 H77            5.1654     4.2830     1.8655 H       
  78 H78            4.1449     2.9772     1.2161 H       
  79 H79            3.7075     3.7700     2.7485 H       
  80 H80            9.0077     3.6303     3.6976 H       
  81 H81            8.2358     5.1886     5.2840 H       
  82 H82            7.6068     2.7302     7.0277 H       
  83 H83           10.0672     5.1400     8.5851 H       
  84 H84            9.1903     6.2549     7.5166 H       
  85 H85            8.0848     3.8834     9.0548 H       
  86 H86            6.6306     5.5991     6.9823 H       
  87 H87            5.9093     4.3087     7.9828 H       
  88 H88            9.2641     1.1087     4.8820 H       
  89 H89           10.6123     2.2169     4.5323 H       
  90 H90            9.8666     2.2047     6.1485 H       
  91 H91            7.4169     6.8569     9.0006 H       
  92 H92            6.6027     5.6307    10.0016 H       
  93 H93            8.3193     6.0103    10.2802 H       
  94 H94           12.5143     0.6388     9.0977 H       
  95 H95           13.6517     0.2791    11.2518 H       
  96 H96           15.2126     1.9751    12.1181 H       
  97 H97           15.6366     4.0304    10.8300 H       
  98 H98           14.4981     4.3907     8.6766 H       
  99 H99           12.5555     1.7908     6.9599 H       
 100 H100          13.3802     3.3587     6.7862 H       
 101 H101          -5.7111    -6.6815     2.1487 H       
 102 H102          -8.0589    -7.2327     2.6459 H       
 103 H103          -8.7824    -7.5466     4.9786 H       
 104 H104          -7.1580    -7.3097     6.8139 H       
 105 H105          -4.8105    -6.7571     6.3168 H       
 106 H106          -3.4103    -6.7619     2.9228 H       
 107 H107          -3.0354    -6.7892     4.6626 H       
@<TRIPOS>BOND
   1    1    2 1
   2    1    6 1
   3    1   52 1
   4    1   53 1
   5    2    3 1
   6    2   15 1
   7    2   54 1
   8    3    4 1
   9    3   55 1
  10    3   56 1
  11    4    5 1
  12    4    7 2
  13    5    6 1
  14    5   14 1
  15    5   10 1
  16    6   57 1
  17    6   58 1
  18    7    8 1
  19    7   59 1
  20    8    9 1
  21    8   60 1
  22    8   61 1
  23    9   10 1
  24    9   11 1
  25    9   62 1
  26   10   13 1
  27   10   63 1
  28   11   12 1
  29   11   18 1
  30   11   64 1
  31   12   13 1
  32   12   22 2
  33   13   65 1
  34   13   66 1
  35   14   67 1
  36   14   68 1
  37   14   69 1
  38   15   16 am
  39   15   70 1
  40   16   17 2
  41   16   44 1
  42   18   19 1
  43   18   71 1
  44   18   72 1
  45   19   20 1
  46   19   73 1
  47   19   74 1
  48   20   21 1
  49   20   27 1
  50   20   24 1
  51   21   22 1
  52   21   75 1
  53   21   76 1
  54   22   23 1
  55   23   77 1
  56   23   78 1
  57   23   79 1
  58   24   25 1
  59   24   32 1
  60   24   80 1
  61   25   26 1
  62   25   28 1
  63   25   81 1
  64   26   27 1
  65   26   31 1
  66   26   82 1
  67   28   29 1
  68   28   33 am
  69   29   30 1
  70   29   83 1
  71   29   84 1
  72   30   31 1
  73   30   35 1
  74   30   85 1
  75   31   86 1
  76   31   87 1
  77   32   88 1
  78   32   89 1
  79   32   90 1
  80   33   34 2
  81   33   36 1
  82   35   91 1
  83   35   92 1
  84   35   93 1
  85   36   43 1
  86   37   38 ar
  87   37   42 ar
  88   37   43 1
  89   38   39 ar
  90   38   94 1
  91   39   40 ar
  92   39   95 1
  93   40   41 ar
  94   40   96 1
  95   41   42 ar
  96   41   97 1
  97   42   98 1
  98   43   99 1
  99   43  100 1
 100   44   51 1
 101   45   46 ar
 102   45   50 ar
 103   45   51 1
 104   46   47 ar
 105   46  101 1
 106   47   48 ar
 107   47  102 1
 108   48   49 ar
 109   48  103 1
 110   49   50 ar
 111   49  104 1
 112   50  105 1
 113   51  106 1
 114   51  107 1

#	End of record

