#	Name: ASD01140665
#	Creating user name:	WinNT
#	Creation time:	15. 06. 2019 19:01

#	Modifying user name:	WinNT
#	Modification time:	15. 06. 2019 19:01

#	Program:	/corina/corina34_cracker 3.40 0067  02.08.2006

@<TRIPOS>MOLECULE
ASD01140665
  61   66    0    0    0
SMALL
NO_CHARGES


@<TRIPOS>ATOM
   1 C1            -0.0173     1.4248     0.0099 C.3     
   2 O2             0.0021    -0.0041     0.0020 O.3     
   3 C3             0.6260    -0.6186     1.0419 C.ar    
   4 C4             1.2028     0.1396     2.0520 C.ar    
   5 C5             1.8349    -0.4814     3.1086 C.ar    
   6 C6             1.9035    -1.8707     3.1756 C.ar    
   7 C7             1.3286    -2.6371     2.1617 C.ar    
   8 C8             0.6817    -1.9987     1.0970 C.ar    
   9 C9             1.3752    -4.1117     2.1642 C.2     
  10 N10            0.4205    -4.9232     1.7607 N.2     
  11 N11            0.7994    -6.1447     1.9005 N.2     
  12 C12            2.0089    -6.1860     2.3984 C.2     
  13 C13            2.8082    -7.4251     2.7093 C.3     
  14 O14            3.5738    -7.7984     1.5618 O.3     
  15 C15            4.3724    -8.9681     1.7514 C.3     
  16 C16            3.6256   -10.2236     1.2366 C.3     
  17 C17            4.7808   -11.2146     0.9490 C.3     
  18 C18            5.9036   -10.3290     0.3704 C.3     
  19 C19            5.6440    -8.9007     0.8805 C.3     
  20 N20            2.4060    -4.9053     2.5808 N.pl3   
  21 C21            3.6808    -4.4179     3.1189 C.3     
  22 C22            3.3503    -3.5417     4.3047 C.2     
  23 C23            3.7804    -3.7020     5.5795 C.2     
  24 N24            3.2384    -2.7105     6.3189 N.2     
  25 C25            2.5037    -1.9555     5.5518 C.2     
  26 N26            2.5542    -2.4373     4.2771 N.pl3   
  27 C27            4.6811    -4.7713     6.0728 C.2     
  28 N28            5.2121    -5.7307     5.3586 N.2     
  29 O29            5.9004    -6.4406     6.0611 O.3     
  30 C30            5.8782    -5.9972     7.3219 C.2     
  31 N31            5.1127    -4.9348     7.3442 N.2     
  32 C32            6.6032    -6.6026     8.4963 C.3     
  33 C33            6.1302    -8.0433     8.7000 C.3     
  34 C34            8.1090    -6.5936     8.2258 C.3     
  35 H35            1.0053     1.8021     0.0021 H       
  36 H36           -0.5445     1.7859    -0.8732 H       
  37 H37           -0.5275     1.7763     0.9067 H       
  38 H38            1.1565     1.2178     2.0100 H       
  39 H39            2.2809     0.1149     3.8908 H       
  40 H40            0.2282    -2.5868     0.3129 H       
  41 H41            3.4794    -7.2245     3.5443 H       
  42 H42            2.1312    -8.2372     2.9743 H       
  43 H43            4.6358    -9.0829     2.8029 H       
  44 H44            2.9597   -10.6187     2.0038 H       
  45 H45            3.0741    -9.9979     0.3239 H       
  46 H46            5.1101   -11.6944     1.8707 H       
  47 H47            4.4696   -11.9617     0.2189 H       
  48 H48            6.8742   -10.6801     0.7210 H       
  49 H49            5.8704   -10.3483    -0.7189 H       
  50 H50            5.4848    -8.2268     0.0388 H       
  51 H51            6.4885    -8.5586     1.4787 H       
  52 H52            4.2962    -5.2592     3.4378 H       
  53 H53            4.2067    -3.8366     2.3615 H       
  54 H54            1.9450    -1.0891     5.8738 H       
  55 H55            6.3916    -6.0205     9.3932 H       
  56 H56            6.6545    -8.4812     9.5494 H       
  57 H57            5.0574    -8.0497     8.8927 H       
  58 H58            6.3417    -8.6254     7.8031 H       
  59 H59            8.4460    -5.5672     8.0807 H       
  60 H60            8.6334    -7.0315     9.0752 H       
  61 H61            8.3206    -7.1757     7.3289 H       
@<TRIPOS>BOND
   1    1    2 1
   2    1   35 1
   3    1   36 1
   4    1   37 1
   5    2    3 1
   6    3    8 ar
   7    3    4 ar
   8    4    5 ar
   9    4   38 1
  10    5    6 ar
  11    5   39 1
  12    6   26 1
  13    6    7 ar
  14    7    8 ar
  15    7    9 1
  16    8   40 1
  17    9   20 1
  18    9   10 2
  19   10   11 1
  20   11   12 2
  21   12   13 1
  22   12   20 1
  23   13   14 1
  24   13   41 1
  25   13   42 1
  26   14   15 1
  27   15   19 1
  28   15   16 1
  29   15   43 1
  30   16   17 1
  31   16   44 1
  32   16   45 1
  33   17   18 1
  34   17   46 1
  35   17   47 1
  36   18   19 1
  37   18   48 1
  38   18   49 1
  39   19   50 1
  40   19   51 1
  41   20   21 1
  42   21   22 1
  43   21   52 1
  44   21   53 1
  45   22   26 1
  46   22   23 2
  47   23   24 1
  48   23   27 1
  49   24   25 2
  50   25   26 1
  51   25   54 1
  52   27   31 1
  53   27   28 2
  54   28   29 1
  55   29   30 1
  56   30   31 2
  57   30   32 1
  58   32   33 1
  59   32   34 1
  60   32   55 1
  61   33   56 1
  62   33   57 1
  63   33   58 1
  64   34   59 1
  65   34   60 1
  66   34   61 1

#	End of record

