#	Name: ASD02500041
#	Creating user name:	WinNT
#	Creation time:	15. 06. 2019 20:22

#	Modifying user name:	WinNT
#	Modification time:	15. 06. 2019 20:22

#	Program:	/corina/corina34_cracker 3.40 0067  02.08.2006

@<TRIPOS>MOLECULE
ASD02500041
  49   50    0    0    0
SMALL
NO_CHARGES


@<TRIPOS>ATOM
   1 C1            -0.0184     1.5028     0.0103 C.2     
   2 C2             0.0021    -0.0041     0.0020 C.3     
   3 C3            -0.7241    -0.5171    -1.2431 C.3     
   4 C4            -0.8113    -2.0207    -1.1900 C.2     
   5 O5             1.0197     2.1211     0.0037 O.2     
   6 O6            -1.1898     2.1580     0.0194 O.3     
   7 O7            -0.3409    -2.6203    -0.2525 O.2     
   8 O8            -1.4115    -2.6937    -2.1842 O.3     
   9 C9             2.0717    -0.5994     1.1419 C.2     
  10 O10            1.5347    -0.3229     2.1988 O.2     
  11 N11            1.3897    -0.4735    -0.0138 N.am    
  12 C12            5.3730    -1.7800     0.3942 C.2     
  13 N13            4.1830    -1.4117     0.0257 N.2     
  14 C14            3.4592    -1.0688     1.1261 C.2     
  15 C15            4.2804    -1.2467     2.2302 C.2     
  16 N16            5.4768    -1.6932     1.7515 N.pl3   
  17 O17            7.4981    -2.9394     1.8300 O.3     
  18 C18            6.6600    -2.0206     2.5509 C.3     
  19 C19            7.4894    -0.7470     2.8052 C.3     
  20 C20            8.8436    -1.0311     2.1110 C.3     
  21 C21            8.4651    -2.1487     1.1059 C.3     
  22 C22            9.6917    -2.9911     0.7498 C.3     
  23 O23            9.3181    -4.0045    -0.1858 O.3     
  24 P24           10.3618    -5.0764    -0.7808 P.3     
  25 O25           11.0311    -5.7842     0.3335 O.2     
  26 O26            9.5744    -6.1408    -1.6968 O.3     
  27 O27           11.4649    -4.3139    -1.6718 O.3     
  28 O28            9.3196     0.1298     1.4272 O.3     
  29 O29            6.8541     0.3894     2.2162 O.3     
  30 N30            3.9515    -1.0177     3.5509 N.pl3   
  31 H31           -0.4983    -0.3791     0.8948 H       
  32 H32           -1.7288    -0.0959    -1.2772 H       
  33 H33           -0.1736    -0.2164    -2.1345 H       
  34 H34           -1.1523     3.1243     0.0245 H       
  35 H35           -1.4429    -3.6570    -2.1059 H       
  36 H36            1.8177    -0.6938    -0.8559 H       
  37 H37            6.1577    -2.1087    -0.2712 H       
  38 H38            6.3555    -2.4629     3.4995 H       
  39 H39            7.6338    -0.5930     3.8746 H       
  40 H40            9.5818    -1.3878     2.8294 H       
  41 H41            8.0174    -1.7222     0.2083 H       
  42 H42           10.4555    -2.3517     0.3072 H       
  43 H43           10.0865    -3.4576     1.6523 H       
  44 H44           10.1422    -6.8181    -2.0891 H       
  45 H45           11.0966    -3.8274    -2.4220 H       
  46 H46            9.4847     0.8870     2.0056 H       
  47 H47            7.3336     1.2192     2.3458 H       
  48 H48            3.0650    -0.6987     3.7817 H       
  49 H49            4.6069    -1.1758     4.2484 H       
@<TRIPOS>BOND
   1    1    2 1
   2    1    5 2
   3    1    6 1
   4    2    3 1
   5    2   11 1
   6    2   31 1
   7    3    4 1
   8    3   32 1
   9    3   33 1
  10    4    7 2
  11    4    8 1
  12    6   34 1
  13    8   35 1
  14    9   10 2
  15    9   11 am
  16    9   14 1
  17   11   36 1
  18   12   13 2
  19   12   16 1
  20   12   37 1
  21   13   14 1
  22   14   15 2
  23   15   16 1
  24   15   30 1
  25   16   18 1
  26   17   18 1
  27   17   21 1
  28   18   19 1
  29   18   38 1
  30   19   20 1
  31   19   29 1
  32   19   39 1
  33   20   21 1
  34   20   28 1
  35   20   40 1
  36   21   22 1
  37   21   41 1
  38   22   23 1
  39   22   42 1
  40   22   43 1
  41   23   24 1
  42   24   25 2
  43   24   26 1
  44   24   27 1
  45   26   44 1
  46   27   45 1
  47   28   46 1
  48   29   47 1
  49   30   48 1
  50   30   49 1

#	End of record

