#	Name: ASD02500096
#	Creating user name:	WinNT
#	Creation time:	15. 06. 2019 20:22

#	Modifying user name:	WinNT
#	Modification time:	15. 06. 2019 20:22

#	Program:	/corina/corina34_cracker 3.40 0067  02.08.2006

@<TRIPOS>MOLECULE
ASD02500096
  63   67    0    0    0
SMALL
NO_CHARGES


@<TRIPOS>ATOM
   1 N1            -3.2913     5.7174    -0.2191 N.ar    
   2 C2            -4.3960     6.3858    -0.4453 C.ar    
   3 C3            -5.5203     6.2396     0.3646 C.ar    
   4 C4            -5.4886     5.3813     1.4265 C.ar    
   5 C5            -4.3006     4.6649     1.6661 C.ar    
   6 C6            -4.1930     3.7653     2.7385 C.ar    
   7 C7            -3.0265     3.0915     2.9371 C.ar    
   8 C8            -1.9371     3.2832     2.0901 C.ar    
   9 C9            -2.0067     4.1475     1.0410 C.ar    
  10 C10           -3.1938     4.8615     0.8032 C.ar    
  11 S11           -0.6136     4.3713    -0.0144 S.o2    
  12 O12           -0.4093     5.7738    -0.1172 O.2     
  13 O13            0.3862     3.4719     0.4447 O.2     
  14 N14           -1.0534     3.8509    -1.5237 N.am    
  15 C15           -1.3046     2.4994    -1.7487 C.ar    
  16 C16           -0.9969     1.9297    -2.9860 C.ar    
  17 C17           -1.2455     0.5909    -3.2096 C.ar    
  18 C18           -1.8054    -0.1925    -2.1954 C.ar    
  19 C19           -2.1110     0.3830    -0.9596 C.ar    
  20 C20           -1.8558     1.7187    -0.7393 C.ar    
  21 O21           -0.4529     2.6944    -3.9706 O.3     
  22 C22           -2.0732    -1.6240    -2.4303 C.2     
  23 O23           -1.8473    -2.4366    -1.5543 O.2     
  24 N24           -2.5683    -2.0314    -3.6158 N.am    
  25 C25           -2.9281    -3.4398    -3.8399 C.3     
  26 C26           -4.3541    -3.4950    -4.3981 C.3     
  27 N27           -4.4457    -2.6341    -5.5848 N.3     
  28 C28           -4.1957    -1.2274    -5.2433 C.3     
  29 C29           -2.7689    -1.0781    -4.7178 C.3     
  30 C30           -5.6846    -2.7838    -6.2186 C.ar    
  31 C31           -6.0226    -3.9975    -6.8142 C.ar    
  32 C32           -7.2497    -4.1401    -7.4394 C.ar    
  33 C33           -8.1370    -3.0793    -7.4724 C.ar    
  34 C34           -7.8024    -1.8751    -6.8823 C.ar    
  35 C35           -6.5815    -1.7265    -6.2506 C.ar    
  36 O36           -5.1489    -5.0394    -6.7819 O.3     
  37 C37           -5.5627    -6.2530    -7.4129 C.3     
  38 H38           -4.4356     7.0681    -1.2815 H       
  39 H39           -6.4160     6.8048     0.1530 H       
  40 H40           -6.3507     5.2560     2.0648 H       
  41 H41           -5.0304     3.6089     3.4023 H       
  42 H42           -2.9445     2.3997     3.7624 H       
  43 H43           -1.0225     2.7374     2.2691 H       
  44 H44           -1.1361     4.4873    -2.2511 H       
  45 H45           -1.0084     0.1490    -4.1662 H       
  46 H46           -2.5438    -0.2204    -0.1753 H       
  47 H47           -2.0885     2.1611     0.2180 H       
  48 H48            0.5138     2.7166    -3.9625 H       
  49 H49           -2.2371    -3.8847    -4.5559 H       
  50 H50           -2.8828    -3.9838    -2.8965 H       
  51 H51           -4.5974    -4.5212    -4.6735 H       
  52 H52           -5.0552    -3.1455    -3.6402 H       
  53 H53           -4.3241    -0.6091    -6.1317 H       
  54 H54           -4.8989    -0.9095    -4.4736 H       
  55 H55           -2.6184    -0.0615    -4.3545 H       
  56 H56           -2.0623    -1.2916    -5.5198 H       
  57 H57           -7.5142    -5.0796    -7.9018 H       
  58 H58           -9.0936    -3.1924    -7.9608 H       
  59 H59           -8.4980    -1.0495    -6.9112 H       
  60 H60           -6.3244    -0.7859    -5.7865 H       
  61 H61           -6.4722    -6.6185    -6.9361 H       
  62 H62           -5.7561    -6.0656    -8.4691 H       
  63 H63           -4.7754    -7.0004    -7.3146 H       
@<TRIPOS>BOND
   1    1    2 ar
   2    1   10 ar
   3    2    3 ar
   4    2   38 1
   5    3    4 ar
   6    3   39 1
   7    4    5 ar
   8    4   40 1
   9    5    6 ar
  10    5   10 ar
  11    6    7 ar
  12    6   41 1
  13    7    8 ar
  14    7   42 1
  15    8    9 ar
  16    8   43 1
  17    9   10 ar
  18    9   11 1
  19   11   12 2
  20   11   13 2
  21   11   14 am
  22   14   15 1
  23   14   44 1
  24   15   16 ar
  25   15   20 ar
  26   16   17 ar
  27   16   21 1
  28   17   18 ar
  29   17   45 1
  30   18   19 ar
  31   18   22 1
  32   19   20 ar
  33   19   46 1
  34   20   47 1
  35   21   48 1
  36   22   23 2
  37   22   24 am
  38   24   25 1
  39   24   29 1
  40   25   26 1
  41   25   49 1
  42   25   50 1
  43   26   27 1
  44   26   51 1
  45   26   52 1
  46   27   28 1
  47   27   30 1
  48   28   29 1
  49   28   53 1
  50   28   54 1
  51   29   55 1
  52   29   56 1
  53   30   31 ar
  54   30   35 ar
  55   31   32 ar
  56   31   36 1
  57   32   33 ar
  58   32   57 1
  59   33   34 ar
  60   33   58 1
  61   34   35 ar
  62   34   59 1
  63   35   60 1
  64   36   37 1
  65   37   61 1
  66   37   62 1
  67   37   63 1

#	End of record

