#	Name: ASD08150655
#	Creating user name:	WinNT
#	Creation time:	15. 06. 2019 21:16

#	Modifying user name:	WinNT
#	Modification time:	15. 06. 2019 21:16

#	Program:	/corina/corina34_cracker 3.40 0067  02.08.2006

@<TRIPOS>MOLECULE
ASD08150655
  85   92    0    0    0
SMALL
NO_CHARGES


@<TRIPOS>ATOM
   1 N1             0.1067     1.5022    -2.0884 N.am    
   2 C2             1.2236     2.0978    -2.5493 C.2     
   3 C3             2.4650     1.4311    -2.5175 C.2     
   4 C4             2.5514     0.1716    -2.0183 C.2     
   5 C5             1.3784    -0.4576    -1.5323 C.ar    
   6 C6             1.4124    -1.7622    -1.0038 C.ar    
   7 N7             0.3286    -2.3402    -0.5557 N.ar    
   8 C8            -0.8677    -1.7329    -0.5718 C.ar    
   9 C9            -0.9959    -0.4190    -1.0858 C.ar    
  10 C10            0.1580     0.2344    -1.5790 C.ar    
  11 C11           -2.2472     0.2046    -1.0989 C.ar    
  12 C12           -3.3520    -0.4720    -0.6073 C.ar    
  13 C13           -3.2173    -1.7721    -0.1003 C.ar    
  14 C14           -2.0067    -2.3916    -0.0804 C.ar    
  15 O15            1.1598     3.2289    -3.0003 O.2     
  16 C16           -4.6829     0.1823    -0.6171 C.ar    
  17 C17           -1.1153     2.1889    -2.1262 C.ar    
  18 C18           -1.4702     3.0323    -1.0829 C.ar    
  19 C19           -2.6731     3.7093    -1.1195 C.ar    
  20 C20           -3.5310     3.5477    -2.2006 C.ar    
  21 C21           -3.1799     2.7048    -3.2465 C.ar    
  22 C22           -1.9715     2.0292    -3.2140 C.ar    
  23 N23           -4.7483     4.2338    -2.2349 N.3     
  24 C24           -4.7955     1.5597    -0.3696 C.ar    
  25 N25           -5.9568     2.1635    -0.3719 N.ar    
  26 C26           -7.0929     1.4996    -0.6102 C.ar    
  27 C27           -7.0621     0.1061    -0.8694 C.ar    
  28 C28           -5.8252    -0.5612    -0.8765 C.ar    
  29 C29           -4.8000     5.1573    -3.3755 C.3     
  30 C30           -4.9911     4.9386    -0.9697 C.3     
  31 C31           -6.3914     5.5555    -0.9884 C.3     
  32 C32           -6.4993     6.5290    -2.1653 C.3     
  33 C33           -6.1946     5.7807    -3.4660 C.3     
  34 N34           -7.8597     7.0804    -2.2233 N.3     
  35 C35           -7.9672     8.1073    -3.2674 C.3     
  36 C36           -9.4253     8.5537    -3.3975 C.3     
  37 C37           -9.9047     9.1122    -2.0549 C.3     
  38 C38           -9.7370     8.0392    -0.9755 C.3     
  39 C39           -8.2699     7.6078    -0.9156 C.3     
  40 O40           -1.6233     1.2073    -4.2393 O.3     
  41 C41           -2.5495     1.0918    -5.3213 C.3     
  42 C42           -1.9891     0.1312    -6.3721 C.3     
  43 C43           -8.3310     2.1655    -0.6080 C.ar    
  44 C44           -9.4742     1.4688    -0.8528 C.ar    
  45 C45           -9.4416     0.0991    -1.1074 C.ar    
  46 C46           -8.2624    -0.5809    -1.1181 C.ar    
  47 H47            3.3503     1.9236    -2.8919 H       
  48 H48            3.5003    -0.3435    -1.9922 H       
  49 H49            2.3509    -2.2955    -0.9682 H       
  50 H50           -2.3518     1.2062    -1.4890 H       
  51 H51           -4.0863    -2.2883     0.2802 H       
  52 H52           -1.9211    -3.3934     0.3138 H       
  53 H53           -0.8051     3.1591    -0.2415 H       
  54 H54           -2.9477     4.3650    -0.3065 H       
  55 H55           -3.8470     2.5790    -4.0865 H       
  56 H56           -3.9028     2.1346    -0.1723 H       
  57 H57           -5.7664    -1.6220    -1.0704 H       
  58 H58           -4.0584     5.9444    -3.2393 H       
  59 H59           -4.5857     4.6117    -4.2945 H       
  60 H60           -4.9156     4.2342    -0.1413 H       
  61 H61           -4.2486     5.7268    -0.8448 H       
  62 H62           -7.1352     4.7665    -1.0994 H       
  63 H63           -6.5654     6.0917    -0.0555 H       
  64 H64           -5.7821     7.3393    -2.0347 H       
  65 H65           -6.2280     6.4779    -4.3033 H       
  66 H66           -6.9353     4.9953    -3.6160 H       
  67 H67           -7.3478     8.9635    -3.0000 H       
  68 H68           -7.6272     7.6960    -4.2178 H       
  69 H69           -9.5023     9.3271    -4.1617 H       
  70 H70          -10.0432     7.7008    -3.6784 H       
  71 H71           -9.3122     9.9886    -1.7924 H       
  72 H72          -10.9556     9.3913    -2.1308 H       
  73 H73          -10.0367     8.4450    -0.0092 H       
  74 H74          -10.3598     7.1783    -1.2183 H       
  75 H75           -8.1496     6.8335    -0.1578 H       
  76 H76           -7.6491     8.4662    -0.6592 H       
  77 H77           -3.4988     0.7079    -4.9477 H       
  78 H78           -2.7060     2.0720    -5.7718 H       
  79 H79           -2.6955     0.0431    -7.1974 H       
  80 H80           -1.0398     0.5151    -6.7458 H       
  81 H81           -1.8325    -0.8489    -5.9216 H       
  82 H82           -8.3749     3.2267    -0.4122 H       
  83 H83          -10.4223     1.9860    -0.8493 H       
  84 H84          -10.3637    -0.4296    -1.2987 H       
  85 H85           -8.2494    -1.6423    -1.3174 H       
@<TRIPOS>BOND
   1    1    2 am
   2    1   10 1
   3    1   17 1
   4    2    3 1
   5    2   15 2
   6    3    4 2
   7    3   47 1
   8    4    5 1
   9    4   48 1
  10    5    6 ar
  11    5   10 ar
  12    6    7 ar
  13    6   49 1
  14    7    8 ar
  15    8    9 ar
  16    8   14 ar
  17    9   10 ar
  18    9   11 ar
  19   11   12 ar
  20   11   50 1
  21   12   13 ar
  22   12   16 1
  23   13   14 ar
  24   13   51 1
  25   14   52 1
  26   16   24 ar
  27   16   28 ar
  28   17   18 ar
  29   17   22 ar
  30   18   19 ar
  31   18   53 1
  32   19   20 ar
  33   19   54 1
  34   20   21 ar
  35   20   23 1
  36   21   22 ar
  37   21   55 1
  38   22   40 1
  39   23   30 1
  40   23   29 1
  41   24   25 ar
  42   24   56 1
  43   25   26 ar
  44   26   27 ar
  45   26   43 ar
  46   27   28 ar
  47   27   46 ar
  48   28   57 1
  49   29   33 1
  50   29   58 1
  51   29   59 1
  52   30   31 1
  53   30   60 1
  54   30   61 1
  55   31   32 1
  56   31   62 1
  57   31   63 1
  58   32   33 1
  59   32   34 1
  60   32   64 1
  61   33   65 1
  62   33   66 1
  63   34   35 1
  64   34   39 1
  65   35   36 1
  66   35   67 1
  67   35   68 1
  68   36   37 1
  69   36   69 1
  70   36   70 1
  71   37   38 1
  72   37   71 1
  73   37   72 1
  74   38   39 1
  75   38   73 1
  76   38   74 1
  77   39   75 1
  78   39   76 1
  79   40   41 1
  80   41   42 1
  81   41   77 1
  82   41   78 1
  83   42   79 1
  84   42   80 1
  85   42   81 1
  86   43   44 ar
  87   43   82 1
  88   44   45 ar
  89   44   83 1
  90   45   46 ar
  91   45   84 1
  92   46   85 1

#	End of record

