#	Name: ASD00840128
#	Creating user name:	WinNT
#	Creation time:	15. 06. 2019 18:37

#	Modifying user name:	WinNT
#	Modification time:	15. 06. 2019 18:37

#	Program:	/corina/corina34_cracker 3.40 0067  02.08.2006

@<TRIPOS>MOLECULE
ASD00840128
  92   97    0    0    0
SMALL
NO_CHARGES


@<TRIPOS>ATOM
   1 N1            -0.2102     1.1910     0.0205 N.3     
   2 C2            -0.3501    -0.2693    -0.0446 C.3     
   3 C3             0.2518    -0.8973     1.2145 C.3     
   4 C4             1.7301    -0.5114     1.3148 C.3     
   5 C5             1.8511     1.0149     1.3321 C.3     
   6 C6             1.2029     1.5875     0.0696 C.3     
   7 N7             4.2574    -2.7947     3.8973 N.3     
   8 C8             2.8423    -3.1846     3.8519 C.3     
   9 C9             2.1942    -2.6117     2.5895 C.3     
  10 C10            2.3223    -1.0859     2.6033 C.3     
  11 C11            3.8026    -0.7067     2.6997 C.3     
  12 C12            4.4041    -1.3349     3.9589 C.3     
  13 N13           -2.4391     5.3333    -2.6719 N.am    
  14 C14           -1.8339     4.1355    -2.7378 C.2     
  15 C15           -2.6888     3.1606    -1.9565 C.3     
  16 C16           -3.8425     4.0005    -1.4585 C.ar    
  17 C17           -4.9513     3.7090    -0.6957 C.ar    
  18 C18           -5.8608     4.7067    -0.3892 C.ar    
  19 C19           -5.6502     5.9962    -0.8524 C.ar    
  20 C20           -4.5383     6.2891    -1.6179 C.ar    
  21 C21           -3.6198     5.2884    -1.9287 C.ar    
  22 O22           -0.7977     3.8827    -3.3153 O.2     
  23 F23           -6.5368     6.9710    -0.5541 F       
  24 S24           -1.8485     6.7065    -3.3845 S.o2    
  25 O25           -2.4040     7.8010    -2.6684 O.2     
  26 O26           -0.4499     6.5086    -3.5392 O.2     
  27 C27           -2.5231     6.7819    -5.0105 C.ar    
  28 C28           -2.1867     5.8138    -5.9464 C.ar    
  29 C29           -2.7178     5.8737    -7.2253 C.ar    
  30 C30           -3.5841     6.9011    -7.5664 C.ar    
  31 C31           -3.9174     7.8666    -6.6272 C.ar    
  32 C32           -3.3910     7.8015    -5.3510 C.ar    
  33 O33           -4.1061     6.9628    -8.8196 O.3     
  34 C34           -4.9915     8.0486    -9.1009 C.3     
  35 O35           -1.3370     4.8082    -5.6092 O.3     
  36 C36           -1.0351     3.8469    -6.6225 C.3     
  37 C37           -3.1876     2.0582    -2.8549 C.ar    
  38 C38           -3.8905     0.9893    -2.3177 C.ar    
  39 C39           -4.3482    -0.0239    -3.1472 C.ar    
  40 C40           -4.1033     0.0336    -4.5058 C.ar    
  41 C41           -3.4023     1.0994    -5.0385 C.ar    
  42 C42           -2.9502     2.1138    -4.2144 C.ar    
  43 O43           -4.1298     0.9348    -0.9810 O.3     
  44 C44           -4.7603    -0.2467    -0.4824 C.3     
  45 C45           -5.0555    -0.0765     1.0091 C.3     
  46 F46           -3.8515     0.0278     1.7139 F       
  47 F47           -5.8126     1.0835     1.2053 F       
  48 Cl48          -7.2605     4.3442     0.5716 Cl      
  49 C49           -1.9130     2.5890    -0.7979 C.2     
  50 O50           -2.2445     2.8468     0.3399 O.2     
  51 N51           -0.8509     1.7913    -1.0260 N.am    
  52 C52            4.9457    -3.4410     5.0226 C.3     
  53 H53           -1.4062    -0.5304    -0.1114 H       
  54 H54            0.1732    -0.6454    -0.9237 H       
  55 H55           -0.2800    -0.5322     2.0931 H       
  56 H56            0.1618    -1.9822     1.1587 H       
  57 H57            2.2697    -0.9098     0.4556 H       
  58 H58            1.3444     1.4101     2.2126 H       
  59 H59            2.9038     1.2962     1.3604 H       
  60 H60            1.7188     1.2026    -0.8100 H       
  61 H61            1.2746     2.6750     0.0858 H       
  62 H62            2.7655    -4.2718     3.8382 H       
  63 H63            2.3300    -2.7955     4.7318 H       
  64 H64            2.6972    -3.0111     1.7088 H       
  65 H65            1.1401    -2.8882     2.5640 H       
  66 H66            1.7854    -0.6831     3.4621 H       
  67 H67            4.3309    -1.0762     1.8208 H       
  68 H68            3.8977     0.3778     2.7530 H       
  69 H69            3.8845    -0.9544     4.8383 H       
  70 H70            5.4616    -1.0786     4.0230 H       
  71 H71           -5.1115     2.7029    -0.3373 H       
  72 H72           -4.3804     7.2957    -1.9759 H       
  73 H73           -2.4569     5.1215    -7.9551 H       
  74 H74           -4.5921     8.6671    -6.8923 H       
  75 H75           -3.6550     8.5514    -4.6201 H       
  76 H76           -5.3351     7.9791   -10.1330 H       
  77 H77           -5.8483     8.0023    -8.4288 H       
  78 H78           -4.4663     8.9926    -8.9556 H       
  79 H79           -0.3478     3.1013    -6.2228 H       
  80 H80           -1.9543     3.3579    -6.9449 H       
  81 H81           -0.5728     4.3483    -7.4728 H       
  82 H82           -4.8953    -0.8571    -2.7314 H       
  83 H83           -4.4594    -0.7550    -5.1521 H       
  84 H84           -3.2112     1.1422    -6.1006 H       
  85 H85           -2.4070     2.9478    -4.6336 H       
  86 H86           -5.6931    -0.4154    -1.0205 H       
  87 H87           -4.0981    -1.1003    -0.6266 H       
  88 H88           -5.6141    -0.9402     1.3698 H       
  89 H89           -0.5415     1.6434    -1.9334 H       
  90 H90            4.8849    -4.5237     4.9123 H       
  91 H91            5.9918    -3.1350     5.0328 H       
  92 H92            4.4711    -3.1438     5.9578 H       
@<TRIPOS>BOND
   1    1    2 1
   2    1    6 1
   3    1   51 1
   4    2    3 1
   5    2   53 1
   6    2   54 1
   7    3    4 1
   8    3   55 1
   9    3   56 1
  10    4    5 1
  11    4   10 1
  12    4   57 1
  13    5    6 1
  14    5   58 1
  15    5   59 1
  16    6   60 1
  17    6   61 1
  18    7    8 1
  19    7   12 1
  20    7   52 1
  21    8    9 1
  22    8   62 1
  23    8   63 1
  24    9   10 1
  25    9   64 1
  26    9   65 1
  27   10   11 1
  28   10   66 1
  29   11   12 1
  30   11   67 1
  31   11   68 1
  32   12   69 1
  33   12   70 1
  34   13   14 am
  35   13   21 1
  36   13   24 am
  37   14   15 1
  38   14   22 2
  39   15   16 1
  40   15   37 1
  41   15   49 1
  42   16   17 ar
  43   16   21 ar
  44   17   18 ar
  45   17   71 1
  46   18   19 ar
  47   18   48 1
  48   19   20 ar
  49   19   23 1
  50   20   21 ar
  51   20   72 1
  52   24   25 2
  53   24   26 2
  54   24   27 1
  55   27   28 ar
  56   27   32 ar
  57   28   29 ar
  58   28   35 1
  59   29   30 ar
  60   29   73 1
  61   30   31 ar
  62   30   33 1
  63   31   32 ar
  64   31   74 1
  65   32   75 1
  66   33   34 1
  67   34   76 1
  68   34   77 1
  69   34   78 1
  70   35   36 1
  71   36   79 1
  72   36   80 1
  73   36   81 1
  74   37   38 ar
  75   37   42 ar
  76   38   39 ar
  77   38   43 1
  78   39   40 ar
  79   39   82 1
  80   40   41 ar
  81   40   83 1
  82   41   42 ar
  83   41   84 1
  84   42   85 1
  85   43   44 1
  86   44   45 1
  87   44   86 1
  88   44   87 1
  89   45   46 1
  90   45   47 1
  91   45   88 1
  92   49   50 2
  93   49   51 am
  94   51   89 1
  95   52   90 1
  96   52   91 1
  97   52   92 1

#	End of record

