#	Name: ASD01150373
#	Creating user name:	WinNT
#	Creation time:	15. 06. 2019 19:04

#	Modifying user name:	WinNT
#	Modification time:	15. 06. 2019 19:04

#	Program:	/corina/corina34_cracker 3.40 0067  02.08.2006

@<TRIPOS>MOLECULE
ASD01150373
  49   52    0    0    0
SMALL
NO_CHARGES


@<TRIPOS>ATOM
   1 C1             0.4651     1.3869    -0.9659 C.ar    
   2 C2             0.4925     0.0060    -0.9771 C.ar    
   3 C3             1.2189    -0.6815    -0.0235 C.ar    
   4 C4             1.9237     0.0147     0.9503 C.ar    
   5 C5             1.8984     1.4019     0.9645 C.ar    
   6 C6             1.1684     2.0894     0.0053 C.ar    
   7 N7             1.1406     3.4883     0.0159 N.am    
   8 C8            -0.0381     4.1285    -0.0778 C.2     
   9 N9            -0.1017     5.4730    -0.0713 N.am    
  10 C10            1.0287     6.2025     0.0310 C.2     
  11 C11            2.3213     5.5083     0.1342 C.2     
  12 N12            2.3399     4.2014     0.1295 N.2     
  13 O13            0.9796     7.4184     0.0372 O.2     
  14 C14           -1.3993     6.1449    -0.1757 C.3     
  15 O15           -1.0639     3.4819    -0.1705 O.2     
  16 C16           -1.9647     6.3627     1.2042 C.ar    
  17 C17           -1.6775     7.5265     1.8928 C.ar    
  18 C18           -2.1958     7.7268     3.1583 C.ar    
  19 C19           -3.0021     6.7622     3.7360 C.ar    
  20 C20           -3.2891     5.5977     3.0463 C.ar    
  21 C21           -2.7749     5.4010     1.7786 C.ar    
  22 Cl22          -3.6529     7.0128     5.3257 Cl      
  23 O23            3.4772     6.2144     0.2384 O.3     
  24 C24            4.6894     5.4638     0.3344 C.3     
  25 N25            2.6582    -0.6824     1.9160 N.am    
  26 C26            3.5341    -0.0476     2.9079 C.3     
  27 C27            4.4397    -1.1793     3.4423 C.3     
  28 C28            3.5650    -2.4291     3.1892 C.3     
  29 C29            2.6477    -2.0190     2.0582 C.2     
  30 O30            2.0024    -2.7853     1.3745 O.2     
  31 H31           -0.0999     1.9214    -1.7153 H       
  32 H32           -0.0552    -0.5377    -1.7326 H       
  33 H33            1.2382    -1.7612    -0.0350 H       
  34 H34            2.4453     1.9454     1.7208 H       
  35 H35           -1.2715     7.1069    -0.6719 H       
  36 H36           -2.0837     5.5253    -0.7551 H       
  37 H37           -1.0478     8.2792     1.4419 H       
  38 H38           -1.9711     8.6359     3.6963 H       
  39 H39           -3.9185     4.8444     3.4968 H       
  40 H40           -2.9989     4.4920     1.2401 H       
  41 H41            4.6539     4.8279     1.2189 H       
  42 H42            4.8041     4.8437    -0.5546 H       
  43 H43            5.5348     6.1475     0.4121 H       
  44 H44            4.1379     0.7279     2.4365 H       
  45 H45            2.9412     0.3757     3.7186 H       
  46 H46            5.3704    -1.2337     2.8776 H       
  47 H47            4.6377    -1.0508     4.5064 H       
  48 H48            4.1852    -3.2752     2.8933 H       
  49 H49            2.9830    -2.6737     4.0777 H       
@<TRIPOS>BOND
   1    1    2 ar
   2    1    6 ar
   3    1   31 1
   4    2    3 ar
   5    2   32 1
   6    3    4 ar
   7    3   33 1
   8    4    5 ar
   9    4   25 1
  10    5    6 ar
  11    5   34 1
  12    6    7 1
  13    7    8 am
  14    7   12 1
  15    8    9 am
  16    8   15 2
  17    9   10 am
  18    9   14 1
  19   10   11 1
  20   10   13 2
  21   11   12 2
  22   11   23 1
  23   14   16 1
  24   14   35 1
  25   14   36 1
  26   16   17 ar
  27   16   21 ar
  28   17   18 ar
  29   17   37 1
  30   18   19 ar
  31   18   38 1
  32   19   20 ar
  33   19   22 1
  34   20   21 ar
  35   20   39 1
  36   21   40 1
  37   23   24 1
  38   24   41 1
  39   24   42 1
  40   24   43 1
  41   25   26 1
  42   25   29 am
  43   26   27 1
  44   26   44 1
  45   26   45 1
  46   27   28 1
  47   27   46 1
  48   27   47 1
  49   28   29 1
  50   28   48 1
  51   28   49 1
  52   29   30 2

#	End of record

