#	Name: ASD01814532
#	Creating user name:	WinNT
#	Creation time:	15. 06. 2019 19:32

#	Modifying user name:	WinNT
#	Modification time:	15. 06. 2019 19:32

#	Program:	/corina/corina34_cracker 3.40 0067  02.08.2006

@<TRIPOS>MOLECULE
ASD01814532
  62   67    0    0    0
SMALL
NO_CHARGES


@<TRIPOS>ATOM
   1 C1            -0.0167     1.3838     0.0097 C.ar    
   2 C2             0.0021    -0.0041     0.0020 C.ar    
   3 C3            -1.1856    -0.7101     0.0100 C.ar    
   4 C4            -2.3928    -0.0367     0.0257 C.ar    
   5 C5            -2.4171     1.3462     0.0333 C.ar    
   6 C6            -1.2326     2.0595     0.0307 C.ar    
   7 F7            -1.2561     3.4102     0.0382 F       
   8 N8             1.1856     2.1023     0.0020 N.am    
   9 C9             1.8903     2.4235    -1.1024 C.2     
  10 N10            1.8325     2.5994     1.1377 N.2     
  11 C11            2.9291     3.2212     0.7859 C.2     
  12 C12            3.0225     3.1394    -0.6756 C.2     
  13 O13            1.5996     2.1441    -2.2572 O.2     
  14 N14            3.9244     3.8853     1.4862 N.pl3   
  15 C15            4.9726     4.4482     0.8134 C.2     
  16 C16            5.0670     4.3698    -0.5850 C.2     
  17 C17            4.1178     3.7320    -1.3246 C.2     
  18 C18            3.8483     3.9714     2.8400 C.2     
  19 C19            4.8058     4.6139     3.5502 C.2     
  20 C20            5.8925     5.2007     2.8910 C.2     
  21 C21            5.9767     5.1194     1.5312 C.2     
  22 C22            6.2415     5.0064    -1.2823 C.3     
  23 N23            7.2864     3.9974    -1.5016 N.3     
  24 C24            8.3412     4.5150    -2.3825 C.3     
  25 C25            9.3331     3.3952    -2.7053 C.3     
  26 C26            9.9426     2.8688    -1.4030 C.3     
  27 C27            8.8196     2.3805    -0.4838 C.3     
  28 C28            7.8425     3.5297    -0.2255 C.3     
  29 C29           10.8755     1.7256    -1.7095 C.ar    
  30 N30           10.8291     1.1461    -2.8930 N.ar    
  31 C31           11.6259     0.1427    -3.2055 C.ar    
  32 C32           12.5452    -0.3403    -2.2939 C.ar    
  33 C33           12.6232     0.2440    -1.0387 C.ar    
  34 C34           11.7736     1.3004    -0.7487 C.ar    
  35 C35           10.6886     3.9491    -0.7371 C.1     
  36 N36           11.2643     4.7828    -0.2232 N.1     
  37 C37           13.6119    -0.2539    -0.0161 C.3     
  38 H38            0.9444    -0.5317    -0.0105 H       
  39 H39           -1.1707    -1.7900     0.0037 H       
  40 H40           -3.3193    -0.5918     0.0316 H       
  41 H41           -3.3620     1.8693     0.0455 H       
  42 H42            4.2072     3.6814    -2.3997 H       
  43 H43            3.0132     3.5218     3.3565 H       
  44 H44            4.7308     4.6740     4.6259 H       
  45 H45            6.6580     5.7139     3.4540 H       
  46 H46            6.8099     5.5677     1.0105 H       
  47 H47            5.9191     5.4101    -2.2421 H       
  48 H48            6.6382     5.8118    -0.6641 H       
  49 H49            7.8948     4.8823    -3.3066 H       
  50 H50            8.8640     5.3305    -1.8828 H       
  51 H51            8.8137     2.5853    -3.2174 H       
  52 H52           10.1244     3.7836    -3.3465 H       
  53 H53            8.2920     1.5546    -0.9610 H       
  54 H54            9.2439     2.0440     0.4621 H       
  55 H55            8.3677     4.3498     0.2642 H       
  56 H56            7.0339     3.1814     0.4171 H       
  57 H57           11.5589    -0.3069    -4.1852 H       
  58 H58           13.1944    -1.1627    -2.5555 H       
  59 H59           11.8072     1.7794     0.2187 H       
  60 H60           14.5500     0.2907    -0.1225 H       
  61 H61           13.2107    -0.0946     0.9848 H       
  62 H62           13.7900    -1.3181    -0.1710 H       
@<TRIPOS>BOND
   1    1    2 ar
   2    1    8 1
   3    1    6 ar
   4    2    3 ar
   5    2   38 1
   6    3    4 ar
   7    3   39 1
   8    4    5 ar
   9    4   40 1
  10    5    6 ar
  11    5   41 1
  12    6    7 1
  13    8    9 am
  14    8   10 1
  15    9   13 2
  16    9   12 1
  17   10   11 2
  18   11   12 1
  19   11   14 1
  20   12   17 2
  21   14   15 1
  22   14   18 1
  23   15   16 2
  24   15   21 1
  25   16   17 1
  26   16   22 1
  27   17   42 1
  28   18   19 2
  29   18   43 1
  30   19   20 1
  31   19   44 1
  32   20   21 2
  33   20   45 1
  34   21   46 1
  35   22   23 1
  36   22   47 1
  37   22   48 1
  38   23   24 1
  39   23   28 1
  40   24   25 1
  41   24   49 1
  42   24   50 1
  43   25   26 1
  44   25   51 1
  45   25   52 1
  46   26   27 1
  47   26   29 1
  48   26   35 1
  49   27   28 1
  50   27   53 1
  51   27   54 1
  52   28   55 1
  53   28   56 1
  54   29   30 ar
  55   29   34 ar
  56   30   31 ar
  57   31   32 ar
  58   31   57 1
  59   32   33 ar
  60   32   58 1
  61   33   34 ar
  62   33   37 1
  63   34   59 1
  64   35   36 3
  65   37   60 1
  66   37   61 1
  67   37   62 1

#	End of record

