#	Name: ASD03730695
#	Creating user name:	WinNT
#	Creation time:	15. 06. 2019 20:44

#	Modifying user name:	WinNT
#	Modification time:	15. 06. 2019 20:44

#	Program:	/corina/corina34_cracker 3.40 0067  02.08.2006

@<TRIPOS>MOLECULE
ASD03730695
  59   65    0    0    0
SMALL
NO_CHARGES


@<TRIPOS>ATOM
   1 C1             1.3813    -1.2157    -2.4765 C.2     
   2 C2             0.4822    -1.1575    -1.3047 C.ar    
   3 C3             0.7333    -0.2516    -0.2725 C.ar    
   4 C4            -0.1099    -0.2022     0.8180 C.ar    
   5 C5            -1.2025    -1.0483     0.8905 C.ar    
   6 C6            -1.4568    -1.9486    -0.1286 C.ar    
   7 C7            -0.6248    -2.0041    -1.2279 C.ar    
   8 O8             2.3206    -0.4486    -2.5605 O.2     
   9 N9             1.1628    -2.1227    -3.4491 N.am    
  10 C10            1.9233     0.6699    -0.3494 C.3     
  11 O11            0.1124    -0.7032     6.4717 O.3     
  12 C12            0.0701    -0.3757     7.8731 C.3     
  13 O13            1.3554     0.2230     8.1236 O.3     
  14 C14            1.7476     0.7597     6.9307 C.ar    
  15 C15            0.9836     0.1891     5.9153 C.ar    
  16 C16            2.7098     1.7053     6.6243 C.ar    
  17 C17            2.9234     2.0918     5.3047 C.ar    
  18 C18            2.1597     1.5086     4.2981 C.ar    
  19 C19            1.1954     0.5701     4.6009 C.ar    
  20 O20            3.7971     3.0065     4.7947 O.3     
  21 C21            2.6370     2.1016     2.9995 C.3     
  22 C22            3.9649     2.7682     3.3838 C.3     
  23 N23            2.0364     1.4267     0.8999 N.am    
  24 C24            2.8210     1.0607     1.9331 C.2     
  25 C25            1.6607     3.0872     2.4290 C.ar    
  26 C26            1.0943     4.2490     2.9039 C.ar    
  27 C27            0.2029     4.9571     2.1178 C.ar    
  28 C28           -0.1184     4.4949     0.8544 C.ar    
  29 C29            0.4455     3.3312     0.3746 C.ar    
  30 C30            1.3442     2.6121     1.1589 C.ar    
  31 O31            3.5359     0.0825     1.9900 O.2     
  32 C32            1.8966    -2.0634    -4.6381 C.ar    
  33 C33            1.3946    -2.6449    -5.7950 C.ar    
  34 C34            2.1230    -2.5843    -6.9691 C.ar    
  35 C35            3.3517    -1.9448    -6.9904 C.ar    
  36 C36            3.8524    -1.3661    -5.8393 C.ar    
  37 C37            3.1260    -1.4179    -4.6654 C.ar    
  38 F38            1.6363    -3.1495    -8.0956 F       
  39 H39            0.0833     0.4981     1.6171 H       
  40 H40           -1.8594    -1.0058     1.7467 H       
  41 H41           -2.3109    -2.6067    -0.0655 H       
  42 H42           -0.8270    -2.7043    -2.0249 H       
  43 H43            0.4967    -2.8167    -3.3244 H       
  44 H44            2.8287     0.0823    -0.5014 H       
  45 H45            1.7945     1.3609    -1.1824 H       
  46 H46           -0.7300     0.3361     8.0761 H       
  47 H47           -0.0561    -1.2767     8.4733 H       
  48 H48            3.2991     2.1464     7.4146 H       
  49 H49            0.6043     0.1310     3.8109 H       
  50 H50            4.0970     3.7068     2.8457 H       
  51 H51            4.8028     2.0952     3.2019 H       
  52 H52            1.3465     4.6080     3.8908 H       
  53 H53           -0.2409     5.8689     2.4896 H       
  54 H54           -0.8144     5.0476     0.2408 H       
  55 H55            0.1893     2.9763    -0.6127 H       
  56 H56            0.4370    -3.1440    -5.7778 H       
  57 H57            3.9196    -1.8986    -7.9079 H       
  58 H58            4.8108    -0.8685    -5.8588 H       
  59 H59            3.5163    -0.9611    -3.7680 H       
@<TRIPOS>BOND
   1    1    2 1
   2    1    8 2
   3    1    9 am
   4    2    3 ar
   5    2    7 ar
   6    3    4 ar
   7    3   10 1
   8    4    5 ar
   9    4   39 1
  10    5    6 ar
  11    5   40 1
  12    6    7 ar
  13    6   41 1
  14    7   42 1
  15    9   32 1
  16    9   43 1
  17   10   23 1
  18   10   44 1
  19   10   45 1
  20   11   12 1
  21   11   15 1
  22   12   13 1
  23   12   46 1
  24   12   47 1
  25   13   14 1
  26   14   15 ar
  27   14   16 ar
  28   15   19 ar
  29   16   17 ar
  30   16   48 1
  31   17   18 ar
  32   17   20 1
  33   18   19 ar
  34   18   21 1
  35   19   49 1
  36   20   22 1
  37   21   22 1
  38   21   24 1
  39   21   25 1
  40   22   50 1
  41   22   51 1
  42   23   24 am
  43   23   30 1
  44   24   31 2
  45   25   26 ar
  46   25   30 ar
  47   26   27 ar
  48   26   52 1
  49   27   28 ar
  50   27   53 1
  51   28   29 ar
  52   28   54 1
  53   29   30 ar
  54   29   55 1
  55   32   33 ar
  56   32   37 ar
  57   33   34 ar
  58   33   56 1
  59   34   35 ar
  60   34   38 1
  61   35   36 ar
  62   35   57 1
  63   36   37 ar
  64   36   58 1
  65   37   59 1

#	End of record

