#	Name: ASD01901057
#	Creating user name:	WinNT
#	Creation time:	15. 06. 2019 19:53

#	Modifying user name:	WinNT
#	Modification time:	15. 06. 2019 19:53

#	Program:	/corina/corina34_cracker 3.40 0067  02.08.2006

@<TRIPOS>MOLECULE
ASD01901057
  37   39    0    0    0
SMALL
NO_CHARGES


@<TRIPOS>ATOM
   1 S1             2.2944    -1.4798    -2.2331 S.3     
   2 C2             0.8695    -1.2965    -1.2147 C.2     
   3 N3             0.9825    -0.1948    -0.5230 N.2     
   4 C4             2.0725     0.4975    -0.7259 C.2     
   5 C5             2.9326    -0.0160    -1.6194 C.2     
   6 C6            -0.2646    -2.2330    -1.1532 C.2     
   7 O7            -0.2654    -3.2335    -1.8450 O.2     
   8 N8            -1.3020    -1.9819    -0.3303 N.am    
   9 C9            -2.4216    -2.8194    -0.3412 C.ar    
  10 C10           -2.2672    -4.1852    -0.5420 C.ar    
  11 C11           -3.3751    -5.0097    -0.5517 C.ar    
  12 C12           -4.6370    -4.4770    -0.3619 C.ar    
  13 C13           -4.7942    -3.1177    -0.1622 C.ar    
  14 C14           -3.6900    -2.2884    -0.1456 C.ar    
  15 S15           -6.0478    -5.5325    -0.3750 S.o2    
  16 O16           -7.1588    -4.7132    -0.7118 O.2     
  17 O17           -5.6790    -6.6860    -1.1184 O.2     
  18 N18           -6.2955    -6.0392     1.1820 N.am    
  19 C19           -6.5505    -5.1042     2.1889 C.ar    
  20 C20           -6.0530    -5.3077     3.4711 C.ar    
  21 C21           -6.3074    -4.3810     4.4638 C.ar    
  22 C22           -7.0559    -3.2523     4.1828 C.ar    
  23 C23           -7.5523    -3.0477     2.9088 C.ar    
  24 C24           -7.2966    -3.9671     1.9097 C.ar    
  25 Cl25          -5.1139    -6.7244     3.8243 Cl      
  26 H26            2.2687     1.4243    -0.2073 H       
  27 H27            3.8765     0.4243    -1.9048 H       
  28 H28           -1.2720    -1.2202     0.2694 H       
  29 H29           -1.2819    -4.6018    -0.6906 H       
  30 H30           -3.2557    -6.0716    -0.7080 H       
  31 H31           -5.7812    -2.7048    -0.0146 H       
  32 H32           -3.8131    -1.2275     0.0148 H       
  33 H33           -6.2635    -6.9849     1.3952 H       
  34 H34           -5.9217    -4.5382     5.4603 H       
  35 H35           -7.2534    -2.5294     4.9605 H       
  36 H36           -8.1367    -2.1654     2.6931 H       
  37 H37           -7.6808    -3.8037     0.9136 H       
@<TRIPOS>BOND
   1    1    2 1
   2    1    5 1
   3    2    3 2
   4    2    6 1
   5    3    4 1
   6    4    5 2
   7    4   26 1
   8    5   27 1
   9    6    7 2
  10    6    8 am
  11    8    9 1
  12    8   28 1
  13    9   10 ar
  14    9   14 ar
  15   10   11 ar
  16   10   29 1
  17   11   12 ar
  18   11   30 1
  19   12   13 ar
  20   12   15 1
  21   13   14 ar
  22   13   31 1
  23   14   32 1
  24   15   16 2
  25   15   17 2
  26   15   18 am
  27   18   19 1
  28   18   33 1
  29   19   20 ar
  30   19   24 ar
  31   20   21 ar
  32   20   25 1
  33   21   22 ar
  34   21   34 1
  35   22   23 ar
  36   22   35 1
  37   23   24 ar
  38   23   36 1
  39   24   37 1

#	End of record

