#	Name: ASD01410625
#	Creating user name:	WinNT
#	Creation time:	15. 06. 2019 19:18

#	Modifying user name:	WinNT
#	Modification time:	15. 06. 2019 19:18

#	Program:	/corina/corina34_cracker 3.40 0067  02.08.2006

@<TRIPOS>MOLECULE
ASD01410625
  72   75    0    0    0
SMALL
NO_CHARGES


@<TRIPOS>ATOM
   1 C1            -0.0499    -0.8137     2.4090 C.ar    
   2 C2             0.6628    -1.2956     3.4980 C.ar    
   3 C3             2.0239    -1.4968     3.3793 C.ar    
   4 N4             2.6496    -1.2369     2.2473 N.ar    
   5 C5             2.0050    -0.7766     1.1876 C.ar    
   6 C6             0.6354    -0.5507     1.2355 C.ar    
   7 O7             2.6883    -0.5229     0.0434 O.3     
   8 C8             4.0378    -0.6885     0.0557 C.ar    
   9 C9             4.5793    -1.9668    -0.0072 C.ar    
  10 C10            5.9477    -2.1462     0.0045 C.ar    
  11 C11            6.7938    -1.0486     0.0799 C.ar    
  12 C12            6.2534     0.2448     0.1437 C.ar    
  13 C13            4.8671     0.4161     0.1250 C.ar    
  14 N14            8.1759    -1.2305     0.0927 N.am    
  15 C15            8.8574    -1.2985    -1.0680 C.2     
  16 C16            8.8875    -1.3477     1.3679 C.3     
  17 O17           10.0475    -1.5318    -1.0597 O.2     
  18 C18            8.1406    -1.0847    -2.3763 C.3     
  19 C19            8.8109    -1.9215    -3.4678 C.3     
  20 C20            8.0832    -1.7044    -4.7960 C.3     
  21 C21            8.1474    -0.2240    -5.1767 C.3     
  22 C22            7.4771     0.6128    -4.0852 C.3     
  23 C23            8.2048     0.3958    -2.7570 C.3     
  24 C24            7.4197    -0.0069    -6.5050 C.3     
  25 C25            8.9464    -2.7964     1.7790 C.ar    
  26 C26           10.0089    -3.5846     1.3777 C.ar    
  27 C27            7.9406    -3.3327     2.5612 C.ar    
  28 C28            7.9932    -4.6646     2.9400 C.ar    
  29 C29            9.0598    -5.4594     2.5314 C.ar    
  30 C30           10.0675    -4.9140     1.7521 C.ar    
  31 O31            9.1160    -6.7670     2.9006 O.3     
  32 C32           10.2401    -7.5223     2.4445 C.3     
  33 O33            7.0049    -5.1936     3.7099 O.3     
  34 C34            5.9417    -4.3187     4.0923 C.3     
  35 C35           -0.0947    -0.0264     0.0259 C.3     
  36 F36           -1.4537     0.1150     0.3265 F       
  37 F37            0.4347     1.2171    -0.3356 F       
  38 F38            0.0570    -0.9244    -1.0360 F       
  39 C39            7.1437     1.4167     0.2244 C.2     
  40 O40            8.3492     1.2642     0.2360 O.2     
  41 O41            6.6209     2.6572     0.2855 O.3     
  42 H42           -1.1157    -0.6519     2.4743 H       
  43 H43            0.1584    -1.5106     4.4285 H       
  44 H44            2.5832    -1.8713     4.2239 H       
  45 H45            3.9257    -2.8247    -0.0653 H       
  46 H46            6.3610    -3.1428    -0.0446 H       
  47 H47            4.4437     1.4085     0.1737 H       
  48 H48            9.9002    -0.9604     1.2558 H       
  49 H49            8.3617    -0.7745     2.1314 H       
  50 H50            7.0989    -1.3886    -2.2737 H       
  51 H51            9.8527    -1.6176    -3.5704 H       
  52 H52            8.7652    -2.9762    -3.1966 H       
  53 H53            8.5607    -2.3006    -5.5736 H       
  54 H54            7.0415    -2.0084    -4.6935 H       
  55 H55            9.1891     0.0800    -5.2793 H       
  56 H56            7.5228     1.6676    -4.3565 H       
  57 H57            6.4354     0.3089    -3.9827 H       
  58 H58            7.7273     0.9919    -1.9794 H       
  59 H59            9.2466     0.6997    -2.8596 H       
  60 H60            6.3780    -0.3108    -6.4024 H       
  61 H61            7.4654     1.0478    -6.7762 H       
  62 H62            7.8972    -0.6030    -7.2826 H       
  63 H63           10.7948    -3.1609     0.7700 H       
  64 H64            7.1141    -2.7136     2.8773 H       
  65 H65           10.8963    -5.5288     1.4333 H       
  66 H66           10.2581    -7.5247     1.3547 H       
  67 H67           11.1579    -7.0717     2.8221 H       
  68 H68           10.1616    -8.5466     2.8088 H       
  69 H69            6.3459    -3.4851     4.6667 H       
  70 H70            5.4455    -3.9380     3.1995 H       
  71 H71            5.2227    -4.8655     4.7023 H       
  72 H72            7.2445     3.3944     0.3374 H       
@<TRIPOS>BOND
   1    1    2 ar
   2    1    6 ar
   3    1   42 1
   4    2    3 ar
   5    2   43 1
   6    3    4 ar
   7    3   44 1
   8    4    5 ar
   9    5    6 ar
  10    5    7 1
  11    6   35 1
  12    7    8 1
  13    8    9 ar
  14    8   13 ar
  15    9   10 ar
  16    9   45 1
  17   10   11 ar
  18   10   46 1
  19   11   12 ar
  20   11   14 1
  21   12   13 ar
  22   12   39 1
  23   13   47 1
  24   14   15 am
  25   14   16 1
  26   15   17 2
  27   15   18 1
  28   16   25 1
  29   16   48 1
  30   16   49 1
  31   18   19 1
  32   18   23 1
  33   18   50 1
  34   19   20 1
  35   19   51 1
  36   19   52 1
  37   20   21 1
  38   20   53 1
  39   20   54 1
  40   21   22 1
  41   21   24 1
  42   21   55 1
  43   22   23 1
  44   22   56 1
  45   22   57 1
  46   23   58 1
  47   23   59 1
  48   24   60 1
  49   24   61 1
  50   24   62 1
  51   25   26 ar
  52   25   27 ar
  53   26   30 ar
  54   26   63 1
  55   27   28 ar
  56   27   64 1
  57   28   29 ar
  58   28   33 1
  59   29   30 ar
  60   29   31 1
  61   30   65 1
  62   31   32 1
  63   32   66 1
  64   32   67 1
  65   32   68 1
  66   33   34 1
  67   34   69 1
  68   34   70 1
  69   34   71 1
  70   35   36 1
  71   35   37 1
  72   35   38 1
  73   39   40 2
  74   39   41 1
  75   41   72 1

#	End of record

