#	Name: ASD01910146
#	Creating user name:	WinNT
#	Creation time:	15. 06. 2019 19:55

#	Modifying user name:	WinNT
#	Modification time:	15. 06. 2019 19:55

#	Program:	/corina/corina34_cracker 3.40 0067  02.08.2006

@<TRIPOS>MOLECULE
ASD01910146
  38   40    0    0    0
SMALL
NO_CHARGES


@<TRIPOS>ATOM
   1 C1             0.0995     1.1582    -0.5369 C.ar    
   2 C2             0.0656    -0.1081     0.0202 C.ar    
   3 C3             1.2085    -0.6595     0.5725 C.ar    
   4 C4             2.3906     0.0507     0.5717 C.ar    
   5 C5             2.4327     1.3303     0.0108 C.ar    
   6 C6             1.2743     1.8803    -0.5456 C.ar    
   7 C7             3.6563     2.0742     0.0065 C.1     
   8 C8             4.6594     2.6841     0.0031 C.1     
   9 C9             5.8830     3.4280    -0.0012 C.ar    
  10 N10            5.9104     4.6458    -0.5384 N.ar    
  11 C11            7.0119     5.3631    -0.5630 C.ar    
  12 C12            8.1986     4.8631    -0.0209 C.ar    
  13 C13            8.2019     3.5827     0.5526 C.ar    
  14 C14            7.0341     2.8685     0.5645 C.ar    
  15 C15            9.4333     5.6715    -0.0516 C.2     
  16 O16            9.4264     6.8083     0.3797 O.2     
  17 N17           10.5681     5.1495    -0.5576 N.am    
  18 C18           11.7657     5.9848    -0.6618 C.3     
  19 C19           12.8547     5.4349     0.2655 C.3     
  20 S20           13.1966     3.7094    -0.1913 S.3     
  21 C21           11.5465     2.9523    -0.1076 C.3     
  22 C22           10.5916     3.7518    -0.9916 C.3     
  23 H23           -0.7954     1.5802    -0.9701 H       
  24 H24           -0.8575    -0.6688     0.0244 H       
  25 H25            1.1744    -1.6483     1.0055 H       
  26 H26            3.2816    -0.3806     1.0037 H       
  27 H27            1.2994     2.8683    -0.9810 H       
  28 H28            6.9995     6.3477    -1.0066 H       
  29 H29            9.1050     3.1711     0.9786 H       
  30 H30            7.0035     1.8800     0.9985 H       
  31 H31           12.1261     5.9763    -1.6905 H       
  32 H32           11.5224     7.0066    -0.3706 H       
  33 H33           13.7622     6.0286     0.1555 H       
  34 H34           12.5106     5.4779     1.2989 H       
  35 H35           11.5985     1.9227    -0.4615 H       
  36 H36           11.1886     2.9692     0.9218 H       
  37 H37            9.5888     3.3311    -0.9165 H       
  38 H38           10.9289     3.7038    -2.0270 H       
@<TRIPOS>BOND
   1    1    2 ar
   2    1    6 ar
   3    1   23 1
   4    2    3 ar
   5    2   24 1
   6    3    4 ar
   7    3   25 1
   8    4    5 ar
   9    4   26 1
  10    5    6 ar
  11    5    7 1
  12    6   27 1
  13    7    8 3
  14    8    9 1
  15    9   10 ar
  16    9   14 ar
  17   10   11 ar
  18   11   12 ar
  19   11   28 1
  20   12   13 ar
  21   12   15 1
  22   13   14 ar
  23   13   29 1
  24   14   30 1
  25   15   16 2
  26   15   17 am
  27   17   18 1
  28   17   22 1
  29   18   19 1
  30   18   31 1
  31   18   32 1
  32   19   20 1
  33   19   33 1
  34   19   34 1
  35   20   21 1
  36   21   22 1
  37   21   35 1
  38   21   36 1
  39   22   37 1
  40   22   38 1

#	End of record

