#	Name: ASD03130018
#	Creating user name:	WinNT
#	Creation time:	15. 06. 2019 20:33

#	Modifying user name:	WinNT
#	Modification time:	15. 06. 2019 20:33

#	Program:	/corina/corina34_cracker 3.40 0067  02.08.2006

@<TRIPOS>MOLECULE
ASD03130018
  57   60    0    0    0
SMALL
NO_CHARGES


@<TRIPOS>ATOM
   1 O1            -0.0173     1.4248     0.0099 O.3     
   2 O2            10.5947    -1.2672     4.6055 O.2     
   3 N3             8.3840    -1.1332     4.4371 N.am    
   4 N4             9.4250    -1.8065     6.4151 N.am    
   5 N5            12.3009    -3.8284     7.6747 N.3     
   6 N6             4.7672    -0.7877     3.7152 N.ar    
   7 N7             2.7997    -0.3457     2.5344 N.pl3   
   8 N8             4.8853    -0.0835     1.5144 N.ar    
   9 C9             8.3060    -0.6824     3.0431 C.3     
  10 C10            6.8503    -0.5248     2.6950 C.ar    
  11 C11            7.0057    -1.2473     4.9261 C.3     
  12 C12           10.6459    -2.0939     7.1720 C.3     
  13 C13            6.0859    -0.8561     3.7995 C.ar    
  14 C14           10.3714    -1.9239     8.6688 C.3     
  15 C15            9.0240     0.6601     2.8911 C.3     
  16 C16            8.9493    -1.7232     2.1245 C.3     
  17 C17            9.5072    -1.3976     5.1335 C.2     
  18 C18           11.0890    -3.5332     6.8998 C.3     
  19 C19           11.6346    -2.2841     9.4555 C.3     
  20 C20            2.1334     0.0727     1.2986 C.3     
  21 C21           12.0490    -3.7179     9.1172 C.3     
  22 C22            6.2078    -0.1309     1.5330 C.ar    
  23 C23            0.7175    -0.5102     1.2573 C.3     
  24 C24            2.0458     1.6014     1.2560 C.3     
  25 C25            4.1814    -0.4071     2.5890 C.ar    
  26 C26            0.0021    -0.0041     0.0020 C.3     
  27 C27            1.2791     2.0260     0.0007 C.3     
  28 H28            6.8044    -2.2754     5.2272 H       
  29 H29            6.8576    -0.5777     5.7733 H       
  30 H30           11.4341    -1.4059     6.8662 H       
  31 H31           10.0973    -0.8890     8.8736 H       
  32 H32            9.5563    -2.5834     8.9668 H       
  33 H33           10.0702     0.5468     3.1750 H       
  34 H34            8.9626     0.9896     1.8539 H       
  35 H35            8.5506     1.4004     3.5361 H       
  36 H36            8.4230    -2.6723     2.2261 H       
  37 H37            8.8882    -1.3827     1.0908 H       
  38 H38            9.9949    -1.8560     2.4021 H       
  39 H39           11.2990    -3.6537     5.8371 H       
  40 H40           10.2944    -4.2194     7.1929 H       
  41 H41           12.4389    -1.5995     9.1858 H       
  42 H42           11.4326    -2.2061    10.5238 H       
  43 H43            8.5574    -1.9105     6.8362 H       
  44 H44            2.7004    -0.2855     0.4394 H       
  45 H45           11.2499    -4.4032     9.3999 H       
  46 H46           12.9564    -3.9725     9.6649 H       
  47 H47            6.7778     0.1334     0.6545 H       
  48 H48           12.6671    -4.7390     7.4403 H       
  49 H49            0.7722    -1.5985     1.2315 H       
  50 H50            0.1670    -0.1932     2.1431 H       
  51 H51            1.5222     1.9611     2.1417 H       
  52 H52            3.0505     2.0232     1.2292 H       
  53 H53            2.2727    -0.5797     3.3144 H       
  54 H54           -1.0204    -0.3814    -0.0107 H       
  55 H55            0.5305    -0.3556    -0.8842 H       
  56 H56            1.8242     1.7010    -0.8855 H       
  57 H57            1.1765     3.1110    -0.0129 H       
@<TRIPOS>BOND
   1    1   26 1
   2    1   27 1
   3    2   17 2
   4    3    9 1
   5    3   11 1
   6    3   17 am
   7    4   17 am
   8    4   43 1
   9    4   12 1
  10    5   18 1
  11    5   21 1
  12    5   48 1
  13    6   13 ar
  14    6   25 ar
  15    7   20 1
  16    7   25 1
  17    7   53 1
  18    8   22 ar
  19    8   25 ar
  20    9   10 1
  21    9   15 1
  22    9   16 1
  23   10   13 ar
  24   10   22 ar
  25   11   13 1
  26   11   28 1
  27   11   29 1
  28   12   14 1
  29   12   18 1
  30   12   30 1
  31   14   19 1
  32   14   31 1
  33   14   32 1
  34   15   33 1
  35   15   34 1
  36   15   35 1
  37   16   36 1
  38   16   37 1
  39   16   38 1
  40   18   39 1
  41   18   40 1
  42   19   21 1
  43   19   41 1
  44   19   42 1
  45   20   23 1
  46   20   24 1
  47   20   44 1
  48   21   45 1
  49   21   46 1
  50   22   47 1
  51   23   26 1
  52   23   49 1
  53   23   50 1
  54   24   27 1
  55   24   51 1
  56   24   52 1
  57   26   54 1
  58   26   55 1
  59   27   56 1
  60   27   57 1

#	End of record

