#	Name: ASD03090313
#	Creating user name:	WinNT
#	Creation time:	15. 06. 2019 20:28

#	Modifying user name:	WinNT
#	Modification time:	15. 06. 2019 20:28

#	Program:	/corina/corina34_cracker 3.40 0067  02.08.2006

@<TRIPOS>MOLECULE
ASD03090313
  49   51    0    0    0
SMALL
NO_CHARGES


@<TRIPOS>ATOM
   1 N1             0.4505     1.5120     1.4841 N.ar    
   2 C2             0.4127     0.1939     1.4492 C.ar    
   3 C3             1.5388    -0.5392     1.1357 C.ar    
   4 C4             2.7308     0.1362     0.8525 C.ar    
   5 C5             2.7249     1.5344     0.9009 C.ar    
   6 C6             1.5532     2.1877     1.2239 C.ar    
   7 C7             3.9640    -0.6078     0.5116 C.2     
   8 N8             5.7411    -3.4560    -0.5299 N.pl3   
   9 C9             4.8147    -4.4443    -0.8727 C.ar    
  10 C10            5.1096    -5.7830    -0.6458 C.ar    
  11 C11            4.1933    -6.7599    -0.9844 C.ar    
  12 C12            2.9822    -6.4089    -1.5496 C.ar    
  13 C13            2.6822    -5.0731    -1.7790 C.ar    
  14 C14            3.5959    -4.0896    -1.4353 C.ar    
  15 N15            4.0276    -1.8635     0.1168 N.2     
  16 C16            5.2986    -2.2025    -0.1025 C.2     
  17 N17            6.0674    -1.1676     0.1491 N.2     
  18 N18            5.2232    -0.1174     0.5447 N.pl3   
  19 C19            5.6276     1.2379     0.9262 C.3     
  20 C20            5.7309     2.1109    -0.3261 C.3     
  21 O21            1.4908    -4.7298    -2.3354 O.3     
  22 C22            6.1470     3.5051     0.0664 C.2     
  23 N23            6.3027     4.4531    -0.8789 N.am    
  24 O24            6.3417     3.7741     1.2328 O.2     
  25 C25            6.7071     5.8085    -0.4974 C.3     
  26 C26            6.0674     4.1282    -2.2879 C.3     
  27 C27            0.5950    -5.7950    -2.6591 C.3     
  28 F28            0.2762    -6.5056    -1.4970 F       
  29 F29           -0.5738    -5.2676    -3.2186 F       
  30 F30            1.2055    -6.6546    -3.5787 F       
  31 H31           -0.5122    -0.3185     1.6693 H       
  32 H32            1.5007    -1.6183     1.1096 H       
  33 H33            3.6240     2.0940     0.6890 H       
  34 H34            1.5385     3.2668     1.2635 H       
  35 H35            6.6915    -3.6407    -0.5889 H       
  36 H36            6.0557    -6.0600    -0.2048 H       
  37 H37            4.4241    -7.7999    -0.8073 H       
  38 H38            2.2681    -7.1750    -1.8135 H       
  39 H39            3.3641    -3.0499    -1.6131 H       
  40 H40            4.8862     1.6611     1.6040 H       
  41 H41            6.5964     1.2013     1.4245 H       
  42 H42            6.4723     1.6877    -1.0038 H       
  43 H43            4.7622     2.1475    -0.8243 H       
  44 H44            7.7948     5.8792    -0.5064 H       
  45 H45            6.2906     6.5248    -1.2055 H       
  46 H46            6.3369     6.0299     0.5036 H       
  47 H47            5.7768     3.0813    -2.3757 H       
  48 H48            5.2702     4.7606    -2.6784 H       
  49 H49            6.9803     4.3008    -2.8579 H       
@<TRIPOS>BOND
   1    1    2 ar
   2    1    6 ar
   3    2    3 ar
   4    2   31 1
   5    3    4 ar
   6    3   32 1
   7    4    5 ar
   8    4    7 1
   9    5    6 ar
  10    5   33 1
  11    6   34 1
  12    7   15 2
  13    7   18 1
  14    8    9 1
  15    8   16 1
  16    8   35 1
  17    9   10 ar
  18    9   14 ar
  19   10   11 ar
  20   10   36 1
  21   11   12 ar
  22   11   37 1
  23   12   13 ar
  24   12   38 1
  25   13   14 ar
  26   13   21 1
  27   14   39 1
  28   15   16 1
  29   16   17 2
  30   17   18 1
  31   18   19 1
  32   19   20 1
  33   19   40 1
  34   19   41 1
  35   20   22 1
  36   20   42 1
  37   20   43 1
  38   21   27 1
  39   22   23 am
  40   22   24 2
  41   23   25 1
  42   23   26 1
  43   25   44 1
  44   25   45 1
  45   25   46 1
  46   26   47 1
  47   26   48 1
  48   26   49 1
  49   27   28 1
  50   27   29 1
  51   27   30 1

#	End of record

