#	Name: ASD04910010
#	Creating user name:	WinNT
#	Creation time:	15. 06. 2019 20:55

#	Modifying user name:	WinNT
#	Modification time:	15. 06. 2019 20:55

#	Program:	/corina/corina34_cracker 3.40 0067  02.08.2006

@<TRIPOS>MOLECULE
ASD04910010
  64   66    0    0    0
SMALL
NO_CHARGES


@<TRIPOS>ATOM
   1 C1            -0.3726     1.6678     0.8701 C.2     
   2 C2            -0.3121     0.1706     0.7095 C.3     
   3 C3             1.1412    -0.2956     0.8169 C.3     
   4 O4             0.6425     2.2973     1.0519 O.2     
   5 O5            -1.5536     2.3025     0.8057 O.3     
   6 C6             2.3864    -2.3878     0.7199 C.2     
   7 C7             2.4457    -3.8566     0.5623 C.ar    
   8 C8             3.6727    -4.5191     0.6230 C.ar    
   9 C9             3.7211    -5.8899     0.4757 C.ar    
  10 C10            2.5568    -6.6079     0.2677 C.ar    
  11 C11            1.3372    -5.9573     0.2065 C.ar    
  12 C12            1.2743    -4.5875     0.3580 C.ar    
  13 O13            3.4076    -1.7544     0.9028 O.2     
  14 N14            1.2000    -1.7511     0.6608 N.am    
  15 C15            2.6173    -8.1050     0.1066 C.3     
  16 C16            2.2352    -8.7759     1.4275 C.3     
  17 C17            2.4390   -10.2877     1.3093 C.3     
  18 C18            3.8711   -10.5752     0.8538 C.3     
  19 O19            1.7050    -8.5114    -0.9154 O.3     
  20 C20            2.1459    -8.4419    -2.1995 C.ar    
  21 C21            1.3535    -8.9229    -3.2318 C.ar    
  22 C22            1.8006    -8.8522    -4.5361 C.ar    
  23 C23            3.0434    -8.2996    -4.8147 C.ar    
  24 C24            3.8360    -7.8184    -3.7813 C.ar    
  25 C25            3.3857    -7.8848    -2.4778 C.ar    
  26 N26            3.4984    -8.2279    -6.1398 N.pl3   
  27 N27            2.8069    -8.6724    -7.2741 N.2     
  28 C28            3.5505    -8.4365    -8.3252 C.2     
  29 C29            4.7380    -7.8349    -7.8954 C.2     
  30 C30            4.6794    -7.7123    -6.5488 C.2     
  31 C31            5.8786    -7.3950    -8.7768 C.3     
  32 F32            5.5728    -7.6798   -10.1119 F       
  33 F33            6.0791    -6.0185    -8.6276 F       
  34 F34            7.0425    -8.0784    -8.4089 F       
  35 C35            2.1954   -10.9431     2.6702 C.3     
  36 C36            1.4544   -10.8566     0.2857 C.3     
  37 H37           -0.9044    -0.3031     1.4924 H       
  38 H38           -0.7114    -0.1066    -0.2661 H       
  39 H39            1.7335     0.1780     0.0340 H       
  40 H40            1.5405    -0.0184     1.7926 H       
  41 H41           -1.5421     3.2633     0.9145 H       
  42 H42            4.5824    -3.9597     0.7846 H       
  43 H43            4.6699    -6.4037     0.5224 H       
  44 H44            0.4320    -6.5236     0.0439 H       
  45 H45            0.3212    -4.0814     0.3145 H       
  46 H46            0.3850    -2.2565     0.5149 H       
  47 H47            3.6292    -8.3999    -0.1713 H       
  48 H48            2.8637    -8.3861     2.2282 H       
  49 H49            1.1893    -8.5668     1.6520 H       
  50 H50            4.5719   -10.1980     1.5986 H       
  51 H51            4.0068   -11.6506     0.7389 H       
  52 H52            4.0547   -10.0818    -0.1006 H       
  53 H53            0.3868    -9.3530    -3.0150 H       
  54 H54            1.1838    -9.2269    -5.3396 H       
  55 H55            4.8029    -7.3885    -3.9975 H       
  56 H56            4.0003    -7.5065    -1.6744 H       
  57 H57            3.2918    -8.6669    -9.3482 H       
  58 H58            5.4405    -7.2823    -5.9145 H       
  59 H59            1.1752   -10.7383     2.9947 H       
  60 H60            2.3406   -12.0201     2.5860 H       
  61 H61            2.8969   -10.5378     3.3994 H       
  62 H62            1.7370   -10.5251    -0.7134 H       
  63 H63            1.4761   -11.9456     0.3270 H       
  64 H64            0.4485   -10.5043     0.5144 H       
@<TRIPOS>BOND
   1    1    2 1
   2    1    4 2
   3    1    5 1
   4    2    3 1
   5    2   37 1
   6    2   38 1
   7    3   14 1
   8    3   39 1
   9    3   40 1
  10    5   41 1
  11    6    7 1
  12    6   13 2
  13    6   14 am
  14    7    8 ar
  15    7   12 ar
  16    8    9 ar
  17    8   42 1
  18    9   10 ar
  19    9   43 1
  20   10   11 ar
  21   10   15 1
  22   11   12 ar
  23   11   44 1
  24   12   45 1
  25   14   46 1
  26   15   16 1
  27   15   19 1
  28   15   47 1
  29   16   17 1
  30   16   48 1
  31   16   49 1
  32   17   18 1
  33   17   35 1
  34   17   36 1
  35   18   50 1
  36   18   51 1
  37   18   52 1
  38   19   20 1
  39   20   21 ar
  40   20   25 ar
  41   21   22 ar
  42   21   53 1
  43   22   23 ar
  44   22   54 1
  45   23   24 ar
  46   23   26 1
  47   24   25 ar
  48   24   55 1
  49   25   56 1
  50   26   27 1
  51   26   30 1
  52   27   28 2
  53   28   29 1
  54   28   57 1
  55   29   30 2
  56   29   31 1
  57   30   58 1
  58   31   32 1
  59   31   33 1
  60   31   34 1
  61   35   59 1
  62   35   60 1
  63   35   61 1
  64   36   62 1
  65   36   63 1
  66   36   64 1

#	End of record

