#	Name: ASD01814285
#	Creating user name:	WinNT
#	Creation time:	15. 06. 2019 19:32

#	Modifying user name:	WinNT
#	Modification time:	15. 06. 2019 19:32

#	Program:	/corina/corina34_cracker 3.40 0067  02.08.2006

@<TRIPOS>MOLECULE
ASD01814285
  51   55    0    0    0
SMALL
NO_CHARGES


@<TRIPOS>ATOM
   1 C1             0.0186     1.3046    -0.0586 C.ar    
   2 C2             0.0510    -0.0852    -0.0059 C.ar    
   3 C3             1.2356    -0.7581     0.0401 C.ar    
   4 C4             2.4432    -0.0435     0.0344 C.ar    
   5 C5             2.4063     1.3713    -0.0193 C.ar    
   6 C6             1.1737     2.0306    -0.0656 C.ar    
   7 C7             3.6842    -0.7125     0.0808 C.ar    
   8 C8             4.8513    -0.0252     0.0750 C.ar    
   9 C9             4.8705     1.3774     0.0232 C.ar    
  10 C10            3.6678     2.1061    -0.0248 C.ar    
  11 C11            6.1297     2.1321     0.0169 C.2     
  12 N12            6.0479     3.4819    -0.0348 N.am    
  13 C13            4.8365     4.0980    -0.0782 C.2     
  14 N14            3.7095     3.4483    -0.0735 N.2     
  15 C15            3.7120    -2.2182     0.1383 C.3     
  16 C16            3.6214    -2.7760    -1.2587 C.ar    
  17 C17            4.7748    -3.0127    -1.9834 C.ar    
  18 C18            4.6945    -3.5240    -3.2643 C.ar    
  19 C19            3.4551    -3.8000    -3.8232 C.ar    
  20 C20            2.2993    -3.5616    -3.0940 C.ar    
  21 C21            2.3852    -3.0555    -1.8114 C.ar    
  22 O22            7.2067     1.5652     0.0570 O.2     
  23 C23            7.2099     4.2437    -0.0430 C.2     
  24 N24            7.8372     4.7592     1.0342 N.pl3   
  25 N25            8.9671     5.4584     0.5961 N.2     
  26 C26            9.0401     5.3811    -0.7038 C.2     
  27 C27            7.9469     4.6122    -1.1622 C.2     
  28 C28            7.4078     4.6121     2.4271 C.3     
  29 O29            3.3734    -4.3026    -5.0832 O.3     
  30 C30            2.0645    -4.5627    -5.5943 C.3     
  31 C31            7.6491     4.2832    -2.5237 C.1     
  32 N32            7.4129     4.0221    -3.6038 N.1     
  33 H33           -0.9325     1.8148    -0.0989 H       
  34 H34           -0.8760    -0.6392    -0.0010 H       
  35 H35            1.2446    -1.8373     0.0811 H       
  36 H36            1.1364     3.1092    -0.1071 H       
  37 H37            5.7850    -0.5667     0.1114 H       
  38 H38            4.8086     5.1769    -0.1181 H       
  39 H39            4.6424    -2.5470     0.6013 H       
  40 H40            2.8671    -2.5749     0.7275 H       
  41 H41            5.7394    -2.7973    -1.5480 H       
  42 H42            5.5957    -3.7084    -3.8301 H       
  43 H43            1.3333    -3.7756    -3.5269 H       
  44 H44            1.4857    -2.8701    -1.2431 H       
  45 H45            9.8062     5.8246    -1.3226 H       
  46 H46            7.7817     3.6687     2.8250 H       
  47 H47            7.8033     5.4380     3.0184 H       
  48 H48            6.3188     4.6203     2.4744 H       
  49 H49            1.5630    -5.2899    -4.9558 H       
  50 H50            1.4902    -3.6364    -5.6107 H       
  51 H51            2.1420    -4.9600    -6.6064 H       
@<TRIPOS>BOND
   1    1    2 ar
   2    1    6 ar
   3    1   33 1
   4    2    3 ar
   5    2   34 1
   6    3    4 ar
   7    3   35 1
   8    4    5 ar
   9    4    7 ar
  10    5    6 ar
  11    5   10 ar
  12    6   36 1
  13    7    8 ar
  14    7   15 1
  15    8    9 ar
  16    8   37 1
  17    9   10 ar
  18    9   11 1
  19   10   14 1
  20   11   12 am
  21   11   22 2
  22   12   13 1
  23   12   23 1
  24   13   14 2
  25   13   38 1
  26   15   16 1
  27   15   39 1
  28   15   40 1
  29   16   17 ar
  30   16   21 ar
  31   17   18 ar
  32   17   41 1
  33   18   19 ar
  34   18   42 1
  35   19   20 ar
  36   19   29 1
  37   20   21 ar
  38   20   43 1
  39   21   44 1
  40   23   24 1
  41   23   27 2
  42   24   25 1
  43   24   28 1
  44   25   26 2
  45   26   27 1
  46   26   45 1
  47   27   31 1
  48   28   46 1
  49   28   47 1
  50   28   48 1
  51   29   30 1
  52   30   49 1
  53   30   50 1
  54   30   51 1
  55   31   32 3

#	End of record

