#	Name: ASD01901572
#	Creating user name:	WinNT
#	Creation time:	15. 06. 2019 19:54

#	Modifying user name:	WinNT
#	Modification time:	15. 06. 2019 19:54

#	Program:	/corina/corina34_cracker 3.40 0067  02.08.2006

@<TRIPOS>MOLECULE
ASD01901572
  48   51    0    0    0
SMALL
NO_CHARGES


@<TRIPOS>ATOM
   1 C1            -0.0178     1.4608     0.0101 C.3     
   2 N2             0.0021    -0.0041     0.0020 N.am    
   3 C3             0.0055    -0.6596    -1.1700 C.2     
   4 O4             0.0972    -0.0266    -2.2034 O.2     
   5 N5            -0.0896    -1.9984    -1.2276 N.am    
   6 C6            -0.4309    -2.7160    -0.1417 C.2     
   7 O7            -0.4334    -3.9274    -0.1914 O.2     
   8 C8            -0.8098    -2.0128     1.1374 C.3     
   9 C9             0.0240    -0.7326     1.2718 C.3     
  10 C10           -0.5678     0.1474     2.3747 C.3     
  11 C11            1.4459    -1.0881     1.6222 C.2     
  12 C12            1.8648    -2.1671     2.3239 C.2     
  13 N13            3.1979    -2.0808     2.3937 N.2     
  14 N14            3.5792    -1.0187     1.7762 N.2     
  15 N15            2.5613    -0.3960     1.2937 N.pl3   
  16 H16            2.5888     0.4289     0.7841 H       
  17 C17            0.1702    -2.6580    -2.4377 C.ar    
  18 C18           -0.8636    -2.8836    -3.3409 C.ar    
  19 F19           -2.1156    -2.4669    -3.0513 F       
  20 C20           -0.6115    -3.5323    -4.5326 C.ar    
  21 C21            0.6843    -3.9628    -4.8316 C.ar    
  22 C22            1.7205    -3.7343    -3.9217 C.ar    
  23 C23            1.4623    -3.0800    -2.7345 C.ar    
  24 F24            2.4642    -2.8539    -1.8569 F       
  25 C25            0.9495    -4.6366    -6.0670 C.1     
  26 C26            1.1670    -5.1890    -7.0799 C.1     
  27 C27            1.4322    -5.8629    -8.3152 C.ar    
  28 C28            0.3986    -6.0875    -9.2285 C.ar    
  29 C29            0.6616    -6.7372   -10.4163 C.ar    
  30 C30            1.9452    -7.1663   -10.7047 C.ar    
  31 C31            2.9737    -6.9478    -9.8050 C.ar    
  32 C32            2.7271    -6.2940    -8.6160 C.ar    
  33 H33            1.0048     1.8381     0.0023 H       
  34 H34           -0.5450     1.8219    -0.8730 H       
  35 H35           -0.5280     1.8123     0.9069 H       
  36 H36           -1.8698    -1.7598     1.1137 H       
  37 H37           -0.6095    -2.6670     1.9859 H       
  38 H38           -1.5962     0.4050     2.1213 H       
  39 H39           -0.5516    -0.3949     3.3201 H       
  40 H40            0.0226     1.0588     2.4684 H       
  41 H41            1.2446    -2.9447     2.7449 H       
  42 H42           -1.4146    -3.7074    -5.2332 H       
  43 H43            2.7229    -4.0658    -4.1494 H       
  44 H44           -0.6037    -5.7535    -9.0046 H       
  45 H45           -0.1362    -6.9119   -11.1229 H       
  46 H46            2.1453    -7.6746   -11.6364 H       
  47 H47            3.9730    -7.2858   -10.0367 H       
  48 H48            3.5317    -6.1196    -7.9170 H       
@<TRIPOS>BOND
   1    1    2 1
   2    1   33 1
   3    1   34 1
   4    1   35 1
   5    2    9 1
   6    2    3 am
   7    3    4 2
   8    3    5 am
   9    5    6 am
  10    5   17 1
  11    6    7 2
  12    6    8 1
  13    8    9 1
  14    8   36 1
  15    8   37 1
  16    9   10 1
  17    9   11 1
  18   10   38 1
  19   10   39 1
  20   10   40 1
  21   11   15 1
  22   11   12 2
  23   12   13 1
  24   12   41 1
  25   13   14 2
  26   14   15 1
  27   15   16 1
  28   17   23 ar
  29   17   18 ar
  30   18   19 1
  31   18   20 ar
  32   20   21 ar
  33   20   42 1
  34   21   22 ar
  35   21   25 1
  36   22   23 ar
  37   22   43 1
  38   23   24 1
  39   25   26 3
  40   26   27 1
  41   27   32 ar
  42   27   28 ar
  43   28   29 ar
  44   28   44 1
  45   29   30 ar
  46   29   45 1
  47   30   31 ar
  48   30   46 1
  49   31   32 ar
  50   31   47 1
  51   32   48 1

#	End of record

