#	Name: ASD07030046
#	Creating user name:	WinNT
#	Creation time:	15. 06. 2019 21:08

#	Modifying user name:	WinNT
#	Modification time:	15. 06. 2019 21:08

#	Program:	/corina/corina34_cracker 3.40 0067  02.08.2006

@<TRIPOS>MOLECULE
ASD07030046
  22   23    0    0    0
SMALL
NO_CHARGES


@<TRIPOS>ATOM
   1 C1            -0.0167     1.3831     0.0096 C.ar    
   2 C2             0.0021    -0.0041     0.0020 C.ar    
   3 C3             1.2083    -0.6773    -0.0131 C.ar    
   4 C4             2.3962     0.0303    -0.0207 C.ar    
   5 C5             2.3801     1.4128    -0.0131 C.ar    
   6 C6             1.1765     2.0907     0.0021 C.ar    
   7 O7            -1.2021     2.0477     0.0189 O.3     
   8 C8             3.7106    -0.7066    -0.0367 C.3     
   9 C9             4.6476    -0.4543    -1.2195 C.3     
  10 C10            4.9849     0.1173     0.1590 C.3     
  11 N11            5.4526    -1.5851    -1.7004 N.3     
  12 H12           -0.9255    -0.5572     0.0083 H       
  13 H13            1.2235    -1.7571    -0.0187 H       
  14 H14            3.3093     1.9633    -0.0186 H       
  15 H15            1.1645     3.1706     0.0076 H       
  16 H16           -1.5410     2.2352     0.9049 H       
  17 H17            3.6915    -1.7117     0.3847 H       
  18 H18            4.3134     0.2448    -1.9862 H       
  19 H19            4.8725     1.1924     0.2994 H       
  20 H20            5.8040    -0.3457     0.7092 H       
  21 H21            6.0325    -1.3108    -2.4793 H       
  22 H22            6.0094    -1.9754    -0.9550 H       
@<TRIPOS>BOND
   1    1    2 ar
   2    1    6 ar
   3    1    7 1
   4    2    3 ar
   5    2   12 1
   6    3    4 ar
   7    3   13 1
   8    4    5 ar
   9    4    8 1
  10    5    6 ar
  11    5   14 1
  12    6   15 1
  13    7   16 1
  14    8    9 1
  15    8   10 1
  16    8   17 1
  17    9   10 1
  18    9   11 1
  19    9   18 1
  20   10   19 1
  21   10   20 1
  22   11   21 1
  23   11   22 1

#	End of record

