#	Name: ASD04910029
#	Creating user name:	WinNT
#	Creation time:	15. 06. 2019 20:55

#	Modifying user name:	WinNT
#	Modification time:	15. 06. 2019 20:55

#	Program:	/corina/corina34_cracker 3.40 0067  02.08.2006

@<TRIPOS>MOLECULE
ASD04910029
  65   68    0    0    0
SMALL
NO_CHARGES


@<TRIPOS>ATOM
   1 C1            -0.2694     1.4347     0.2404 C.2     
   2 C2            -0.2090    -0.0707     0.2043 C.3     
   3 C3             1.2519    -0.5212     0.1427 C.3     
   4 O4             0.7513     2.0809     0.2190 O.2     
   5 O5            -1.4572     2.0577     0.2908 O.3     
   6 C6             2.5031    -2.6100     0.0514 C.2     
   7 C7             2.5623    -4.0868     0.0160 C.ar    
   8 C8             3.7957    -4.7377    -0.0422 C.ar    
   9 C9             3.8440    -6.1160    -0.0745 C.ar    
  10 C10            2.6733    -6.8530    -0.0499 C.ar    
  11 C11            1.4474    -6.2141     0.0078 C.ar    
  12 C12            1.3854    -4.8365     0.0464 C.ar    
  13 O13            3.5299    -1.9599     0.0299 O.2     
  14 N14            1.3106    -1.9846     0.1076 N.am    
  15 C15            2.7337    -8.3584    -0.0864 C.3     
  16 C16            2.5543    -8.9105     1.3291 C.3     
  17 C17            2.7396   -10.4292     1.3115 C.3     
  18 C18            2.5602   -10.9813     2.7271 C.3     
  19 O19            1.6915    -8.8566    -0.9276 O.3     
  20 C20            1.9543    -9.9902    -1.6303 C.ar    
  21 C21            3.2167   -10.5632    -1.5753 C.ar    
  22 C22            3.4842   -11.7146    -2.2888 C.ar    
  23 C23            2.4897   -12.2990    -3.0614 C.ar    
  24 C24            1.2266   -11.7253    -3.1161 C.ar    
  25 C25            0.9585   -10.5770    -2.3977 C.ar    
  26 N26            3.9862   -14.1517    -3.8229 N.2     
  27 N27            2.7611   -13.4687    -3.7869 N.pl3   
  28 C28            1.8866   -14.1374    -4.5759 C.2     
  29 C29            2.5332   -15.2002    -5.0899 C.2     
  30 C30            2.0015   -16.2537    -6.0301 C.3     
  31 C31            3.1961   -16.9926    -6.6463 C.3     
  32 C32            4.1491   -17.4473    -5.5387 C.3     
  33 C33            4.8803   -16.2327    -4.9534 C.3     
  34 C34            3.8502   -15.1873    -4.6001 C.2     
  35 H35           -0.6762    -0.4747     1.1025 H       
  36 H36           -0.7389    -0.4345    -0.6759 H       
  37 H37            1.7191    -0.1172    -0.7555 H       
  38 H38            1.7818    -0.1573     1.0229 H       
  39 H39           -1.4454     3.0244     0.3124 H       
  40 H40            4.7102    -4.1635    -0.0622 H       
  41 H41            4.7977    -6.6208    -0.1196 H       
  42 H42            0.5373    -6.7952     0.0268 H       
  43 H43            0.4280    -4.3390     0.0959 H       
  44 H44            0.4912    -2.5034     0.1248 H       
  45 H45            3.7001    -8.6738    -0.4797 H       
  46 H46            3.2953    -8.4618     1.9907 H       
  47 H47            1.5536    -8.6707     1.6886 H       
  48 H48            1.9986   -10.8779     0.6499 H       
  49 H49            3.7402   -10.6690     0.9520 H       
  50 H50            1.5595   -10.7415     3.0865 H       
  51 H51            2.6922   -12.0632     2.7145 H       
  52 H52            3.3012   -10.5326     3.3887 H       
  53 H53            3.9904   -10.1083    -0.9746 H       
  54 H54            4.4670   -12.1603    -2.2462 H       
  55 H55            0.4527   -12.1793    -3.7172 H       
  56 H56           -0.0253   -10.1331    -2.4367 H       
  57 H57            0.8572   -13.8672    -4.7592 H       
  58 H58            1.3781   -16.9578    -5.4789 H       
  59 H59            1.4151   -15.7812    -6.8182 H       
  60 H60            2.8392   -17.8628    -7.1974 H       
  61 H61            3.7237   -16.3246    -7.3271 H       
  62 H62            3.5802   -17.9419    -4.7515 H       
  63 H63            4.8779   -18.1449    -5.9513 H       
  64 H64            5.4261   -16.5287    -4.0576 H       
  65 H65            5.5742   -15.8305    -5.6915 H       
@<TRIPOS>BOND
   1    1    2 1
   2    1    4 2
   3    1    5 1
   4    2    3 1
   5    2   35 1
   6    2   36 1
   7    3   14 1
   8    3   37 1
   9    3   38 1
  10    5   39 1
  11    6    7 1
  12    6   13 2
  13    6   14 am
  14    7    8 ar
  15    7   12 ar
  16    8    9 ar
  17    8   40 1
  18    9   10 ar
  19    9   41 1
  20   10   11 ar
  21   10   15 1
  22   11   12 ar
  23   11   42 1
  24   12   43 1
  25   14   44 1
  26   15   16 1
  27   15   19 1
  28   15   45 1
  29   16   17 1
  30   16   46 1
  31   16   47 1
  32   17   18 1
  33   17   48 1
  34   17   49 1
  35   18   50 1
  36   18   51 1
  37   18   52 1
  38   19   20 1
  39   20   21 ar
  40   20   25 ar
  41   21   22 ar
  42   21   53 1
  43   22   23 ar
  44   22   54 1
  45   23   24 ar
  46   23   27 1
  47   24   25 ar
  48   24   55 1
  49   25   56 1
  50   26   27 1
  51   26   34 2
  52   27   28 1
  53   28   29 2
  54   28   57 1
  55   29   30 1
  56   29   34 1
  57   30   31 1
  58   30   58 1
  59   30   59 1
  60   31   32 1
  61   31   60 1
  62   31   61 1
  63   32   33 1
  64   32   62 1
  65   32   63 1
  66   33   34 1
  67   33   64 1
  68   33   65 1

#	End of record

