#	Name: ASD01916975
#	Creating user name:	WinNT
#	Creation time:	15. 06. 2019 20:08

#	Modifying user name:	WinNT
#	Modification time:	15. 06. 2019 20:08

#	Program:	/corina/corina34_cracker 3.40 0067  02.08.2006

@<TRIPOS>MOLECULE
ASD01916975
  46   49    0    0    0
SMALL
NO_CHARGES


@<TRIPOS>ATOM
   1 C1            -0.0171     1.4102     0.0098 C.ar    
   2 C2             0.0021    -0.0041     0.0020 C.ar    
   3 C3            -1.1923    -0.7255     0.0060 C.ar    
   4 C4            -2.3851    -0.0647     0.0157 C.ar    
   5 C5            -2.4229     1.3387     0.0235 C.ar    
   6 C6            -1.2405     2.0765     0.0193 C.ar    
   7 N7             1.1592     2.0864     0.0022 N.2     
   8 C8             2.3040     1.4740    -0.0187 C.2     
   9 N9             2.4090     0.1104    -0.0232 N.am    
  10 C10            1.3113    -0.6721    -0.0124 C.2     
  11 C11           -3.7191     2.0351     0.0335 C.2     
  12 O12            1.4009    -1.8863    -0.0150 O.2     
  13 C13           -4.8647     1.3262     0.0351 C.2     
  14 C14           -6.1560     2.0199     0.0450 C.2     
  15 S15           -6.3778     3.7676     0.0479 S.3     
  16 N16           -7.3273     1.4417     0.0474 N.2     
  17 C17           -8.3778     2.2253     0.0567 C.2     
  18 C18           -8.1256     3.5411     0.0604 C.2     
  19 C19           -9.7827     1.6800     0.0604 C.3     
  20 C20            3.5855     2.2783    -0.0458 C.3     
  21 C21            4.2040     2.1856    -1.4384 C.3     
  22 C22            5.1162     0.9772    -1.5548 C.3     
  23 C23            4.3536    -0.3309    -1.4325 C.3     
  24 C24            3.7501    -0.4870    -0.0379 C.3     
  25 C25            5.8210     1.0160    -2.9123 C.3     
  26 H26           -1.1721    -1.8053     0.0010 H       
  27 H27           -3.3081    -0.6255     0.0171 H       
  28 H28           -1.2724     3.1560     0.0270 H       
  29 H29           -3.7521     3.1146     0.0395 H       
  30 H30           -4.8317     0.2467     0.0291 H       
  31 H31           -8.8658     4.3275     0.0685 H       
  32 H32          -10.1167     1.5433     1.0889 H       
  33 H33          -10.4458     2.3807    -0.4469 H       
  34 H34           -9.8017     0.7214    -0.4582 H       
  35 H35            3.3668     3.3204     0.1872 H       
  36 H36            4.2828     1.8777     0.6900 H       
  37 H37            3.4077     2.1048    -2.1782 H       
  38 H38            4.7814     3.0893    -1.6337 H       
  39 H39            5.8675     1.0238    -0.7665 H       
  40 H40            3.5535    -0.3489    -2.1725 H       
  41 H41            5.0341    -1.1608    -1.6226 H       
  42 H42            4.3824     0.0195     0.6914 H       
  43 H43            3.6800    -1.5456     0.2123 H       
  44 H44            6.4095     1.9302    -2.9901 H       
  45 H45            6.4786     0.1517    -3.0051 H       
  46 H46            5.0772     0.9938    -3.7087 H       
@<TRIPOS>BOND
   1    1    2 ar
   2    1    7 1
   3    1    6 ar
   4    2    3 ar
   5    2   10 1
   6    3    4 ar
   7    3   26 1
   8    4    5 ar
   9    4   27 1
  10    5    6 ar
  11    5   11 1
  12    6   28 1
  13    7    8 2
  14    8    9 1
  15    8   20 1
  16    9   10 am
  17    9   24 1
  18   10   12 2
  19   11   13 2
  20   11   29 1
  21   13   14 1
  22   13   30 1
  23   14   16 2
  24   14   15 1
  25   15   18 1
  26   16   17 1
  27   17   18 2
  28   17   19 1
  29   18   31 1
  30   19   32 1
  31   19   33 1
  32   19   34 1
  33   20   21 1
  34   20   35 1
  35   20   36 1
  36   21   22 1
  37   21   37 1
  38   21   38 1
  39   22   23 1
  40   22   25 1
  41   22   39 1
  42   23   24 1
  43   23   40 1
  44   23   41 1
  45   24   42 1
  46   24   43 1
  47   25   44 1
  48   25   45 1
  49   25   46 1

#	End of record

