#	Name: ASD01884184
#	Creating user name:	WinNT
#	Creation time:	15. 06. 2019 19:47

#	Modifying user name:	WinNT
#	Modification time:	15. 06. 2019 19:47

#	Program:	/corina/corina34_cracker 3.40 0067  02.08.2006

@<TRIPOS>MOLECULE
ASD01884184
  35   38    0    0    0
SMALL
NO_CHARGES


@<TRIPOS>ATOM
   1 C1            -0.0180     1.4770     0.0102 C.ar    
   2 C2             0.0021    -0.0041     0.0020 C.ar    
   3 C3             0.7767    -0.6954    -0.9315 C.ar    
   4 C4             0.7999    -2.0674    -0.9438 C.ar    
   5 C5             0.0464    -2.8107    -0.0202 C.ar    
   6 C6            -0.7239    -2.1054     0.9079 C.ar    
   7 C7            -0.7478    -0.7253     0.9301 C.ar    
   8 N8            -0.0359    -4.1856     0.0960 N.am    
   9 C9            -0.8154    -4.7036     1.0498 C.2     
  10 S10           -1.5306    -3.3257     1.9030 S.3     
  11 C11            0.7165    -5.0579    -0.8091 C.3     
  12 C12            2.0928    -5.3508    -0.2082 C.3     
  13 C13            2.9905    -6.3434    -0.9496 C.3     
  14 O14           -0.9973    -5.8839     1.2849 O.2     
  15 C15            3.3190    -4.8493    -0.9736 C.3     
  16 F16            3.0959    -4.1580    -2.1692 F       
  17 F17            4.4172    -4.4172    -0.2223 F       
  18 C18            1.1853     2.2119     0.0026 C.ar    
  19 C19            1.1024     3.6084     0.0104 C.ar    
  20 C20           -0.1409     4.2072     0.0250 C.ar    
  21 N21           -1.2465     3.4869     0.0317 N.ar    
  22 C22           -1.2267     2.1708     0.0196 C.ar    
  23 C23            2.4543     1.5487    -0.0121 C.1     
  24 N24            3.4611     1.0225    -0.0238 N.1     
  25 H25            1.3635    -0.1446    -1.6517 H       
  26 H26            1.4057    -2.5831    -1.6742 H       
  27 H27           -1.3524    -0.2058     1.6588 H       
  28 H28            0.1738    -5.9931    -0.9470 H       
  29 H29            0.8385    -4.5631    -1.7726 H       
  30 H30            2.1414    -5.3444     0.8806 H       
  31 H31            3.6301    -6.9897    -0.3485 H       
  32 H32            2.6007    -6.7878    -1.8654 H       
  33 H33            1.9994     4.2099     0.0054 H       
  34 H34           -0.2102     5.2850     0.0315 H       
  35 H35           -2.1572     1.6225     0.0257 H       
@<TRIPOS>BOND
   1    1    2 1
   2    1   18 ar
   3    1   22 ar
   4    2    3 ar
   5    2    7 ar
   6    3    4 ar
   7    3   25 1
   8    4    5 ar
   9    4   26 1
  10    5    6 ar
  11    5    8 1
  12    6    7 ar
  13    6   10 1
  14    7   27 1
  15    8    9 am
  16    8   11 1
  17    9   10 1
  18    9   14 2
  19   11   12 1
  20   11   28 1
  21   11   29 1
  22   12   13 1
  23   12   15 1
  24   12   30 1
  25   13   15 1
  26   13   31 1
  27   13   32 1
  28   15   16 1
  29   15   17 1
  30   18   19 ar
  31   18   23 1
  32   19   20 ar
  33   19   33 1
  34   20   21 ar
  35   20   34 1
  36   21   22 ar
  37   22   35 1
  38   23   24 3

#	End of record

