#	Name: ASD02039147
#	Creating user name:	WinNT
#	Creation time:	15. 06. 2019 20:17

#	Modifying user name:	WinNT
#	Modification time:	15. 06. 2019 20:17

#	Program:	/corina/corina34_cracker 3.40 0067  02.08.2006

@<TRIPOS>MOLECULE
ASD02039147
  42   45    0    0    0
SMALL
NO_CHARGES


@<TRIPOS>ATOM
   1 N1            -0.0424     1.3694    -0.1212 N.2     
   2 C2            -0.0048     0.0643    -0.0764 C.2     
   3 N3             1.2925    -0.3013    -0.1576 N.2     
   4 C4             1.9688     0.8174    -0.2475 C.2     
   5 O5             1.0810     1.8161    -0.2192 O.3     
   6 C6             3.4654     0.9525    -0.3606 C.3     
   7 O7             3.7821     1.9086    -1.3744 O.3     
   8 C8             4.9974     1.7937    -1.9731 C.ar    
   9 N9            -1.0961    -0.7884     0.0345 N.pl3   
  10 C10           -2.3837    -0.2615     0.1760 C.ar    
  11 C11           -2.6997     0.9656    -0.3935 C.ar    
  12 C12           -3.9718     1.4843    -0.2526 C.ar    
  13 C13           -4.9319     0.7833     0.4557 C.ar    
  14 C14           -4.6201    -0.4399     1.0251 C.ar    
  15 C15           -3.3500    -0.9665     0.8811 C.ar    
  16 C16            5.3244     2.6243    -3.0420 C.ar    
  17 C17            6.5512     2.5224    -3.6605 C.ar    
  18 C18            7.4764     1.5833    -3.2180 C.ar    
  19 C19            7.1500     0.7417    -2.1377 C.ar    
  20 C20            5.9033     0.8582    -1.5147 C.ar    
  21 N21            8.7103     1.4649    -3.8249 N.am    
  22 C22            9.6061     0.5572    -3.3996 C.2     
  23 C23            9.3273    -0.3098    -2.3215 C.2     
  24 C24            8.1331    -0.2433    -1.6828 C.2     
  25 O25           10.6862     0.4808    -3.9595 O.2     
  26 Cl26          -5.8268    -1.3160     1.9139 Cl      
  27 Cl27          -6.5298     1.4387     0.6313 Cl      
  28 C28            4.0379     1.4208     0.9787 C.3     
  29 H29            3.8985    -0.0126    -0.6233 H       
  30 H30           -0.9649    -1.7493     0.0137 H       
  31 H31           -1.9509     1.5138    -0.9459 H       
  32 H32           -4.2175     2.4382    -0.6953 H       
  33 H33           -3.1068    -1.9204     1.3252 H       
  34 H34            4.6093     3.3551    -3.3897 H       
  35 H35            6.7941     3.1714    -4.4888 H       
  36 H36            5.6480     0.2153    -0.6853 H       
  37 H37            8.9343     2.0450    -4.5694 H       
  38 H38           10.0681    -1.0287    -2.0038 H       
  39 H39            7.9119    -0.9026    -0.8565 H       
  40 H40            3.7963     0.6916     1.7520 H       
  41 H41            5.1204     1.5185     0.8969 H       
  42 H42            3.6048     2.3859     1.2415 H       
@<TRIPOS>BOND
   1    1    2 2
   2    1    5 1
   3    2    3 1
   4    2    9 1
   5    3    4 2
   6    4    5 1
   7    4    6 1
   8    6    7 1
   9    6   28 1
  10    6   29 1
  11    7    8 1
  12    8   16 ar
  13    8   20 ar
  14    9   10 1
  15    9   30 1
  16   10   11 ar
  17   10   15 ar
  18   11   12 ar
  19   11   31 1
  20   12   13 ar
  21   12   32 1
  22   13   14 ar
  23   13   27 1
  24   14   15 ar
  25   14   26 1
  26   15   33 1
  27   16   17 ar
  28   16   34 1
  29   17   18 ar
  30   17   35 1
  31   18   19 ar
  32   18   21 1
  33   19   20 ar
  34   19   24 1
  35   20   36 1
  36   21   22 am
  37   21   37 1
  38   22   23 1
  39   22   25 2
  40   23   24 2
  41   23   38 1
  42   24   39 1
  43   28   40 1
  44   28   41 1
  45   28   42 1

#	End of record

