#	Name: ASD01915061
#	Creating user name:	WinNT
#	Creation time:	15. 06. 2019 20:04

#	Modifying user name:	WinNT
#	Modification time:	15. 06. 2019 20:04

#	Program:	/corina/corina34_cracker 3.40 0067  02.08.2006

@<TRIPOS>MOLECULE
ASD01915061
  40   43    0    0    0
SMALL
NO_CHARGES


@<TRIPOS>ATOM
   1 C1            -0.0169     1.3921     0.0097 C.ar    
   2 C2             0.0021    -0.0041     0.0020 C.ar    
   3 N3            -1.1415    -0.6923     0.0092 N.ar    
   4 C4            -2.3142    -0.1034     0.0236 C.ar    
   5 C5            -2.4179     1.2852     0.0320 C.ar    
   6 C6            -1.2649     2.0493     0.0305 C.ar    
   7 C7             1.3286     1.9586    -0.0001 C.2     
   8 C8             2.3059     1.0551    -0.0143 C.2     
   9 S9             1.6664    -0.5764    -0.0169 S.3     
  10 C10            1.5850     3.4183     0.0048 C.ar    
  11 C11            1.6944     4.1149    -1.2002 C.ar    
  12 S12            4.0232     1.4491    -0.0294 S.o2    
  13 O13            4.6883     0.3235    -0.5861 O.2     
  14 O14            4.1295     2.7596    -0.5686 O.2     
  15 C15            4.5483     1.5575     1.6490 C.ar    
  16 C16            5.0219     0.4315     2.2975 C.ar    
  17 C17            4.4913     2.7668     2.3110 C.ar    
  18 C18            4.9079     2.8525     3.6408 C.ar    
  19 C19            5.3803     1.7120     4.2931 C.ar    
  20 C20            5.4374     0.5082     3.6176 C.ar    
  21 C21            1.9331     5.4762    -1.1880 C.ar    
  22 C22            2.0633     6.1469     0.0146 C.ar    
  23 C23            1.9561     5.4609     1.2112 C.ar    
  24 C24            1.7122     4.1026     1.2127 C.ar    
  25 N25           -3.6752     1.9011     0.0474 N.pl3   
  26 F26            5.8940    -0.5971     4.2462 F       
  27 F27            1.5678     3.4600    -2.3751 F       
  28 C28            4.8513     4.1050     4.3326 C.1     
  29 N29            4.8065     5.0986     4.8815 N.1     
  30 H30           -3.2116    -0.7043     0.0285 H       
  31 H31           -1.3192     3.1279     0.0370 H       
  32 H32            5.0678    -0.5116     1.7732 H       
  33 H33            4.1253     3.6457     1.8012 H       
  34 H34            5.7040     1.7715     5.3217 H       
  35 H35            2.0185     6.0170    -2.1189 H       
  36 H36            2.2498     7.2107     0.0195 H       
  37 H37            2.0591     5.9906     2.1468 H       
  38 H38            1.6289     3.5690     2.1480 H       
  39 H39           -4.4802     1.3600     0.0521 H       
  40 H40           -3.7412     2.8688     0.0532 H       
@<TRIPOS>BOND
   1    1    2 ar
   2    1    7 1
   3    1    6 ar
   4    2    3 ar
   5    2    9 1
   6    3    4 ar
   7    4    5 ar
   8    4   30 1
   9    5    6 ar
  10    5   25 1
  11    6   31 1
  12    7    8 2
  13    7   10 1
  14    8    9 1
  15    8   12 1
  16   10   11 ar
  17   10   24 ar
  18   11   21 ar
  19   11   27 1
  20   12   13 2
  21   12   14 2
  22   12   15 1
  23   15   16 ar
  24   15   17 ar
  25   16   20 ar
  26   16   32 1
  27   17   18 ar
  28   17   33 1
  29   18   19 ar
  30   18   28 1
  31   19   20 ar
  32   19   34 1
  33   20   26 1
  34   21   22 ar
  35   21   35 1
  36   22   23 ar
  37   22   36 1
  38   23   24 ar
  39   23   37 1
  40   24   38 1
  41   25   39 1
  42   25   40 1
  43   28   29 3

#	End of record

