#	Name: ASD00601006
#	Creating user name:	WinNT
#	Creation time:	15. 06. 2019 18:36

#	Modifying user name:	WinNT
#	Modification time:	15. 06. 2019 18:36

#	Program:	/corina/corina34_cracker 3.40 0067  02.08.2006

@<TRIPOS>MOLECULE
ASD00601006
  26   27    0    0    0
SMALL
NO_CHARGES


@<TRIPOS>ATOM
   1 S1            -0.0218     1.7546     0.0117 S.3     
   2 C2             0.0021    -0.0041     0.0020 C.2     
   3 C3             1.2658    -0.4344    -0.0124 C.2     
   4 C4             2.2222     0.5669    -0.0161 C.2     
   5 C5             1.7361     1.8086    -0.0048 C.2     
   6 S6             2.7068     3.2791    -0.0062 S.o2    
   7 Cl7           -1.4026    -1.0242     0.0100 Cl      
   8 N8             2.9618     3.6967    -1.5882 N.am    
   9 O9             1.8901     4.2995     0.5516 O.2     
  10 O10            3.9760     2.9226     0.5243 O.2     
  11 C11            1.8872     4.0689    -2.3920 C.ar    
  12 N12            0.6602     4.0897    -1.8931 N.ar    
  13 C13           -0.3601     4.4446    -2.6597 C.ar    
  14 C14           -0.1486     4.7938    -3.9804 C.ar    
  15 N15            1.0754     4.7752    -4.4870 N.ar    
  16 C16            2.1009     4.4277    -3.7272 C.ar    
  17 O17            3.3560     4.4085    -4.2447 O.3     
  18 C18            3.4969     4.7756    -5.6186 C.3     
  19 Cl19          -1.9674     4.4706    -2.0042 Cl      
  20 Cl20          -1.4912     5.2577    -4.9784 Cl      
  21 H21            1.5225    -1.4834    -0.0201 H       
  22 H22            3.2818     0.3580    -0.0270 H       
  23 H23            3.8596     3.6821    -1.9551 H       
  24 H24            4.5473     4.7182    -5.9041 H       
  25 H25            2.9141     4.0942    -6.2383 H       
  26 H26            3.1368     5.7945    -5.7612 H       
@<TRIPOS>BOND
   1    1    2 1
   2    1    5 1
   3    2    3 2
   4    2    7 1
   5    3    4 1
   6    3   21 1
   7    4    5 2
   8    4   22 1
   9    5    6 1
  10    6    8 am
  11    6    9 2
  12    6   10 2
  13    8   11 1
  14    8   23 1
  15   11   12 ar
  16   11   16 ar
  17   12   13 ar
  18   13   14 ar
  19   13   19 1
  20   14   15 ar
  21   14   20 1
  22   15   16 ar
  23   16   17 1
  24   17   18 1
  25   18   24 1
  26   18   25 1
  27   18   26 1

#	End of record

