#	Name: ASD03240599
#	Creating user name:	WinNT
#	Creation time:	15. 06. 2019 20:35

#	Modifying user name:	WinNT
#	Modification time:	15. 06. 2019 20:35

#	Program:	/corina/corina34_cracker 3.40 0067  02.08.2006

@<TRIPOS>MOLECULE
ASD03240599
  57   63    0    0    0
SMALL
NO_CHARGES


@<TRIPOS>ATOM
   1 C1            -0.0166     1.3755     0.0096 C.ar    
   2 C2             0.0021    -0.0041     0.0020 C.ar    
   3 N3             1.1422    -0.6683    -0.0058 N.ar    
   4 C4             2.3145    -0.0481    -0.0058 C.ar    
   5 C5             2.3702     1.3442    -0.0124 C.ar    
   6 C6             1.1860     2.0698     0.0018 C.ar    
   7 N7             3.4820    -0.8058     0.0220 N.pl3   
   8 C8             4.3592    -0.7194     1.0997 C.ar    
   9 C9             4.9952     0.4890     1.4036 C.ar    
  10 C10            4.7637     1.6835     0.5620 C.2     
  11 N11            3.5939     2.0276    -0.0512 N.pl3   
  12 C12            4.6051    -1.8391     1.8830 C.ar    
  13 C13            5.4649    -1.7538     2.9614 C.ar    
  14 C14            6.0859    -0.5557     3.2701 C.ar    
  15 C15            5.8562     0.5653     2.4982 C.ar    
  16 N16            5.6751     2.5941     0.2849 N.2     
  17 C17            5.1448     3.5398    -0.5058 C.2     
  18 C18            3.8224     3.2037    -0.7368 C.2     
  19 C19            2.8495     3.9538    -1.5545 C.ar    
  20 C20            2.7505     5.3418    -1.4300 C.ar    
  21 C21            2.0271     3.2799    -2.4608 C.ar    
  22 C22            1.1201     3.9875    -3.2217 C.ar    
  23 C23            1.0235     5.3615    -3.0890 C.ar    
  24 C24            1.8389     6.0363    -2.1974 C.ar    
  25 C25            5.8486     4.7306    -1.0358 C.ar    
  26 C26            0.0299     6.1275    -3.9240 C.3     
  27 N27           -0.8517     5.3102    -4.7682 N.3     
  28 C28            6.8180     5.3718    -0.2647 C.ar    
  29 C29            7.4705     6.4803    -0.7641 C.ar    
  30 C30            7.1646     6.9562    -2.0266 C.ar    
  31 C31            6.2040     6.3245    -2.7961 C.ar    
  32 C32            5.5487     5.2117    -2.3101 C.ar    
  33 C33           -0.5529     7.4107    -3.3284 C.3     
  34 C34            0.4657     7.4893    -4.4683 C.3     
  35 H35           -0.9556     1.9091     0.0170 H       
  36 H36           -0.9306    -0.5486     0.0028 H       
  37 H37            1.2002     3.1497     0.0064 H       
  38 H38            3.6863    -1.4002    -0.7168 H       
  39 H39            4.1238    -2.7773     1.6495 H       
  40 H40            5.6534    -2.6275     3.5676 H       
  41 H41            6.7523    -0.4979     4.1181 H       
  42 H42            6.3420     1.4988     2.7410 H       
  43 H43            3.3860     5.8696    -0.7344 H       
  44 H44            2.1017     2.2076    -2.5656 H       
  45 H45            0.4839     3.4679    -3.9229 H       
  46 H46            1.7581     7.1088    -2.0991 H       
  47 H47           -0.3695     4.4919    -5.1087 H       
  48 H48           -1.6921     5.0543    -4.2719 H       
  49 H49            7.0572     5.0016     0.7212 H       
  50 H50            8.2213     6.9776    -0.1680 H       
  51 H51            7.6775     7.8246    -2.4128 H       
  52 H52            5.9692     6.7009    -3.7808 H       
  53 H53            4.7990     4.7195    -2.9117 H       
  54 H54           -1.5903     7.6486    -3.5633 H       
  55 H55           -0.2176     7.7008    -2.3326 H       
  56 H56            1.4710     7.8315    -4.2223 H       
  57 H57            0.0981     7.7791    -5.4527 H       
@<TRIPOS>BOND
   1    1    2 ar
   2    1    6 ar
   3    1   35 1
   4    2    3 ar
   5    2   36 1
   6    3    4 ar
   7    4    5 ar
   8    4    7 1
   9    5    6 ar
  10    5   11 1
  11    6   37 1
  12    7    8 1
  13    7   38 1
  14    8    9 ar
  15    8   12 ar
  16    9   10 1
  17    9   15 ar
  18   10   11 1
  19   10   16 2
  20   11   18 1
  21   12   13 ar
  22   12   39 1
  23   13   14 ar
  24   13   40 1
  25   14   15 ar
  26   14   41 1
  27   15   42 1
  28   16   17 1
  29   17   18 2
  30   17   25 1
  31   18   19 1
  32   19   20 ar
  33   19   21 ar
  34   20   24 ar
  35   20   43 1
  36   21   22 ar
  37   21   44 1
  38   22   23 ar
  39   22   45 1
  40   23   24 ar
  41   23   26 1
  42   24   46 1
  43   25   28 ar
  44   25   32 ar
  45   26   27 1
  46   26   33 1
  47   26   34 1
  48   27   47 1
  49   27   48 1
  50   28   29 ar
  51   28   49 1
  52   29   30 ar
  53   29   50 1
  54   30   31 ar
  55   30   51 1
  56   31   32 ar
  57   31   52 1
  58   32   53 1
  59   33   34 1
  60   33   54 1
  61   33   55 1
  62   34   56 1
  63   34   57 1

#	End of record

