#	Name: ASD04590960
#	Creating user name:	WinNT
#	Creation time:	15. 06. 2019 20:51

#	Modifying user name:	WinNT
#	Modification time:	15. 06. 2019 20:51

#	Program:	/corina/corina34_cracker 3.40 0067  02.08.2006

@<TRIPOS>MOLECULE
ASD04590960
  60   64    0    0    0
SMALL
NO_CHARGES


@<TRIPOS>ATOM
   1 N1            -2.3785    -2.7059     0.0212 N.ar    
   2 C2            -1.2116    -2.0738     0.0044 C.ar    
   3 N3            -0.0576    -2.7200    -0.0182 N.ar    
   4 C4            -0.0260    -4.0496    -0.0250 C.ar    
   5 C5            -1.2484    -4.7504    -0.0076 C.ar    
   6 C6            -2.4372    -4.0272     0.0159 C.ar    
   7 N7             0.9980    -4.9638    -0.0460 N.pl3   
   8 C8             0.4951    -6.2534    -0.0431 C.ar    
   9 C9            -0.9091    -6.1791    -0.0193 C.ar    
  10 C10            1.0916    -7.5075    -0.0579 C.ar    
  11 N11            0.3553    -8.6000    -0.0503 N.ar    
  12 C12           -0.9654    -8.5647    -0.0281 C.ar    
  13 C13           -1.6435    -7.3644    -0.0121 C.ar    
  14 N14           -1.2019    -0.6887     0.0103 N.pl3   
  15 C15           -2.4014     0.0175    -0.0793 C.ar    
  16 N16           -3.5344    -0.6391    -0.2708 N.ar    
  17 C17           -4.6920    -0.0127    -0.3612 C.ar    
  18 C18           -4.7608     1.3688    -0.2576 C.ar    
  19 C19           -3.5880     2.0942    -0.0557 C.ar    
  20 C20           -2.3937     1.4026     0.0394 C.ar    
  21 N21           -5.9928     2.0263    -0.3551 N.3     
  22 C22            2.4225    -4.6225    -0.0691 C.3     
  23 C23           -6.2394     2.8602     0.8283 C.3     
  24 C24            2.7289    -3.7970    -1.3203 C.3     
  25 O25            4.1362    -3.5630    -1.4037 O.3     
  26 C26            2.7719    -3.8075     1.1778 C.3     
  27 C27           -7.0854     1.0682    -0.5665 C.3     
  28 C28           -8.3910     1.8276    -0.8131 C.3     
  29 C29           -8.6943     2.7174     0.3955 C.3     
  30 C30           -7.5198     3.6730     0.6233 C.3     
  31 N31           -9.9156     3.4927     0.1402 N.3     
  32 C32          -10.5664     3.8796     1.3991 C.3     
  33 H33           -3.3900    -4.5355     0.0300 H       
  34 H34            2.1685    -7.5879    -0.0762 H       
  35 H35           -1.5221    -9.4902    -0.0228 H       
  36 H36           -2.7231    -7.3426     0.0065 H       
  37 H37           -0.3609    -0.2099     0.0767 H       
  38 H38           -5.5962    -0.5820    -0.5181 H       
  39 H39           -3.6115     3.1706     0.0288 H       
  40 H40           -1.4659     1.9327     0.1961 H       
  41 H41            3.0151    -5.5372    -0.0831 H       
  42 H42           -6.3506     2.2224     1.7052 H       
  43 H43           -5.3988     3.5380     0.9765 H       
  44 H44            2.3981    -4.3414    -2.2048 H       
  45 H45            2.2047    -2.8431    -1.2637 H       
  46 H46            4.4036    -3.0443    -2.1747 H       
  47 H47            2.1793    -2.8928     1.1918 H       
  48 H48            2.5536    -4.3955     2.0692 H       
  49 H49            3.8318    -3.5535     1.1606 H       
  50 H50           -6.8592     0.4445    -1.4313 H       
  51 H51           -7.1926     0.4388     0.3169 H       
  52 H52           -8.2892     2.4467    -1.7044 H       
  53 H53           -9.2046     1.1161    -0.9545 H       
  54 H54           -8.8347     2.0955     1.2796 H       
  55 H55           -7.7110     4.2801     1.5082 H       
  56 H56           -7.4042     4.3212    -0.2454 H       
  57 H57           -9.7176     4.3025    -0.4283 H       
  58 H58           -9.8823     4.4894     1.9893 H       
  59 H59          -11.4678     4.4524     1.1810 H       
  60 H60          -10.8319     2.9842     1.9610 H       
@<TRIPOS>BOND
   1    1    2 ar
   2    1    6 ar
   3    2    3 ar
   4    2   14 1
   5    3    4 ar
   6    4    5 ar
   7    4    7 1
   8    5    6 ar
   9    5    9 1
  10    6   33 1
  11    7    8 1
  12    7   22 1
  13    8    9 ar
  14    8   10 ar
  15    9   13 ar
  16   10   11 ar
  17   10   34 1
  18   11   12 ar
  19   12   13 ar
  20   12   35 1
  21   13   36 1
  22   14   15 1
  23   14   37 1
  24   15   16 ar
  25   15   20 ar
  26   16   17 ar
  27   17   18 ar
  28   17   38 1
  29   18   19 ar
  30   18   21 1
  31   19   20 ar
  32   19   39 1
  33   20   40 1
  34   21   27 1
  35   21   23 1
  36   22   24 1
  37   22   26 1
  38   22   41 1
  39   23   30 1
  40   23   42 1
  41   23   43 1
  42   24   25 1
  43   24   44 1
  44   24   45 1
  45   25   46 1
  46   26   47 1
  47   26   48 1
  48   26   49 1
  49   27   28 1
  50   27   50 1
  51   27   51 1
  52   28   29 1
  53   28   52 1
  54   28   53 1
  55   29   30 1
  56   29   31 1
  57   29   54 1
  58   30   55 1
  59   30   56 1
  60   31   32 1
  61   31   57 1
  62   32   58 1
  63   32   59 1
  64   32   60 1

#	End of record

