#	Name: ASD08150543
#	Creating user name:	WinNT
#	Creation time:	15. 06. 2019 21:16

#	Modifying user name:	WinNT
#	Modification time:	15. 06. 2019 21:16

#	Program:	/corina/corina34_cracker 3.40 0067  02.08.2006

@<TRIPOS>MOLECULE
ASD08150543
  34   36    0    0    0
SMALL
NO_CHARGES


@<TRIPOS>ATOM
   1 N1            -0.0155     1.2944     0.0092 N.2     
   2 C2             0.0021    -0.0041     0.0020 C.2     
   3 N3             1.1485    -0.7359    -0.0124 N.am    
   4 C4             2.3559    -0.1244    -0.0206 C.2     
   5 C5             2.3704     1.3448    -0.0133 C.ar    
   6 C6             3.5614     2.0708    -0.0204 C.ar    
   7 C7             3.5161     3.4493    -0.0126 C.ar    
   8 C8             2.2982     4.1154     0.0022 C.ar    
   9 C9             1.1115     3.4170     0.0093 C.ar    
  10 C10            1.1298     2.0209     0.0021 C.ar    
  11 O11            3.3899    -0.7668    -0.0332 O.2     
  12 C12            1.0789    -2.1359    -0.0184 C.ar    
  13 C13            1.0558    -2.8394     1.1842 C.ar    
  14 C14            0.9869    -4.2231     1.1721 C.ar    
  15 C15            0.9419    -4.9027    -0.0311 C.ar    
  16 C16            0.9653    -4.2053    -1.2247 C.ar    
  17 C17            1.0272    -2.8245    -1.2213 C.ar    
  18 O18            1.1010    -2.1697     2.3664 O.3     
  19 C19            1.0736    -2.9564     3.5591 C.3     
  20 C20           -1.3145    -0.7373     0.0107 C.3     
  21 Cl21          -2.6665     0.4553     0.0300 Cl      
  22 Cl22           5.0887     1.2458    -0.0382 Cl      
  23 H23            4.4359     4.0153    -0.0176 H       
  24 H24            2.2812     5.1953     0.0085 H       
  25 H25            0.1705     3.9469     0.0211 H       
  26 H26            0.9688    -4.7709     2.1026 H       
  27 H27            0.8886    -5.9813    -0.0387 H       
  28 H28            0.9303    -4.7406    -2.1620 H       
  29 H29            1.0401    -2.2821    -2.1551 H       
  30 H30            0.1536    -3.5402     3.5882 H       
  31 H31            1.9312    -3.6290     3.5705 H       
  32 H32            1.1151    -2.3000     4.4283 H       
  33 H33           -1.3904    -1.3582    -0.8820 H       
  34 H34           -1.3734    -1.3678     0.8979 H       
@<TRIPOS>BOND
   1    1    2 2
   2    1   10 1
   3    2    3 1
   4    2   20 1
   5    3    4 am
   6    3   12 1
   7    4    5 1
   8    4   11 2
   9    5    6 ar
  10    5   10 ar
  11    6    7 ar
  12    6   22 1
  13    7    8 ar
  14    7   23 1
  15    8    9 ar
  16    8   24 1
  17    9   10 ar
  18    9   25 1
  19   12   13 ar
  20   12   17 ar
  21   13   14 ar
  22   13   18 1
  23   14   15 ar
  24   14   26 1
  25   15   16 ar
  26   15   27 1
  27   16   17 ar
  28   16   28 1
  29   17   29 1
  30   18   19 1
  31   19   30 1
  32   19   31 1
  33   19   32 1
  34   20   21 1
  35   20   33 1
  36   20   34 1

#	End of record

