#	Name: ASD03091009
#	Creating user name:	WinNT
#	Creation time:	15. 06. 2019 20:29

#	Modifying user name:	WinNT
#	Modification time:	15. 06. 2019 20:29

#	Program:	/corina/corina34_cracker 3.40 0067  02.08.2006

@<TRIPOS>MOLECULE
ASD03091009
  49   52    0    0    0
SMALL
NO_CHARGES


@<TRIPOS>ATOM
   1 N1             0.4408     0.7249     0.0197 N.am    
   2 C2             0.1580    -0.6907    -0.2539 C.3     
   3 C3             1.0236    -1.5539     0.6693 C.3     
   4 C4             2.4930    -1.1619     0.4979 C.3     
   5 C5             2.6808     0.3049     0.8918 C.3     
   6 C6             1.8339     1.1892    -0.0289 C.3     
   7 C7            -0.5592     1.5824     0.3045 C.2     
   8 O8            -1.7183     1.2116     0.2352 O.2     
   9 N9            -0.2802     2.8389     0.6627 N.2     
  10 S10           -2.9582     3.3595     0.9062 S.3     
  11 C11           -1.2678     3.6857     0.9438 C.2     
  12 N12           -1.1505     4.9843     1.3198 N.pl3   
  13 C13           -2.3063     5.6635     1.5581 C.2     
  14 C14           -3.4391     4.9918     1.4003 C.2     
  15 O15            3.8091     7.3851     1.8658 O.3     
  16 C16            3.8643     8.8116     1.7571 C.3     
  17 C17            2.7318     9.4024     2.6079 C.3     
  18 O18            1.4875     8.9012     2.1077 O.3     
  19 C19            1.4233     7.5654     1.8540 C.ar    
  20 C20            2.5829     6.8080     1.7311 C.ar    
  21 C21            0.1846     6.9588     1.7182 C.ar    
  22 C22            0.1027     5.5980     1.4570 C.ar    
  23 C23            1.2620     4.8450     1.3322 C.ar    
  24 C24            2.4971     5.4489     1.4690 C.ar    
  25 F25            2.8937     9.0161     3.9427 F       
  26 F26            2.7502    10.7981     2.5144 F       
  27 F27            5.0982     9.2732     2.2279 F       
  28 F28            3.6970     9.1899     0.4207 F       
  29 C29           -4.8407     5.5083     1.5998 C.3     
  30 C30           -1.3209    -0.9790     0.0121 C.3     
  31 H31            0.3951    -0.9163    -1.2936 H       
  32 H32            0.7228    -1.3938     1.7047 H       
  33 H33            0.8949    -2.6049     0.4109 H       
  34 H34            3.1136    -1.7915     1.1356 H       
  35 H35            2.7863    -1.2988    -0.5430 H       
  36 H36            2.3644     0.4475     1.9251 H       
  37 H37            3.7316     0.5768     0.7918 H       
  38 H38            2.2078     1.1168    -1.0502 H       
  39 H39            1.8862     2.2242     0.3091 H       
  40 H40           -2.3009     6.7001     1.8612 H       
  41 H41           -0.7172     7.5452     1.8147 H       
  42 H42            1.1986     3.7864     1.1280 H       
  43 H43            3.3979     4.8612     1.3711 H       
  44 H44           -5.5546     4.7114     1.3919 H       
  45 H45           -4.9610     5.8442     2.6298 H       
  46 H46           -5.0203     6.3430     0.9222 H       
  47 H47           -1.9312    -0.4563    -0.7245 H       
  48 H48           -1.5010    -2.0514    -0.0620 H       
  49 H49           -1.5841    -0.6345     1.0122 H       
@<TRIPOS>BOND
   1    1    2 1
   2    1    6 1
   3    1    7 am
   4    2    3 1
   5    2   30 1
   6    2   31 1
   7    3    4 1
   8    3   32 1
   9    3   33 1
  10    4    5 1
  11    4   34 1
  12    4   35 1
  13    5    6 1
  14    5   36 1
  15    5   37 1
  16    6   38 1
  17    6   39 1
  18    7    8 2
  19    7    9 1
  20    9   11 2
  21   10   11 1
  22   10   14 1
  23   11   12 1
  24   12   13 1
  25   12   22 1
  26   13   14 2
  27   13   40 1
  28   14   29 1
  29   15   16 1
  30   15   20 1
  31   16   17 1
  32   16   27 1
  33   16   28 1
  34   17   18 1
  35   17   25 1
  36   17   26 1
  37   18   19 1
  38   19   20 ar
  39   19   21 ar
  40   20   24 ar
  41   21   22 ar
  42   21   41 1
  43   22   23 ar
  44   23   24 ar
  45   23   42 1
  46   24   43 1
  47   29   44 1
  48   29   45 1
  49   29   46 1
  50   30   47 1
  51   30   48 1
  52   30   49 1

#	End of record

