#	Name: ASD01916464
#	Creating user name:	WinNT
#	Creation time:	15. 06. 2019 20:07

#	Modifying user name:	WinNT
#	Modification time:	15. 06. 2019 20:07

#	Program:	/corina/corina34_cracker 3.40 0067  02.08.2006

@<TRIPOS>MOLECULE
ASD01916464
  38   40    0    0    0
SMALL
NO_CHARGES


@<TRIPOS>ATOM
   1 C1            -0.0164     1.3572     0.0095 C.2     
   2 N2             0.0021    -0.0041     0.0020 N.pl3   
   3 C3             1.3257    -0.3968    -0.0127 C.ar    
   4 C4             2.0811     0.7873    -0.0136 C.ar    
   5 N5             1.1989     1.8204     0.0004 N.2     
   6 C6             3.4782     0.7135    -0.0273 C.ar    
   7 C7             4.0982    -0.5173    -0.0398 C.ar    
   8 C8             3.3457    -1.6853    -0.0389 C.ar    
   9 C9             1.9664    -1.6283    -0.0255 C.ar    
  10 C10           -1.1659    -0.8883     0.0092 C.3     
  11 C11           -1.2631     2.2038     0.0203 C.3     
  12 C12           -1.6778     2.4825     1.4664 C.3     
  13 C13           -2.8956     3.3094     1.4769 C.1     
  14 C14           -3.8668     3.9690     1.4852 C.1     
  15 C15           -5.0514     4.7734     1.4954 C.ar    
  16 C16           -5.6182     5.1558     2.7119 C.ar    
  17 C17           -6.7626     5.9331     2.7050 C.ar    
  18 C18           -7.3049     6.3038     1.4821 C.ar    
  19 C19           -6.6916     5.8898     0.3141 C.ar    
  20 N20           -5.5991     5.1544     0.3472 N.ar    
  21 C21           -7.2779     6.2901    -1.0153 C.3     
  22 F22           -6.7186     7.5054    -1.4246 F       
  23 F23            3.9678    -2.8845    -0.0518 F       
  24 F24            4.2169     1.8447    -0.0287 F       
  25 H25            5.1766    -0.5743    -0.0508 H       
  26 H26            1.3871    -2.5398    -0.0245 H       
  27 H27           -1.4661    -1.1021    -1.0167 H       
  28 H28           -0.9133    -1.8199     0.5155 H       
  29 H29           -1.9875    -0.4008     0.5340 H       
  30 H30           -1.0662     3.1470    -0.4894 H       
  31 H31           -2.0662     1.6745    -0.4925 H       
  32 H32           -1.8747     1.5393     1.9760 H       
  33 H33           -0.8747     3.0118     1.9791 H       
  34 H34           -5.1700     4.8491     3.6454 H       
  35 H35           -7.2242     6.2441     3.6305 H       
  36 H36           -8.1979     6.9100     1.4433 H       
  37 H37           -7.0578     5.5211    -1.7558 H       
  38 H38           -8.3577     6.4017    -0.9173 H       
@<TRIPOS>BOND
   1    1    2 1
   2    1    5 2
   3    1   11 1
   4    2    3 1
   5    2   10 1
   6    3    4 ar
   7    3    9 ar
   8    4    5 1
   9    4    6 ar
  10    6    7 ar
  11    6   24 1
  12    7    8 ar
  13    7   25 1
  14    8    9 ar
  15    8   23 1
  16    9   26 1
  17   10   27 1
  18   10   28 1
  19   10   29 1
  20   11   12 1
  21   11   30 1
  22   11   31 1
  23   12   13 1
  24   12   32 1
  25   12   33 1
  26   13   14 3
  27   14   15 1
  28   15   16 ar
  29   15   20 ar
  30   16   17 ar
  31   16   34 1
  32   17   18 ar
  33   17   35 1
  34   18   19 ar
  35   18   36 1
  36   19   20 ar
  37   19   21 1
  38   21   22 1
  39   21   37 1
  40   21   38 1

#	End of record

