#	Name: ASD03930146
#	Creating user name:	WinNT
#	Creation time:	15. 06. 2019 20:47

#	Modifying user name:	WinNT
#	Modification time:	15. 06. 2019 20:47

#	Program:	/corina/corina34_cracker 3.40 0067  02.08.2006

@<TRIPOS>MOLECULE
ASD03930146
  53   56    0    0    0
SMALL
NO_CHARGES


@<TRIPOS>ATOM
   1 C1            -0.0162     1.3436     0.0094 C.2     
   2 N2             0.0021    -0.0041     0.0020 N.am    
   3 O3             1.0346     1.9695     0.0028 O.co2   
   4 O4            -1.0836     1.9406     0.0177 O.co2   
   5 C5            -2.1248    -0.3812    -1.2104 C.3     
   6 C6            -1.2565    -0.7538     0.0100 C.3     
   7 C7            -2.1462    -0.3198     1.1943 C.3     
   8 C8            -3.5649    -0.3930     0.6717 C.ar    
   9 C9            -4.7711    -0.4262     1.3514 C.ar    
  10 C10           -5.9607    -0.4944     0.6532 C.ar    
  11 C11           -5.9484    -0.5297    -0.7289 C.ar    
  12 C12           -4.7466    -0.4967    -1.4084 C.ar    
  13 C13           -3.5526    -0.4283    -0.7100 C.ar    
  14 C14           -7.2708    -0.5308     1.3970 C.3     
  15 N15           -7.7537     0.8370     1.6027 N.pl3   
  16 N16           -7.0449     1.8776     2.2168 N.2     
  17 C17           -7.8022     2.9445     2.2155 C.2     
  18 C18           -9.0158     2.6181     1.6014 C.2     
  19 C19           -8.9577     1.3185     1.2290 C.2     
  20 C20           -7.4313     4.2922     2.7787 C.3     
  21 F21           -6.0999     4.2678     3.2077 F       
  22 F22           -7.5847     5.2693     1.7894 F       
  23 F23           -8.2648     4.5904     3.8620 F       
  24 C24          -10.1799     3.5507     1.3868 C.3     
  25 O25          -11.2363     2.8501     0.7271 O.3     
  26 C26            1.2806    -0.7192    -0.0140 C.3     
  27 C27            1.7325    -0.9721     1.4012 C.ar    
  28 C28            1.3554    -2.1328     2.0502 C.ar    
  29 C29            1.7699    -2.3647     3.3484 C.ar    
  30 C30            2.5619    -1.4361     3.9974 C.ar    
  31 C31            2.9398    -0.2758     3.3480 C.ar    
  32 C32            2.5289    -0.0459     2.0483 C.ar    
  33 H33           -1.8787     0.6223    -1.5575 H       
  34 H34           -1.9810    -1.1054    -2.0122 H       
  35 H35           -1.0693    -1.8272     0.0391 H       
  36 H36           -2.0169    -1.0021     2.0344 H       
  37 H37           -1.9057     0.7003     1.4940 H       
  38 H38           -4.7815    -0.3990     2.4310 H       
  39 H39           -6.8777    -0.5833    -1.2765 H       
  40 H40           -4.7378    -0.5243    -2.4881 H       
  41 H41           -8.0032    -1.0911     0.8158 H       
  42 H42           -7.1268    -1.0144     2.3631 H       
  43 H43           -9.7364     0.7650     0.7253 H       
  44 H44          -10.5337     3.9180     2.3502 H       
  45 H45           -9.8624     4.3925     0.7714 H       
  46 H46          -12.0199     3.3902     0.5563 H       
  47 H47            1.1583    -1.6705    -0.5318 H       
  48 H48            2.0272    -0.1171    -0.5318 H       
  49 H49            0.7365    -2.8584     1.5432 H       
  50 H50            1.4746    -3.2713     3.8558 H       
  51 H51            2.8852    -1.6170     5.0119 H       
  52 H52            3.5584     0.4499     3.8552 H       
  53 H53            2.8272     0.8590     1.5397 H       
@<TRIPOS>BOND
   1    1    2 am
   2    1    3 ar
   3    1    4 ar
   4    2   26 1
   5    2    6 1
   6    5    6 1
   7    5   13 1
   8    5   33 1
   9    5   34 1
  10    6    7 1
  11    6   35 1
  12    7    8 1
  13    7   36 1
  14    7   37 1
  15    8    9 ar
  16    8   13 ar
  17    9   10 ar
  18    9   38 1
  19   10   11 ar
  20   10   14 1
  21   11   12 ar
  22   11   39 1
  23   12   13 ar
  24   12   40 1
  25   14   15 1
  26   14   41 1
  27   14   42 1
  28   15   16 1
  29   15   19 1
  30   16   17 2
  31   17   18 1
  32   17   20 1
  33   18   19 2
  34   18   24 1
  35   19   43 1
  36   20   21 1
  37   20   22 1
  38   20   23 1
  39   24   25 1
  40   24   44 1
  41   24   45 1
  42   25   46 1
  43   26   27 1
  44   26   47 1
  45   26   48 1
  46   27   28 ar
  47   27   32 ar
  48   28   29 ar
  49   28   49 1
  50   29   30 ar
  51   29   50 1
  52   30   31 ar
  53   30   51 1
  54   31   32 ar
  55   31   52 1
  56   32   53 1

#	End of record

