#	Name: ASD01940276
#	Creating user name:	WinNT
#	Creation time:	15. 06. 2019 20:12

#	Modifying user name:	WinNT
#	Modification time:	15. 06. 2019 20:12

#	Program:	/corina/corina34_cracker 3.40 0067  02.08.2006

@<TRIPOS>MOLECULE
ASD01940276
  41   42    0    0    0
SMALL
NO_CHARGES


@<TRIPOS>ATOM
   1 C1             0.4015     1.6506    -0.1772 C.3     
   2 C2             0.5106     0.1264    -0.2535 C.3     
   3 C3            -0.8868    -0.4779    -0.4058 C.3     
   4 S4             2.0581     2.3671     0.0033 S.o2    
   5 O5             2.6047     2.0453     1.2749 O.2     
   6 O6             2.8132     2.1835    -1.1864 O.2     
   7 N7             1.7965     4.0008     0.0729 N.am    
   8 C8             1.0186     4.5425     1.1049 C.ar    
   9 C9             0.1893     5.6351     0.8548 C.ar    
  10 C10           -0.5794     6.1673     1.8808 C.ar    
  11 C11           -0.5205     5.6117     3.1493 C.ar    
  12 C12            0.3038     4.5274     3.3951 C.ar    
  13 C13            1.0678     3.9894     2.3753 C.ar    
  14 N14            0.1324     6.1949    -0.4291 N.pl3   
  15 C15           -0.3747     7.4846    -0.6071 C.ar    
  16 C16            0.3785     8.5889    -0.2234 C.ar    
  17 C17           -0.1264     9.8625    -0.4015 C.ar    
  18 C18           -1.3793    10.0394    -0.9602 C.ar    
  19 C19           -2.1307     8.9434    -1.3422 C.ar    
  20 C20           -1.6298     7.6671    -1.1728 C.ar    
  21 C21           -1.9270    11.4301    -1.1525 C.3     
  22 F22           -1.5541    11.9080    -2.4133 F       
  23 F23           -3.3226    11.3987    -1.0597 F       
  24 F24           -1.4128    12.2748    -0.1629 F       
  25 Cl25           1.9505     8.3673     0.4789 Cl      
  26 F26           -1.2687     6.1298     4.1478 F       
  27 F27           -1.3841     7.2263     1.6433 F       
  28 Cl28          -0.7582    -2.2741    -0.4958 Cl      
  29 H29           -0.0601     2.0280    -1.0897 H       
  30 H30           -0.2101     1.9286     0.6812 H       
  31 H31            1.1221    -0.1516    -1.1119 H       
  32 H32            0.9722    -0.2510     0.6589 H       
  33 H33           -1.4983    -0.2000     0.4526 H       
  34 H34           -1.3484    -0.1006    -1.3183 H       
  35 H35            2.1816     4.5828    -0.6008 H       
  36 H36            0.3473     4.0975     4.3849 H       
  37 H37            1.7062     3.1402     2.5697 H       
  38 H38            0.4451     5.6869    -1.1940 H       
  39 H39            0.4576    10.7208    -0.1039 H       
  40 H40           -3.1088     9.0855    -1.7774 H       
  41 H41           -2.2157     6.8119    -1.4758 H       
@<TRIPOS>BOND
   1    1    2 1
   2    1    4 1
   3    1   29 1
   4    1   30 1
   5    2    3 1
   6    2   31 1
   7    2   32 1
   8    3   28 1
   9    3   33 1
  10    3   34 1
  11    4    5 2
  12    4    6 2
  13    4    7 am
  14    7    8 1
  15    7   35 1
  16    8    9 ar
  17    8   13 ar
  18    9   10 ar
  19    9   14 1
  20   10   11 ar
  21   10   27 1
  22   11   12 ar
  23   11   26 1
  24   12   13 ar
  25   12   36 1
  26   13   37 1
  27   14   15 1
  28   14   38 1
  29   15   16 ar
  30   15   20 ar
  31   16   17 ar
  32   16   25 1
  33   17   18 ar
  34   17   39 1
  35   18   19 ar
  36   18   21 1
  37   19   20 ar
  38   19   40 1
  39   20   41 1
  40   21   22 1
  41   21   23 1
  42   21   24 1

#	End of record

