#	Name: ASD01812490
#	Creating user name:	WinNT
#	Creation time:	15. 06. 2019 19:28

#	Modifying user name:	WinNT
#	Modification time:	15. 06. 2019 19:28

#	Program:	/corina/corina34_cracker 3.40 0067  02.08.2006

@<TRIPOS>MOLECULE
ASD01812490
  53   57    0    0    0
SMALL
NO_CHARGES


@<TRIPOS>ATOM
   1 C1             0.1023     1.2358    -0.0335 C.ar    
   2 C2             0.0262    -0.2077    -0.2384 C.ar    
   3 C3            -1.2446    -0.8323    -0.2120 C.ar    
   4 C4            -2.4033    -0.0588     0.0097 C.ar    
   5 C5            -2.3260     1.2799     0.1996 C.ar    
   6 C6            -1.0912     1.9471     0.1874 C.ar    
   7 C7            -1.3283    -2.2194    -0.4079 C.ar    
   8 C8            -0.1923    -2.9424    -0.6196 C.ar    
   9 C9             1.0544    -2.3256    -0.6449 C.ar    
  10 C10            1.1720    -0.9792    -0.4577 C.ar    
  11 N11            1.2721     1.8967    -0.0448 N.2     
  12 C12            1.3328     3.1833     0.1389 C.2     
  13 N13            0.2374     3.9537     0.3544 N.am    
  14 C14           -0.9961     3.3983     0.3916 C.2     
  15 C15           -3.7505    -0.7338     0.0354 C.3     
  16 C16           -4.0491    -1.2062     1.4349 C.2     
  17 C17           -4.7852    -0.3921     2.2995 C.2     
  18 C18           -3.5713    -2.5167     1.8768 C.2     
  19 C19           -3.8492    -2.9300     3.1434 C.2     
  20 C20           -4.6190    -2.0421     4.0176 C.2     
  21 N21           -5.0633    -0.7670     3.5176 N.2     
  22 O22           -1.9890     4.0757     0.5877 O.2     
  23 C23            1.0445     6.0154    -0.6845 C.3     
  24 C24            0.3911     5.3970     0.5530 C.3     
  25 C25            1.2732     5.6523     1.7768 C.3     
  26 C26            1.4338     7.1597     1.9843 C.3     
  27 C27            2.0872     7.7780     0.7467 C.3     
  28 C28            1.2051     7.5228    -0.4771 C.3     
  29 O29            0.2206     5.7770    -1.8275 O.3     
  30 O30           -4.8846    -2.3807     5.1541 O.2     
  31 O31           -5.7069    -0.0287     4.2415 O.3     
  32 H32           -3.2314     1.8444     0.3666 H       
  33 H33           -2.2891    -2.7122    -0.3906 H       
  34 H34           -0.2611    -4.0097    -0.7696 H       
  35 H35            1.9401    -2.9199    -0.8142 H       
  36 H36            2.1451    -0.5113    -0.4796 H       
  37 H37            2.3015     3.6606     0.1193 H       
  38 H38           -4.5172    -0.0265    -0.2808 H       
  39 H39           -3.7421    -1.5875    -0.6423 H       
  40 H40           -5.1317     0.5698     1.9515 H       
  41 H41           -3.0061    -3.1476     1.2067 H       
  42 H42           -3.5095    -3.8926     3.4964 H       
  43 H43            2.0240     5.5640    -0.8422 H       
  44 H44           -0.5884     5.8485     0.7107 H       
  45 H45            0.8078     5.2118     2.6585 H       
  46 H46            2.2528     5.2009     1.6192 H       
  47 H47            0.4543     7.6111     2.1419 H       
  48 H48            2.0622     7.3415     2.8561 H       
  49 H49            2.2016     8.8519     0.8945 H       
  50 H50            3.0667     7.3266     0.5891 H       
  51 H51            1.6706     7.9633    -1.3588 H       
  52 H52            0.2256     7.9742    -0.3195 H       
  53 H53            0.5741     6.1422    -2.6502 H       
@<TRIPOS>BOND
   1    1    2 ar
   2    1   11 1
   3    1    6 ar
   4    2   10 ar
   5    2    3 ar
   6    3    4 ar
   7    3    7 ar
   8    4    5 ar
   9    4   15 1
  10    5    6 ar
  11    5   32 1
  12    6   14 1
  13    7    8 ar
  14    7   33 1
  15    8    9 ar
  16    8   34 1
  17    9   10 ar
  18    9   35 1
  19   10   36 1
  20   11   12 2
  21   12   13 1
  22   12   37 1
  23   13   14 am
  24   13   24 1
  25   14   22 2
  26   15   16 1
  27   15   38 1
  28   15   39 1
  29   16   18 1
  30   16   17 2
  31   17   21 1
  32   17   40 1
  33   18   19 2
  34   18   41 1
  35   19   20 1
  36   19   42 1
  37   20   21 2
  38   20   30 2
  39   21   31 1
  40   23   28 1
  41   23   24 1
  42   23   29 1
  43   23   43 1
  44   24   25 1
  45   24   44 1
  46   25   26 1
  47   25   45 1
  48   25   46 1
  49   26   27 1
  50   26   47 1
  51   26   48 1
  52   27   28 1
  53   27   49 1
  54   27   50 1
  55   28   51 1
  56   28   52 1
  57   29   53 1

#	End of record

