#	Name: ASD01940284
#	Creating user name:	WinNT
#	Creation time:	15. 06. 2019 20:12

#	Modifying user name:	WinNT
#	Modification time:	15. 06. 2019 20:12

#	Program:	/corina/corina34_cracker 3.40 0067  02.08.2006

@<TRIPOS>MOLECULE
ASD01940284
  32   33    0    0    0
SMALL
NO_CHARGES


@<TRIPOS>ATOM
   1 F1             1.9021     1.6007     2.2860 F       
   2 C2             1.0633     2.1519     1.3817 C.ar    
   3 C3             1.3879     2.1344     0.0317 C.ar    
   4 C4             0.5193     2.7044    -0.8975 C.ar    
   5 C5            -0.6647     3.2864    -0.4699 C.ar    
   6 C6            -0.9827     3.3010     0.8757 C.ar    
   7 C7            -0.1244     2.7303     1.8000 C.ar    
   8 N8             2.5861     1.5454    -0.3954 N.pl3   
   9 N9             0.8420     2.6900    -2.2611 N.am    
  10 C10            2.6329     0.1753    -0.6681 C.ar    
  11 C11            1.4777    -0.5908    -0.5844 C.ar    
  12 C12            1.5270    -1.9446    -0.8549 C.ar    
  13 C13            2.7254    -2.5379    -1.2090 C.ar    
  14 C14            3.8790    -1.7780    -1.2931 C.ar    
  15 C15            3.8354    -0.4225    -1.0293 C.ar    
  16 Cl16           5.2825     0.5305    -1.1349 Cl      
  17 Br17           2.7877    -4.3915    -1.5784 Br      
  18 F18           -0.4430     2.7419     3.1129 F       
  19 S19            0.4253     3.9710    -3.2242 S.o2    
  20 C20            1.2758     5.3909    -2.4819 C.3     
  21 O21            0.9907     3.6567    -4.4894 O.2     
  22 O22           -0.9811     4.0903    -3.0595 O.2     
  23 H23           -1.3387     3.7289    -1.1885 H       
  24 H24           -1.9052     3.7551     1.2061 H       
  25 H25            3.3826     2.0886    -0.5017 H       
  26 H26            1.3095     1.9296    -2.6408 H       
  27 H27            0.5416    -0.1286    -0.3077 H       
  28 H28            0.6287    -2.5406    -0.7895 H       
  29 H29            4.8132    -2.2441    -1.5694 H       
  30 H30            2.3511     5.2125    -2.4848 H       
  31 H31            1.0549     6.2890    -3.0588 H       
  32 H32            0.9324     5.5245    -1.4560 H       
@<TRIPOS>BOND
   1    1    2 1
   2    2    3 ar
   3    2    7 ar
   4    3    4 ar
   5    3    8 1
   6    4    5 ar
   7    4    9 1
   8    5    6 ar
   9    5   23 1
  10    6    7 ar
  11    6   24 1
  12    7   18 1
  13    8   10 1
  14    8   25 1
  15    9   19 am
  16    9   26 1
  17   10   11 ar
  18   10   15 ar
  19   11   12 ar
  20   11   27 1
  21   12   13 ar
  22   12   28 1
  23   13   14 ar
  24   13   17 1
  25   14   15 ar
  26   14   29 1
  27   15   16 1
  28   19   20 1
  29   19   21 2
  30   19   22 2
  31   20   30 1
  32   20   31 1
  33   20   32 1

#	End of record

