#	Name: ASD04230188
#	Creating user name:	WinNT
#	Creation time:	15. 06. 2019 20:48

#	Modifying user name:	WinNT
#	Modification time:	15. 06. 2019 20:48

#	Program:	/corina/corina34_cracker 3.40 0067  02.08.2006

@<TRIPOS>MOLECULE
ASD04230188
  59   63    0    0    0
SMALL
NO_CHARGES


@<TRIPOS>ATOM
   1 C1             0.0763     1.3677     0.8486 C.2     
   2 C2             0.0732    -0.0870     0.6267 C.ar    
   3 C3            -1.1614    -0.7666     0.5518 C.ar    
   4 C4            -2.3786    -0.0591     0.6876 C.ar    
   5 C5            -2.3666     1.3407     0.9006 C.2     
   6 C6            -1.1622     2.0440     0.9868 C.2     
   7 C7             1.2597    -0.8003     0.4908 C.ar    
   8 C8             1.2302    -2.1696     0.2825 C.ar    
   9 C9             0.0346    -2.8512     0.2058 C.ar    
  10 C10           -1.1771    -2.1626     0.3391 C.ar    
  11 C11           -2.4211    -2.8365     0.2642 C.ar    
  12 C12           -3.6039    -2.1188     0.4010 C.ar    
  13 C13           -3.5904    -0.7571     0.6088 C.ar    
  14 O14            1.1285     1.9815     0.9176 O.2     
  15 S15           -2.4691    -4.5776    -0.0018 S.3     
  16 C16           -4.1997    -4.8648     0.1627 C.ar    
  17 C17           -5.0143    -4.8660    -0.9628 C.ar    
  18 C18           -6.3702    -5.0910    -0.8328 C.ar    
  19 C19           -6.9194    -5.3159     0.4213 C.ar    
  20 C20           -6.1069    -5.3149     1.5459 C.ar    
  21 C21           -4.7499    -5.0957     1.4175 C.ar    
  22 O22           -8.2550    -5.5370     0.5484 O.3     
  23 C23           -8.7528    -5.7613     1.8690 C.3     
  24 C24           -1.1792     3.4595     1.2030 C.1     
  25 N25           -1.1927     4.5824     1.3745 N.1     
  26 N26           -3.5568     2.0165     1.0306 N.3     
  27 C27           -3.6429     2.6846     2.3360 C.3     
  28 C28           -4.9779     3.4243     2.4433 C.3     
  29 C29           -5.0676     4.1202     3.8029 C.3     
  30 C30           -6.3825     4.8487     3.9086 C.ar    
  31 C31           -7.4906     4.2035     4.4250 C.ar    
  32 C32           -8.6968     4.8718     4.5219 C.ar    
  33 C33           -8.7948     6.1854     4.1028 C.ar    
  34 C34           -7.6865     6.8309     3.5872 C.ar    
  35 C35           -6.4792     6.1640     3.4943 C.ar    
  36 H36            2.2071    -0.2848     0.5474 H       
  37 H37            2.1586    -2.7115     0.1782 H       
  38 H38            0.0326    -3.9188     0.0425 H       
  39 H39           -4.5494    -2.6375     0.3428 H       
  40 H40           -4.5232    -0.2226     0.7120 H       
  41 H41           -4.5870    -4.6906    -1.9391 H       
  42 H42           -7.0036    -5.0917    -1.7075 H       
  43 H43           -6.5355    -5.4897     2.5217 H       
  44 H44           -4.1175    -5.0950     2.2930 H       
  45 H45           -8.2686    -6.6399     2.2954 H       
  46 H46           -8.5395    -4.8915     2.4902 H       
  47 H47           -9.8298    -5.9237     1.8286 H       
  48 H48           -3.6820     2.6764     0.2777 H       
  49 H49           -3.5747     1.9410     3.1300 H       
  50 H50           -2.8238     3.3971     2.4342 H       
  51 H51           -5.0461     4.1680     1.6493 H       
  52 H52           -5.7969     2.7118     2.3451 H       
  53 H53           -4.9994     3.3765     4.5969 H       
  54 H54           -4.2486     4.8327     3.9011 H       
  55 H55           -7.4141     3.1772     4.7524 H       
  56 H56           -9.5628     4.3674     4.9247 H       
  57 H57           -9.7374     6.7073     4.1778 H       
  58 H58           -7.7631     7.8571     3.2594 H       
  59 H59           -5.6124     6.6695     3.0950 H       
@<TRIPOS>BOND
   1    1    2 1
   2    1   14 2
   3    1    6 1
   4    2    3 ar
   5    2    7 ar
   6    3    4 ar
   7    3   10 ar
   8    4    5 1
   9    4   13 ar
  10    5    6 2
  11    5   26 1
  12    6   24 1
  13    7    8 ar
  14    7   36 1
  15    8    9 ar
  16    8   37 1
  17    9   10 ar
  18    9   38 1
  19   10   11 ar
  20   11   12 ar
  21   11   15 1
  22   12   13 ar
  23   12   39 1
  24   13   40 1
  25   15   16 1
  26   16   17 ar
  27   16   21 ar
  28   17   18 ar
  29   17   41 1
  30   18   19 ar
  31   18   42 1
  32   19   20 ar
  33   19   22 1
  34   20   21 ar
  35   20   43 1
  36   21   44 1
  37   22   23 1
  38   23   45 1
  39   23   46 1
  40   23   47 1
  41   24   25 3
  42   26   27 1
  43   26   48 1
  44   27   28 1
  45   27   49 1
  46   27   50 1
  47   28   29 1
  48   28   51 1
  49   28   52 1
  50   29   30 1
  51   29   53 1
  52   29   54 1
  53   30   31 ar
  54   30   35 ar
  55   31   32 ar
  56   31   55 1
  57   32   33 ar
  58   32   56 1
  59   33   34 ar
  60   33   57 1
  61   34   35 ar
  62   34   58 1
  63   35   59 1

#	End of record

