#	Name: ASD01028192
#	Creating user name:	WinNT
#	Creation time:	15. 06. 2019 18:56

#	Modifying user name:	WinNT
#	Modification time:	15. 06. 2019 18:56

#	Program:	/corina/corina34_cracker 3.40 0067  02.08.2006

@<TRIPOS>MOLECULE
ASD01028192
  27   29    0    0    0
SMALL
NO_CHARGES


@<TRIPOS>ATOM
   1 C1            -0.0178     1.4648     0.0101 C.3     
   2 N2             0.0021    -0.0041     0.0020 N.3     
   3 C3             3.3487     2.7123    -0.6324 C.2     
   4 C4             4.3459     3.0876    -1.5531 C.2     
   5 C5             4.0851     3.0025    -2.8836 C.2     
   6 C6             2.8264     2.5427    -3.3306 C.2     
   7 N7             1.8942     2.1914    -2.4703 N.2     
   8 N8             2.1335     2.2682    -1.0968 N.pl3   
   9 N9             2.1320     2.2464     1.0512 N.2     
  10 N10            3.2907     2.6743     0.6888 N.2     
  11 C11            1.3960     1.9864    -0.0006 C.2     
  12 S12            3.6411     2.8674    -6.1183 S.3     
  13 N13            2.5365     2.4704    -7.3438 N.2     
  14 C14            1.4434     2.0626    -6.7699 C.2     
  15 C15            1.3960     2.0336    -5.3980 C.2     
  16 C16            2.5531     2.4551    -4.7812 C.2     
  17 C17            0.2557     1.6321    -7.5915 C.3     
  18 H18           -0.5450     1.8259    -0.8730 H       
  19 H19           -0.5280     1.8163     0.9069 H       
  20 H20           -0.9349    -0.3784     0.0090 H       
  21 H21            0.5256    -0.3543    -0.7863 H       
  22 H22            5.3062     3.4391    -1.2057 H       
  23 H23            4.8410     3.2872    -3.6006 H       
  24 H24            0.5249     1.7079    -4.8489 H       
  25 H25            0.3244     0.5640    -7.7976 H       
  26 H26           -0.6616     1.8373    -7.0395 H       
  27 H27            0.2451     2.1836    -8.5316 H       
@<TRIPOS>BOND
   1    1    2 1
   2    1   11 1
   3    1   18 1
   4    1   19 1
   5    2   20 1
   6    2   21 1
   7    3    4 1
   8    3    8 1
   9    3   10 2
  10    4    5 2
  11    4   22 1
  12    5    6 1
  13    5   23 1
  14    6    7 2
  15    6   16 1
  16    7    8 1
  17    8   11 1
  18    9   10 1
  19    9   11 2
  20   12   13 1
  21   12   16 1
  22   13   14 2
  23   14   15 1
  24   14   17 1
  25   15   16 2
  26   15   24 1
  27   17   25 1
  28   17   26 1
  29   17   27 1

#	End of record

