#	Name: ASD05513015
#	Creating user name:	WinNT
#	Creation time:	15. 06. 2019 21:01

#	Modifying user name:	WinNT
#	Modification time:	15. 06. 2019 21:01

#	Program:	/corina/corina34_cracker 3.40 0067  02.08.2006

@<TRIPOS>MOLECULE
ASD05513015
  29   31    0    0    0
SMALL
NO_CHARGES


@<TRIPOS>ATOM
   1 C1            -0.1880     1.1307    -0.9091 C.2     
   2 C2             0.0021    -0.0041     0.0020 C.2     
   3 C3             1.1418    -0.7448    -0.0623 C.2     
   4 C4             2.5217    -0.2575    -0.2597 C.ar    
   5 C5             3.3493    -1.3905    -0.2544 C.ar    
   6 N6             2.5729    -2.5301    -0.0683 N.am    
   7 C7             1.2708    -2.2217     0.0574 C.2     
   8 C8             3.0691     1.0136    -0.4310 C.ar    
   9 C9             4.4336     1.1543    -0.5962 C.ar    
  10 C10            5.2517     0.0373    -0.5913 C.ar    
  11 C11            4.7187    -1.2262    -0.4226 C.ar    
  12 O12            0.3614    -3.0088     0.2298 O.2     
  13 O13            0.5991     1.3203    -1.8165 O.2     
  14 C14           -1.3416     2.0410    -0.7273 C.ar    
  15 Cl15           2.0409     2.4124    -0.4374 Cl      
  16 N16           -2.2009     1.8258     0.2619 N.ar    
  17 C17           -3.2379     2.6104     0.4577 C.ar    
  18 C18           -3.4733     3.6987    -0.3677 C.ar    
  19 C19           -2.6010     3.9604    -1.4133 C.ar    
  20 C20           -1.5137     3.1209    -1.5929 C.ar    
  21 H21           -0.7626    -0.2512     0.7235 H       
  22 H22            2.9271    -3.4323    -0.0298 H       
  23 H23            4.8625     2.1364    -0.7297 H       
  24 H24            6.3174     0.1548    -0.7213 H       
  25 H25            5.3686    -2.0888    -0.4209 H       
  26 H26           -3.9157     2.4037     1.2727 H       
  27 H27           -4.3282     4.3365    -0.1984 H       
  28 H28           -2.7632     4.8021    -2.0704 H       
  29 H29           -0.8139     3.2953    -2.3968 H       
@<TRIPOS>BOND
   1    1    2 1
   2    1   13 2
   3    1   14 1
   4    2    3 2
   5    2   21 1
   6    3    4 1
   7    3    7 1
   8    4    5 ar
   9    4    8 ar
  10    5    6 1
  11    5   11 ar
  12    6    7 am
  13    6   22 1
  14    7   12 2
  15    8    9 ar
  16    8   15 1
  17    9   10 ar
  18    9   23 1
  19   10   11 ar
  20   10   24 1
  21   11   25 1
  22   14   16 ar
  23   14   20 ar
  24   16   17 ar
  25   17   18 ar
  26   17   26 1
  27   18   19 ar
  28   18   27 1
  29   19   20 ar
  30   19   28 1
  31   20   29 1

#	End of record

