#	Name: ASD03090738
#	Creating user name:	WinNT
#	Creation time:	15. 06. 2019 20:29

#	Modifying user name:	WinNT
#	Modification time:	15. 06. 2019 20:29

#	Program:	/corina/corina34_cracker 3.40 0067  02.08.2006

@<TRIPOS>MOLECULE
ASD03090738
  36   37    0    0    0
SMALL
NO_CHARGES


@<TRIPOS>ATOM
   1 N1            -0.0162     1.3436     0.0094 N.am    
   2 C2             0.0385     0.2169     0.7471 C.2     
   3 O3             1.0858    -0.1208     1.2643 O.2     
   4 N4            -1.0676    -0.5353     0.9116 N.am    
   5 S5            -2.3224    -2.7577     1.9756 S.3     
   6 C6            -1.0112    -1.6977     1.6728 C.2     
   7 N7             0.0448    -2.1602     2.2714 N.2     
   8 N8            -0.0749    -3.2340     2.9245 N.2     
   9 C9            -1.2502    -3.7776     2.9357 C.2     
  10 C10           -1.6333    -5.0523     3.6425 C.3     
  11 F11           -0.5458    -5.5155     4.3908 F       
  12 F12           -2.7149    -4.8059     4.4950 F       
  13 F13           -1.9948    -6.0188     2.6978 F       
  14 C14            1.1073     2.1728    -0.0861 C.ar    
  15 C15            0.9335     3.5594    -0.2288 C.ar    
  16 C16            2.0249     4.4132    -0.3261 C.ar    
  17 C17            3.3081     3.9044    -0.2833 C.ar    
  18 C18            3.4957     2.4550    -0.1342 C.ar    
  19 C19            2.3543     1.6230    -0.0335 C.ar    
  20 O20            4.3791     4.7304    -0.3781 O.3     
  21 C21            4.1107     6.1267    -0.5215 C.3     
  22 O22           -0.3207     4.0730    -0.2727 O.3     
  23 C23           -0.4368     5.4897    -0.4190 C.3     
  24 N24            4.7137     1.9351    -0.0898 N.2     
  25 N25            4.8470     0.8249     0.0246 N.1     
  26 N26            4.9803    -0.2853     0.1389 N.pl3   
  27 H27           -0.8330     1.5776    -0.4586 H       
  28 H28           -1.9032    -0.2658     0.4991 H       
  29 H29            1.8697     5.4763    -0.4357 H       
  30 H30            2.4709     0.5554     0.0807 H       
  31 H31            3.5307     6.2938    -1.4291 H       
  32 H32            3.5449     6.4784     0.3412 H       
  33 H33            5.0519     6.6728    -0.5860 H       
  34 H34           -1.4906     5.7677    -0.4400 H       
  35 H35            0.0524     5.9830     0.4209 H       
  36 H36            0.0392     5.7991    -1.3495 H       
@<TRIPOS>BOND
   1    1    2 am
   2    1   14 1
   3    1   27 1
   4    2    3 2
   5    2    4 am
   6    4    6 1
   7    4   28 1
   8    5    6 1
   9    5    9 1
  10    6    7 2
  11    7    8 1
  12    8    9 2
  13    9   10 1
  14   10   11 1
  15   10   12 1
  16   10   13 1
  17   14   15 ar
  18   14   19 ar
  19   15   16 ar
  20   15   22 1
  21   16   17 ar
  22   16   29 1
  23   17   18 ar
  24   17   20 1
  25   18   19 ar
  26   18   24 1
  27   19   30 1
  28   20   21 1
  29   21   31 1
  30   21   32 1
  31   21   33 1
  32   22   23 1
  33   23   34 1
  34   23   35 1
  35   23   36 1
  36   24   25 2
  37   25   26 2

#	End of record

