#	Name: ASD07110001
#	Creating user name:	WinNT
#	Creation time:	15. 06. 2019 21:08

#	Modifying user name:	WinNT
#	Modification time:	15. 06. 2019 21:08

#	Program:	/corina/corina34_cracker 3.40 0067  02.08.2006

@<TRIPOS>MOLECULE
ASD07110001
 602  613    0    0    0
SMALL
NO_CHARGES


@<TRIPOS>ATOM
   1 C1            41.2002    -9.3638   -45.3603 C.2     
   2 O2            42.0263    -9.8622   -44.6254 O.2     
   3 N3            42.9728    -9.1740   -47.0116 N.3     
   4 C4            41.5166    -9.1569   -46.8191 C.3     
   5 C5            40.8801   -10.2781   -47.6429 C.3     
   6 C6            41.0915   -10.0058   -49.1099 C.2     
   7 O7            41.6899    -9.0164   -49.4606 O.2     
   8 O8            40.6151   -10.8623   -50.0271 O.3     
   9 C9            39.5034   -10.7230   -43.2222 C.2     
  10 O10           39.6621   -11.5149   -44.1270 O.2     
  11 N11           39.9973    -8.9999   -44.8734 N.am    
  12 C12           39.5176    -9.2429   -43.5051 C.3     
  13 C13           38.0844    -8.6776   -43.4148 C.3     
  14 C14           37.6261    -8.6541   -44.8970 C.3     
  15 C15           38.9470    -8.2868   -45.6229 C.3     
  16 C16           37.7697   -13.0382   -41.9496 C.2     
  17 O17           36.9406   -12.2279   -42.3060 O.2     
  18 N18           39.3145   -11.1668   -41.9636 N.am    
  19 C19           39.1915   -12.6034   -41.7042 C.3     
  20 C20           39.5699   -12.8933   -40.2503 C.3     
  21 C21           41.0310   -12.5891   -40.0413 C.2     
  22 C22           42.0509   -13.4544   -40.1551 C.2     
  23 N23           43.2337   -12.8185   -39.8924 N.pl3   
  24 C24           42.9978   -11.4949   -39.5955 C.ar    
  25 C25           43.8234   -10.4263   -39.2624 C.ar    
  26 C26           43.2731    -9.1874   -39.0158 C.ar    
  27 C27           41.9012    -8.9934   -39.0963 C.ar    
  28 C28           41.0715   -10.0295   -39.4215 C.ar    
  29 C29           41.6081   -11.2917   -39.6815 C.ar    
  30 C30           35.7437   -15.9881   -41.2033 C.2     
  31 O31           36.6045   -16.4697   -40.4977 O.2     
  32 N32           37.4193   -14.3276   -41.7728 N.am    
  33 C33           36.0370   -14.7503   -42.0114 C.3     
  34 C34           35.8463   -15.0551   -43.4985 C.3     
  35 C35           36.0220   -13.7694   -44.3092 C.3     
  36 C36           35.8341   -14.0696   -45.7740 C.2     
  37 O37           35.5852   -15.1962   -46.1327 O.2     
  38 O38           35.9433   -13.0853   -46.6801 O.3     
  39 C39           33.1255   -18.5383   -41.1342 C.2     
  40 O40           32.6195   -18.1262   -42.1565 O.2     
  41 N41           34.5248   -16.5599   -41.2648 N.am    
  42 C42           34.2397   -17.7632   -40.4793 C.3     
  43 C43           33.8179   -17.3607   -39.0647 C.3     
  44 C44           34.9924   -16.6833   -38.3557 C.3     
  45 C45           34.5770   -16.2869   -36.9623 C.2     
  46 O46           33.4524   -16.5229   -36.5746 O.2     
  47 N47           35.4553   -15.6701   -36.1471 N.am    
  48 C48           30.9048   -21.2827   -40.1857 C.2     
  49 O49           31.2719   -21.2545   -39.0302 O.2     
  50 N50           32.6915   -19.6895   -40.5839 N.am    
  51 C51           31.6084   -20.4430   -41.2206 C.3     
  52 C52           32.1889   -21.3518   -42.3060 C.3     
  53 C53           32.7850   -20.5072   -43.4025 C.2     
  54 C54           34.0477   -20.5856   -43.8640 C.2     
  55 N55           34.1672   -19.6462   -44.8524 N.pl3   
  56 C56           32.9725   -19.0260   -44.9605 C.2     
  57 N57           32.1493   -19.5496   -44.0937 N.2     
  58 C58           28.5311   -24.0626   -40.2090 C.2     
  59 O59           28.6279   -24.2084   -41.4091 O.2     
  60 N60           29.8676   -22.0651   -40.5444 N.am    
  61 C61           29.1836   -22.8813   -39.5384 C.3     
  62 C62           28.1159   -22.0386   -38.8378 C.3     
  63 C63           26.0468   -26.5818   -39.2895 C.2     
  64 O64           25.7774   -26.0175   -38.2504 O.2     
  65 N65           27.8400   -24.9572   -39.4751 N.am    
  66 C66           27.2056   -26.1056   -40.1271 C.3     
  67 C67           28.2262   -27.2358   -40.2753 C.3     
  68 C68           29.3407   -26.7951   -41.2264 C.3     
  69 C69           30.3613   -27.9253   -41.3746 C.3     
  70 C70           31.4757   -27.4846   -42.3257 C.3     
  71 N71           32.4556   -28.5698   -42.4680 N.3     
  72 C72           23.9228   -29.5544   -39.1660 C.2     
  73 O73           24.6104   -30.1475   -39.9700 O.2     
  74 N74           25.3099   -27.6348   -39.6953 N.am    
  75 C75           24.1834   -28.0977   -38.8811 C.3     
  76 C76           22.9365   -27.2800   -39.2238 C.3     
  77 C77           23.1528   -25.8430   -38.8248 C.2     
  78 C78           22.7769   -25.2695   -37.6708 C.2     
  79 N79           23.1429   -23.9510   -37.6641 N.pl3   
  80 C80           23.7794   -23.6359   -38.8436 C.ar    
  81 C81           24.3410   -22.4669   -39.3460 C.ar    
  82 C82           24.9221   -22.4688   -40.5954 C.ar    
  83 C83           24.9533   -23.6268   -41.3598 C.ar    
  84 C84           24.4070   -24.7864   -40.8858 C.ar    
  85 C85           23.8188   -24.8086   -39.6201 C.ar    
  86 C86           21.2338   -31.9375   -38.4928 C.2     
  87 O87           20.6078   -31.2381   -37.7248 O.2     
  88 N88           22.9257   -30.1981   -38.5274 N.am    
  89 C89           22.6724   -31.6142   -38.8044 C.3     
  90 C90           23.5889   -32.4760   -37.9337 C.3     
  91 C91           25.0230   -32.2528   -38.3395 C.ar    
  92 C92           25.7654   -31.2574   -37.7314 C.ar    
  93 C93           27.0800   -31.0504   -38.1020 C.ar    
  94 C94           27.6553   -31.8427   -39.0848 C.ar    
  95 O95           28.9486   -31.6413   -39.4508 O.3     
  96 C96           26.9085   -32.8411   -39.6931 C.ar    
  97 C97           25.5958   -33.0474   -39.3153 C.ar    
  98 C98           18.8834   -33.6018   -37.4911 C.2     
  99 O99           19.7374   -33.4760   -36.6392 O.2     
 100 N100          20.6430   -33.0038   -39.0676 N.am    
 101 C101          19.2247   -33.3696   -38.9404 C.3     
 102 C102          19.0130   -34.6697   -39.7444 C.3     
 103 C103          20.4411   -35.2721   -39.8133 C.3     
 104 C104          21.3105   -33.9930   -39.9333 C.3     
 105 C105          15.8422   -34.5494   -35.6129 C.2     
 106 O106          15.1506   -34.6204   -36.6067 O.2     
 107 N107          17.6290   -33.9494   -37.1415 N.am    
 108 C108          17.2971   -34.1752   -35.7326 C.3     
 109 C109          13.3962   -34.8110   -32.9090 C.2     
 110 O110          14.1479   -34.3024   -32.1045 O.2     
 111 N111          15.3096   -34.8050   -34.4015 N.am    
 112 C112          13.8952   -35.1687   -34.2852 C.3     
 113 C113          13.7354   -36.6736   -34.5105 C.3     
 114 S114          14.3362   -37.1041   -36.1671 S.3     
 115 C115          10.4515   -35.5813   -30.8845 C.2     
 116 O116          10.0563   -36.4119   -31.6749 O.2     
 117 N117          12.1144   -35.0564   -32.5721 N.am    
 118 C118          11.6293   -34.7087   -31.2342 C.3     
 119 C119          11.2001   -33.2402   -31.2130 C.3     
 120 C120          12.4215   -32.3485   -31.4451 C.3     
 121 C121          11.9924   -30.8801   -31.4239 C.3     
 122 C122          13.2138   -29.9884   -31.6559 C.3     
 123 N123          12.8017   -28.5785   -31.6356 N.3     
 124 C124           7.8314   -35.5846   -28.3353 C.2     
 125 O125           8.1434   -34.4836   -27.9334 O.2     
 126 N126           9.8373   -35.4387   -29.6933 N.am    
 127 C127           8.6924   -36.2871   -29.3533 C.3     
 128 C128           9.1932   -37.6105   -28.7713 C.3     
 129 C129           9.9515   -38.3696   -29.8295 C.ar    
 130 C130          11.3141   -38.1819   -29.9705 C.ar    
 131 C131          12.0114   -38.8762   -30.9401 C.ar    
 132 C132          11.3435   -39.7627   -31.7723 C.ar    
 133 O133          12.0273   -40.4473   -32.7266 O.3     
 134 C134           9.9764   -39.9496   -31.6285 C.ar    
 135 C135           9.2845   -39.2568   -30.6540 C.ar    
 136 C136           5.1010   -36.4358   -26.0772 C.2     
 137 O137           4.9985   -37.5965   -26.4136 O.2     
 138 N138           6.7146   -36.1797   -27.8716 N.am    
 139 C139           5.8199   -35.4542   -26.9664 C.3     
 140 C140           4.7971   -34.6640   -27.7852 C.3     
 141 C141           3.9597   -33.7904   -26.8490 C.3     
 142 C142           4.8432   -32.6964   -26.2461 C.3     
 143 C143           2.8177   -33.1466   -27.6379 C.3     
 144 C144           2.8273   -36.1675   -23.2274 C.2     
 145 O145           2.8146   -34.9559   -23.2802 O.2     
 146 N146           4.5720   -36.0239   -24.9080 N.am    
 147 C147           3.7777   -36.9497   -24.0968 C.3     
 148 C148           4.7094   -37.7820   -23.2135 C.3     
 149 C149           5.5901   -38.6696   -24.0953 C.3     
 150 C150           6.6058   -39.4087   -23.2218 C.3     
 151 C151           4.7148   -39.6862   -24.8310 C.3     
 152 C152           0.7126   -36.8695   -20.3294 C.2     
 153 O153           1.1850   -37.9769   -20.1828 O.2     
 154 N154           1.9914   -36.8144   -22.3911 N.am    
 155 C155           1.0675   -36.0539   -21.5459 C.3     
 156 C156          -0.2038   -35.7375   -22.3363 C.3     
 157 C157           0.1385   -34.8066   -23.5013 C.3     
 158 C158          -1.1136   -34.4949   -24.2798 C.2     
 159 O159          -2.1712   -34.9687   -23.9380 O.2     
 160 O160          -1.0539   -33.6909   -25.3530 O.3     
 161 C161          -1.8128   -36.7153   -17.6909 C.2     
 162 O162          -2.4187   -35.8233   -18.2459 O.2     
 163 N163          -0.1297   -36.3683   -19.4043 N.am    
 164 C164          -0.4747   -37.1611   -18.2216 C.3     
 165 C165           0.5934   -36.9614   -17.1445 C.3     
 166 C166           1.9266   -37.5281   -17.6369 C.3     
 167 C167           2.9786   -37.3314   -16.5759 C.2     
 168 O168           2.6904   -36.7912   -15.5290 O.2     
 169 N169           4.2396   -37.7559   -16.7905 N.am    
 170 C170          -3.7271   -37.1962   -14.6140 C.2     
 171 O171          -2.7962   -37.7343   -14.0529 O.2     
 172 N172          -2.3363   -37.3080   -16.5995 N.am    
 173 C173          -3.6372   -36.8747   -16.0836 C.3     
 174 C174          -4.7525   -37.6048   -16.8345 C.3     
 175 C175          -4.7390   -37.1818   -18.3048 C.3     
 176 C176          -5.8543   -37.9119   -19.0558 C.3     
 177 C177          -5.8408   -37.4890   -20.5261 C.3     
 178 N178          -6.9116   -38.1899   -21.2472 N.3     
 179 C179          -6.2676   -36.7526   -11.9639 C.2     
 180 O180          -7.0693   -36.2257   -12.7060 O.2     
 181 N181          -4.8420   -36.8858   -13.9233 N.am    
 182 C182          -4.9295   -37.1983   -12.4947 C.3     
 183 C183          -7.7661   -36.2455    -8.6684 C.2     
 184 O184          -6.7067   -36.4058    -8.1003 O.2     
 185 N185          -6.5735   -36.9394   -10.6647 N.am    
 186 C186          -7.8744   -36.5061   -10.1488 C.3     
 187 C187          -8.9128   -37.6014   -10.3992 C.3     
 188 C188          -9.1136   -37.7791   -11.9055 C.3     
 189 C189         -10.1365   -38.8580   -12.1521 C.2     
 190 O190         -10.6540   -39.4286   -11.2153 O.2     
 191 N191         -10.4763   -39.1887   -13.4137 N.am    
 192 C192         -10.0971   -35.7402    -5.8982 C.2     
 193 O193         -11.0567   -36.0364    -6.5782 O.2     
 194 N194          -8.8467   -35.8341    -7.9758 N.am    
 195 C195          -8.7415   -35.5807    -6.5368 C.3     
 196 C196          -8.2332   -34.1562    -6.3055 C.3     
 197 C197          -6.8067   -34.0300    -6.8441 C.3     
 198 C198          -6.3062   -32.6269    -6.6164 C.2     
 199 O199          -7.0174   -31.8116    -6.0785 O.2     
 200 O200          -5.0702   -32.2829    -7.0111 O.3     
 201 C201         -11.6182   -34.8954    -2.6833 C.2     
 202 O202         -10.6532   -34.2497    -2.3331 O.2     
 203 N203         -10.2432   -35.5538    -4.5714 N.am    
 204 C204         -11.5611   -35.7089    -3.9506 C.3     
 205 C205         -11.7992   -37.1839    -3.6211 C.3     
 206 C206         -11.8643   -37.9799    -4.8990 C.ar    
 207 C207         -10.7107   -38.5240    -5.4327 C.ar    
 208 C208         -10.7677   -39.2538    -6.6043 C.ar    
 209 C209         -11.9838   -39.4408    -7.2452 C.ar    
 210 O210         -12.0425   -40.1587    -8.3976 O.3     
 211 C211         -13.1399   -38.8942    -6.7074 C.ar    
 212 C212         -13.0784   -38.1697    -5.5328 C.ar    
 213 C213         -13.8254   -34.6855     0.2231 C.2     
 214 O214         -14.4502   -35.6701    -0.1103 O.2     
 215 N215         -12.7418   -34.8855    -1.9390 N.am    
 216 C216         -12.7974   -34.0947    -0.7070 C.3     
 217 C217         -13.1828   -32.6528    -1.0434 C.3     
 218 C218         -14.5538   -32.6365    -1.7222 C.3     
 219 C219         -14.9949   -31.1886    -1.9460 C.3     
 220 C220         -12.1390   -32.0530    -1.9878 C.3     
 221 C221         -16.4348   -34.0087     1.8643 C.2     
 222 O222         -16.4674   -33.2240     0.9401 O.2     
 223 N223         -14.0506   -34.1197     1.4255 N.am    
 224 C224         -15.1251   -34.6254     2.2833 C.3     
 225 C225         -14.8310   -34.2580     3.7392 C.3     
 226 C226         -13.5874   -34.9755     4.1970 C.2     
 227 O227         -13.0524   -35.7857     3.4701 O.2     
 228 N228         -13.0697   -34.7170     5.4142 N.am    
 229 C229         -18.9512   -32.3959     3.0100 C.2     
 230 O230         -18.0806   -32.1001     3.8008 O.2     
 231 N231         -17.5698   -34.3291     2.5166 N.am    
 232 C232         -18.8236   -33.6490     2.1826 C.3     
 233 C233         -20.0025   -34.5781     2.4789 C.3     
 234 C234         -19.9469   -35.7695     1.5578 C.2     
 235 O235         -19.0096   -35.9075     0.8007 O.2     
 236 N236         -20.9389   -36.6818     1.5755 N.am    
 237 C237         -21.5422   -30.0357     3.9443 C.2     
 238 O238         -22.4212   -30.7933     3.5916 O.2     
 239 N239         -20.0329   -31.6039     2.8711 N.am    
 240 C240         -20.1068   -30.3316     3.5936 C.3     
 241 C241         -19.5562   -29.2106     2.7099 C.3     
 242 C242         -20.2741   -29.2269     1.3589 C.3     
 243 C243         -21.7336   -28.8105     1.5519 C.3     
 244 C244         -18.0564   -29.4220     2.4930 C.3     
 245 C245         -23.4515   -27.2189     5.2796 C.2     
 246 O246         -22.5467   -26.4373     5.0769 O.2     
 247 N247         -21.8492   -28.9292     4.6498 N.am    
 248 C248         -23.2290   -28.6965     5.0837 C.3     
 249 C249         -23.4792   -29.4293     6.4032 C.3     
 250 C250         -23.3771   -30.9161     6.1793 C.2     
 251 C251         -22.5740   -31.7640     6.8498 C.2     
 252 N252         -22.7962   -33.0120     6.3332 N.pl3   
 253 C253         -23.7281   -32.8831     5.3643 C.2     
 254 N254         -24.0745   -31.6276     5.2813 N.2     
 255 C255         -26.0292   -25.1718     6.8892 C.2     
 256 O256         -26.9089   -26.0066     6.9038 O.2     
 257 N257         -24.6561   -26.7661     5.6802 N.am    
 258 C258         -24.8424   -25.3436     5.9765 C.3     
 259 C259         -25.0859   -24.5789     4.6739 C.3     
 260 C260         -25.2177   -23.0849     4.9765 C.3     
 261 C261         -23.8704   -22.5407     5.4554 C.3     
 262 C262         -25.6455   -22.3435     3.7084 C.3     
 263 C263         -27.4578   -22.5072     8.9440 C.2     
 264 O264         -26.6595   -21.6731     8.5724 O.2     
 265 N265         -26.1131   -24.0905     7.6893 N.am    
 266 C266         -27.2245   -23.9637     8.6353 C.3     
 267 C267         -26.8831   -24.7103     9.9264 C.3     
 268 C268         -26.6405   -26.1879     9.6121 C.3     
 269 O269         -25.7043   -24.1466    10.5051 O.3     
 270 C270         -29.6189   -20.6590    11.2411 C.2     
 271 O271         -30.0690   -21.6762    11.7245 O.2     
 272 N272         -28.5534   -22.1314     9.6331 N.am    
 273 C273         -28.7245   -20.7317    10.0304 C.3     
 274 C274         -29.3596   -19.9488     8.8795 C.3     
 275 C275         -28.4107   -19.9179     7.7092 C.2     
 276 C276         -28.6882   -20.3205     6.4544 C.2     
 277 N277         -27.5543   -20.1204     5.7143 N.pl3   
 278 C278         -26.6226   -19.6020     6.5431 C.2     
 279 N279         -27.1434   -19.4790     7.7334 N.2     
 280 C280         -31.4559   -18.0430    13.0145 C.2     
 281 O281         -31.2282   -17.2209    12.1524 O.2     
 282 N282         -29.9185   -19.4636    11.7868 N.am    
 283 C283         -30.7880   -19.3929    12.9638 C.3     
 284 C284         -29.9515   -19.5959    14.2287 C.3     
 285 O285         -29.0329   -18.5106    14.3715 O.3     
 286 C286         -33.1762   -16.1027    15.5740 C.2     
 287 O287         -33.3104   -17.0112    16.3662 O.2     
 288 N288         -32.3065   -17.7493    14.0179 N.am    
 289 C289         -32.8710   -16.4020    14.1289 C.3     
 290 C290         -34.1594   -16.3196    13.3079 C.3     
 291 C291         -34.6555   -14.8725    13.2811 C.3     
 292 C292         -33.6503   -14.0028    12.5234 C.3     
 293 C293         -36.0135   -14.8119    12.5790 C.3     
 294 C294         -34.3423   -13.1780    17.4314 C.2     
 295 O295         -34.4653   -12.5167    16.4222 O.2     
 296 N296         -33.3000   -14.8254    15.9861 N.am    
 297 C297         -33.6925   -14.5363    17.3676 C.3     
 298 C298         -32.4525   -14.5510    18.2638 C.3     
 299 C299         -31.8643   -15.9630    18.2973 C.3     
 300 C300         -30.6429   -15.9775    19.1801 C.2     
 301 O301         -30.2803   -14.9627    19.7263 O.2     
 302 O302         -29.9580   -17.1179    19.3594 O.3     
 303 C303         -34.3551   -10.3182    18.8058 C.2     
 304 O304         -33.1894   -10.6336    18.8455 O.2     
 305 N305         -34.7866   -12.6982    18.6098 N.am    
 306 C306         -35.4182   -11.3778    18.6718 C.3     
 307 C307         -36.3545   -11.3166    19.8803 C.3     
 308 C308         -37.5045   -12.3067    19.6852 C.3     
 309 C309         -38.4267   -12.2464    20.8756 C.2     
 310 O310         -38.1886   -11.4892    21.7865 O.2     
 311 O311         -39.5127   -13.0339    20.9238 O.3     
 312 O312         -34.7032    -9.0240    18.8811 O.3     
 313 H313          43.4103    -8.4033   -46.5291 H       
 314 H314          43.3662   -10.0552   -46.7170 H       
 315 H315          41.1183    -8.1959   -47.1446 H       
 316 H316          41.3422   -11.2296   -47.3797 H       
 317 H317          39.8116   -10.3225   -47.4319 H       
 318 H318          40.7755   -10.6452   -50.9557 H       
 319 H319          40.1646    -8.7351   -42.7898 H       
 320 H320          37.4468    -9.3356   -42.8244 H       
 321 H321          38.0926    -7.6706   -42.9977 H       
 322 H322          37.2640    -9.6336   -45.2095 H       
 323 H323          36.8673    -7.8887   -45.0592 H       
 324 H324          39.1173    -7.2109   -45.5841 H       
 325 H325          38.9192    -8.6303   -46.6570 H       
 326 H326          39.2600   -10.5350   -41.2297 H       
 327 H327          39.8589   -13.1512   -42.3695 H       
 328 H328          38.9704   -12.2693   -39.5875 H       
 329 H329          39.3821   -13.9439   -40.0286 H       
 330 H330          41.9525   -14.4980   -40.4151 H       
 331 H331          44.1082   -13.2378   -39.9123 H       
 332 H332          44.8921   -10.5672   -39.1969 H       
 333 H333          43.9158    -8.3589   -38.7570 H       
 334 H334          41.4859    -8.0160   -38.9000 H       
 335 H335          40.0049    -9.8712   -39.4818 H       
 336 H336          38.0823   -14.9757   -41.4877 H       
 337 H337          35.3566   -13.9525   -41.7138 H       
 338 H338          36.5864   -15.7893   -43.8168 H       
 339 H339          34.8451   -15.4539   -43.6622 H       
 340 H340          35.2819   -13.0352   -43.9909 H       
 341 H341          37.0231   -13.3706   -44.1455 H       
 342 H342          35.8145   -13.3263   -47.6077 H       
 343 H343          33.8363   -16.1747   -41.8292 H       
 344 H344          35.1338   -18.3845   -40.4289 H       
 345 H345          32.9780   -16.6681   -39.1192 H       
 346 H346          33.5207   -18.2491   -38.5076 H       
 347 H347          35.8323   -17.3759   -38.3012 H       
 348 H348          35.2897   -15.7949   -38.9128 H       
 349 H349          36.3548   -15.4813   -36.4572 H       
 350 H350          35.1880   -15.4149   -35.2503 H       
 351 H351          33.0962   -20.0191   -39.7663 H       
 352 H352          30.8980   -19.7489   -41.6695 H       
 353 H353          32.9633   -21.9853   -41.8736 H       
 354 H354          31.3968   -21.9766   -42.7186 H       
 355 H355          34.8182   -21.2598   -43.5201 H       
 356 H356          34.9616   -19.4606   -45.3771 H       
 357 H357          32.7362   -18.2312   -45.6525 H       
 358 H358          29.5740   -22.0876   -41.4686 H       
 359 H359          29.9074   -23.2346   -38.8038 H       
 360 H360          27.3922   -21.6854   -39.5724 H       
 361 H361          27.6070   -22.6460   -38.0893 H       
 362 H362          28.5879   -21.1842   -38.3528 H       
 363 H363          27.7626   -24.8407   -38.5152 H       
 364 H364          26.8447   -25.8104   -41.1123 H       
 365 H365          28.6526   -27.4706   -39.3000 H       
 366 H366          27.7329   -28.1202   -40.6786 H       
 367 H367          28.9143   -26.5603   -42.2017 H       
 368 H368          29.8340   -25.9107   -40.8231 H       
 369 H369          30.7876   -28.1601   -40.3993 H       
 370 H370          29.8680   -28.8097   -41.7779 H       
 371 H371          31.0494   -27.2499   -43.3010 H       
 372 H372          31.9690   -26.6002   -41.9224 H       
 373 H373          33.2024   -28.3031   -43.0919 H       
 374 H374          32.8181   -28.8498   -41.5690 H       
 375 H375          25.5254   -28.0861   -40.5264 H       
 376 H376          24.4221   -27.9710   -37.8251 H       
 377 H377          22.7492   -27.3351   -40.2962 H       
 378 H378          22.0789   -27.6818   -38.6842 H       
 379 H379          22.2615   -25.7739   -36.8668 H       
 380 H380          22.9784   -23.3308   -36.9367 H       
 381 H381          24.3214   -21.5605   -38.7590 H       
 382 H382          25.3573   -21.5599   -40.9839 H       
 383 H383          25.4126   -23.6113   -42.3371 H       
 384 H384          24.4346   -25.6835   -41.4864 H       
 385 H385          22.3758   -29.7237   -37.8844 H       
 386 H386          22.8715   -31.8200   -39.8561 H       
 387 H387          23.4604   -32.2003   -36.8870 H       
 388 H388          23.3332   -33.5273   -38.0665 H       
 389 H389          25.3170   -30.6409   -36.9663 H       
 390 H390          27.6592   -30.2723   -37.6272 H       
 391 H391          29.5869   -32.1571   -38.9394 H       
 392 H392          27.3540   -33.4589   -40.4588 H       
 393 H393          25.0153   -33.8274   -39.7854 H       
 394 H394          18.5990   -32.5743   -39.3456 H       
 395 H395          18.3356   -35.3424   -39.2183 H       
 396 H396          18.6391   -34.4484   -40.7440 H       
 397 H397          20.6765   -35.8247   -38.9037 H       
 398 H398          20.5563   -35.9046   -40.6936 H       
 399 H399          21.3318   -33.6413   -40.9648 H       
 400 H400          22.3221   -34.1875   -39.5770 H       
 401 H401          16.9459   -34.0501   -37.8228 H       
 402 H402          17.4860   -33.2645   -35.1643 H       
 403 H403          17.9137   -34.9834   -35.3391 H       
 404 H404          15.8627   -34.7482   -33.6067 H       
 405 H405          13.3178   -34.6260   -35.0335 H       
 406 H406          14.3129   -37.2164   -33.7621 H       
 407 H407          12.6831   -36.9442   -34.4239 H       
 408 H408          14.1377   -38.4332   -36.2249 H       
 409 H409          11.5132   -35.4632   -33.2155 H       
 410 H410          12.4259   -34.8649   -30.5068 H       
 411 H411          10.4671   -33.0645   -32.0004 H       
 412 H412          10.7571   -33.0051   -30.2453 H       
 413 H413          13.1545   -32.5242   -30.6577 H       
 414 H414          12.8645   -32.5837   -32.4128 H       
 415 H415          11.2594   -30.7044   -32.2113 H       
 416 H416          11.5494   -30.6449   -30.4561 H       
 417 H417          13.9468   -30.1641   -30.8685 H       
 418 H418          13.6567   -30.2235   -32.6237 H       
 419 H419          13.5914   -27.9688   -31.7867 H       
 420 H420          12.0753   -28.4043   -32.3139 H       
 421 H421          10.1534   -34.7744   -29.0611 H       
 422 H422           8.1064   -36.4836   -30.2511 H       
 423 H423           9.8515   -37.4097   -27.9261 H       
 424 H424           8.3432   -38.2050   -28.4365 H       
 425 H425          11.8336   -37.4917   -29.3224 H       
 426 H426          13.0756   -38.7288   -31.0503 H       
 427 H427          12.3748   -41.2986   -32.4271 H       
 428 H428           9.4541   -40.6389   -32.2754 H       
 429 H429           8.2209   -39.4051   -30.5387 H       
 430 H430           6.5032   -37.0884   -28.1371 H       
 431 H431           6.4028   -34.7673   -26.3527 H       
 432 H432           5.3179   -34.0311   -28.5038 H       
 433 H433           4.1444   -35.3563   -28.3169 H       
 434 H434           3.5472   -34.4060   -26.0497 H       
 435 H435           5.1999   -32.0392   -27.0391 H       
 436 H436           4.2641   -32.1170   -25.5270 H       
 437 H437           5.6949   -33.1537   -25.7425 H       
 438 H438           2.1883   -33.9259   -28.0675 H       
 439 H439           2.2211   -32.5242   -26.9710 H       
 440 H440           3.2302   -32.5309   -28.4373 H       
 441 H441           4.7171   -35.1143   -24.6037 H       
 442 H442           3.2105   -37.6115   -24.7513 H       
 443 H443           5.3397   -37.1173   -22.6227 H       
 444 H444           4.1155   -38.4072   -22.5468 H       
 445 H445           6.1174   -38.0511   -24.8216 H       
 446 H446           6.0785   -40.0271   -22.4955 H       
 447 H447           7.2332   -40.0410   -23.8500 H       
 448 H448           7.2294   -38.6844   -22.6977 H       
 449 H449           4.1875   -40.3047   -24.1046 H       
 450 H450           3.9912   -39.1597   -25.4532 H       
 451 H451           5.3422   -40.3185   -25.4592 H       
 452 H452           2.0015   -37.7834   -22.3488 H       
 453 H453           1.5423   -35.1238   -21.2339 H       
 454 H454          -0.6305   -36.6626   -22.7238 H       
 455 H455          -0.9265   -35.2501   -21.6820 H       
 456 H456           0.5652   -33.8814   -23.1139 H       
 457 H457           0.8613   -35.2940   -24.1556 H       
 458 H458          -1.8832   -33.5201   -25.8203 H       
 459 H459          -0.5075   -35.4826   -19.5215 H       
 460 H460          -0.5243   -38.2156   -18.4930 H       
 461 H461           0.7055   -35.8972   -16.9368 H       
 462 H462           0.2925   -37.4795   -16.2339 H       
 463 H463           1.8145   -38.5922   -17.8446 H       
 464 H464           2.2275   -37.0099   -18.5474 H       
 465 H465           4.4701   -38.1879   -17.6278 H       
 466 H466           4.9168   -37.6293   -16.1076 H       
 467 H467          -1.8517   -38.0215   -16.1556 H       
 468 H468          -3.7454   -35.7997   -16.2276 H       
 469 H469          -4.5937   -38.6809   -16.7645 H       
 470 H470          -5.7156   -37.3501   -16.3921 H       
 471 H471          -4.8978   -36.1058   -18.3749 H       
 472 H472          -3.7759   -37.4366   -18.7473 H       
 473 H473          -5.6955   -38.9880   -18.9858 H       
 474 H474          -6.8173   -37.6572   -18.6133 H       
 475 H475          -5.9995   -36.4129   -20.5961 H       
 476 H476          -4.8777   -37.7437   -20.9686 H       
 477 H477          -6.9236   -37.9273   -22.2213 H       
 478 H478          -6.8233   -39.1896   -21.1432 H       
 479 H479          -5.5865   -36.4554   -14.3721 H       
 480 H480          -4.1349   -36.6782   -11.9597 H       
 481 H481          -4.8212   -38.2733   -12.3506 H       
 482 H482          -5.9323   -37.3608   -10.0712 H       
 483 H483          -8.1807   -35.5919   -10.6572 H       
 484 H484          -8.5639   -38.5388    -9.9661 H       
 485 H485          -9.8586   -37.3178    -9.9375 H       
 486 H486          -9.4626   -36.8417   -12.3386 H       
 487 H487          -8.1678   -38.0628   -12.3671 H       
 488 H488         -10.0624   -38.7324   -14.1630 H       
 489 H489         -11.1346   -39.8832   -13.5725 H       
 490 H490          -9.6940   -35.7058    -8.4302 H       
 491 H491          -8.0447   -36.2916    -6.0926 H       
 492 H492          -8.8815   -33.4504    -6.8249 H       
 493 H493          -8.2392   -33.9372    -5.2378 H       
 494 H494          -6.1585   -34.7358    -6.3248 H       
 495 H495          -6.8008   -34.2490    -7.9119 H       
 496 H496          -4.7935   -31.3716    -6.8436 H       
 497 H497          -9.4757   -35.3169    -4.0275 H       
 498 H498         -12.3306   -35.3618    -4.6401 H       
 499 H499         -10.9814   -37.5547    -3.0033 H       
 500 H500         -12.7396   -37.2880    -3.0798 H       
 501 H501          -9.7642   -38.3781    -4.9334 H       
 502 H502          -9.8662   -39.6780    -7.0212 H       
 503 H503         -12.1918   -41.1048    -8.2645 H       
 504 H504         -14.0878   -39.0382    -7.2046 H       
 505 H505         -13.9788   -37.7477    -5.1114 H       
 506 H506         -13.5137   -35.4019    -2.2191 H       
 507 H507         -11.8206   -34.1064    -0.2234 H       
 508 H508         -13.2241   -32.0645    -0.1268 H       
 509 H509         -14.4903   -33.1494    -2.6819 H       
 510 H510         -15.2800   -33.1434    -1.0867 H       
 511 H511         -15.9717   -31.1770    -2.4295 H       
 512 H512         -15.0585   -30.6757    -0.9863 H       
 513 H513         -14.2688   -30.6817    -2.5815 H       
 514 H514         -12.4136   -31.0258    -2.2274 H       
 515 H515         -11.1622   -32.0647    -1.5042 H       
 516 H516         -12.0977   -32.6414    -2.9044 H       
 517 H517         -13.5012   -33.3776     1.7228 H       
 518 H518         -15.1868   -35.7094     2.1875 H       
 519 H519         -14.6795   -33.1815     3.8187 H       
 520 H520         -15.6726   -34.5537     4.3656 H       
 521 H521         -13.4976   -34.0690     5.9956 H       
 522 H522         -12.2693   -35.1788     5.7089 H       
 523 H523         -17.5565   -35.0101     3.2073 H       
 524 H524         -18.8243   -33.3873     1.1244 H       
 525 H525         -19.9476   -34.9160     3.5138 H       
 526 H526         -20.9374   -34.0403     2.3214 H       
 527 H527         -21.6886   -36.5714     2.1810 H       
 528 H528         -20.9032   -37.4486     0.9826 H       
 529 H529         -20.7624   -31.8764     2.2928 H       
 530 H530         -19.5158   -30.3977     4.5071 H       
 531 H531         -19.7209   -28.2496     3.1972 H       
 532 H532         -19.7843   -28.5301     0.6787 H       
 533 H533         -20.2355   -30.2321     0.9390 H       
 534 H534         -22.2761   -29.6104     2.0559 H       
 535 H535         -21.7761   -27.9051     2.1572 H       
 536 H536         -22.1885   -28.6194     0.5799 H       
 537 H537         -17.8901   -30.3932     2.0268 H       
 538 H538         -17.6688   -28.6365     1.8444 H       
 539 H539         -17.5420   -29.3872     3.4534 H       
 540 H540         -21.1566   -28.2869     4.8704 H       
 541 H541         -23.9164   -29.0699     4.3247 H       
 542 H542         -22.7349   -29.1204     7.1372 H       
 543 H543         -24.4757   -29.1849     6.7713 H       
 544 H544         -21.8864   -31.5085     7.6425 H       
 545 H545         -22.3649   -33.8351     6.6111 H       
 546 H546         -24.1240   -33.6865     4.7609 H       
 547 H547         -25.3997   -27.3822     5.7723 H       
 548 H548         -23.9491   -24.9541     6.4649 H       
 549 H549         -24.2476   -24.7397     3.9960 H       
 550 H550         -26.0038   -24.9376     4.2081 H       
 551 H551         -25.9667   -22.9365     5.7543 H       
 552 H552         -23.9346   -21.4584     5.5670 H       
 553 H553         -23.6174   -22.9906     6.4155 H       
 554 H554         -23.0992   -22.7856     4.7250 H       
 555 H555         -26.6054   -22.7312     3.3672 H       
 556 H556         -25.7394   -21.2792     3.9240 H       
 557 H557         -24.8965   -22.4919     2.9305 H       
 558 H558         -25.4376   -23.3962     7.6388 H       
 559 H559         -28.1260   -24.3908     8.1961 H       
 560 H560         -27.7118   -24.6195    10.6286 H       
 561 H561         -25.8300   -26.2772     8.8887 H       
 562 H562         -26.3703   -26.7144    10.5274 H       
 563 H563         -27.5484   -26.6247     9.1962 H       
 564 H564         -25.7861   -23.2098    10.7304 H       
 565 H565         -29.2287   -22.7877     9.8659 H       
 566 H566         -27.7525   -20.3007    10.2703 H       
 567 H567         -30.2895   -20.4325     8.5805 H       
 568 H568         -29.5685   -18.9297     9.2050 H       
 569 H569         -29.6253   -20.7242     6.1003 H       
 570 H570         -27.4411   -20.3146     4.7707 H       
 571 H571         -25.6148   -19.3303     6.2659 H       
 572 H572         -29.5585   -18.6501    11.4002 H       
 573 H573         -31.5476   -20.1721    12.9017 H       
 574 H574         -30.6090   -19.6320    15.0972 H       
 575 H575         -29.3986   -20.5322    14.1523 H       
 576 H576         -28.4685   -18.5734    15.1542 H       
 577 H577         -32.5448   -18.4300    14.6666 H       
 578 H578         -32.1523   -15.6747    13.7512 H       
 579 H579         -33.9635   -16.6555    12.2896 H       
 580 H580         -34.9199   -16.9561    13.7604 H       
 581 H581         -34.7574   -14.5044    14.3020 H       
 582 H582         -34.0488   -12.9936    12.4196 H       
 583 H583         -32.7113   -13.9677    13.0757 H       
 584 H584         -33.4749   -14.4275    11.5350 H       
 585 H585         -36.7296   -15.4315    13.1189 H       
 586 H586         -36.3669   -13.7809    12.5599 H       
 587 H587         -35.9116   -15.1800    11.5582 H       
 588 H588         -33.1292   -14.0977    15.3680 H       
 589 H589         -34.3979   -15.2930    17.7109 H       
 590 H590         -31.7103   -13.8574    17.8686 H       
 591 H591         -32.7305   -14.2492    19.2736 H       
 592 H592         -32.6065   -16.6566    18.6925 H       
 593 H593         -31.5863   -16.2648    17.2875 H       
 594 H594         -29.1816   -17.0778    19.9344 H       
 595 H595         -34.6881   -13.2271    19.4170 H       
 596 H596         -35.9901   -11.2055    17.7600 H       
 597 H597         -35.8007   -11.5763    20.7825 H       
 598 H598         -36.7561   -10.3080    19.9781 H       
 599 H599         -38.0584   -12.0471    18.7830 H       
 600 H600         -37.1030   -13.3153    19.5874 H       
 601 H601         -40.0743   -12.9598    21.7076 H       
 602 H602         -33.9862    -8.3808    18.9663 H       
@<TRIPOS>BOND
   1    1    2 2
   2    1    4 1
   3    1   11 am
   4    3    4 1
   5    3  313 1
   6    3  314 1
   7    4    5 1
   8    4  315 1
   9    5    6 1
  10    5  316 1
  11    5  317 1
  12    6    7 2
  13    6    8 1
  14    8  318 1
  15    9   10 2
  16    9   18 am
  17    9   12 1
  18   11   12 1
  19   11   15 1
  20   12   13 1
  21   12  319 1
  22   13   14 1
  23   13  320 1
  24   13  321 1
  25   14   15 1
  26   14  322 1
  27   14  323 1
  28   15  324 1
  29   15  325 1
  30   16   17 2
  31   16   19 1
  32   16   32 am
  33   18   19 1
  34   18  326 1
  35   19   20 1
  36   19  327 1
  37   20   21 1
  38   20  328 1
  39   20  329 1
  40   21   22 2
  41   21   29 1
  42   22   23 1
  43   22  330 1
  44   23   24 1
  45   23  331 1
  46   24   25 ar
  47   24   29 ar
  48   25   26 ar
  49   25  332 1
  50   26   27 ar
  51   26  333 1
  52   27   28 ar
  53   27  334 1
  54   28   29 ar
  55   28  335 1
  56   30   31 2
  57   30   33 1
  58   30   41 am
  59   32   33 1
  60   32  336 1
  61   33   34 1
  62   33  337 1
  63   34   35 1
  64   34  338 1
  65   34  339 1
  66   35   36 1
  67   35  340 1
  68   35  341 1
  69   36   37 2
  70   36   38 1
  71   38  342 1
  72   39   40 2
  73   39   42 1
  74   39   50 am
  75   41   42 1
  76   41  343 1
  77   42   43 1
  78   42  344 1
  79   43   44 1
  80   43  345 1
  81   43  346 1
  82   44   45 1
  83   44  347 1
  84   44  348 1
  85   45   46 2
  86   45   47 am
  87   47  349 1
  88   47  350 1
  89   48   49 2
  90   48   51 1
  91   48   60 am
  92   50   51 1
  93   50  351 1
  94   51   52 1
  95   51  352 1
  96   52   53 1
  97   52  353 1
  98   52  354 1
  99   53   54 2
 100   53   57 1
 101   54   55 1
 102   54  355 1
 103   55   56 1
 104   55  356 1
 105   56   57 2
 106   56  357 1
 107   58   59 2
 108   58   61 1
 109   58   65 am
 110   60   61 1
 111   60  358 1
 112   61   62 1
 113   61  359 1
 114   62  360 1
 115   62  361 1
 116   62  362 1
 117   63   64 2
 118   63   66 1
 119   63   74 am
 120   65   66 1
 121   65  363 1
 122   66   67 1
 123   66  364 1
 124   67   68 1
 125   67  365 1
 126   67  366 1
 127   68   69 1
 128   68  367 1
 129   68  368 1
 130   69   70 1
 131   69  369 1
 132   69  370 1
 133   70   71 1
 134   70  371 1
 135   70  372 1
 136   71  373 1
 137   71  374 1
 138   72   73 2
 139   72   75 1
 140   72   88 am
 141   74   75 1
 142   74  375 1
 143   75   76 1
 144   75  376 1
 145   76   77 1
 146   76  377 1
 147   76  378 1
 148   77   78 2
 149   77   85 1
 150   78   79 1
 151   78  379 1
 152   79   80 1
 153   79  380 1
 154   80   81 ar
 155   80   85 ar
 156   81   82 ar
 157   81  381 1
 158   82   83 ar
 159   82  382 1
 160   83   84 ar
 161   83  383 1
 162   84   85 ar
 163   84  384 1
 164   86   87 2
 165   86   89 1
 166   86  100 am
 167   88   89 1
 168   88  385 1
 169   89   90 1
 170   89  386 1
 171   90   91 1
 172   90  387 1
 173   90  388 1
 174   91   92 ar
 175   91   97 ar
 176   92   93 ar
 177   92  389 1
 178   93   94 ar
 179   93  390 1
 180   94   95 1
 181   94   96 ar
 182   95  391 1
 183   96   97 ar
 184   96  392 1
 185   97  393 1
 186   98   99 2
 187   98  107 am
 188   98  101 1
 189  100  101 1
 190  100  104 1
 191  101  102 1
 192  101  394 1
 193  102  103 1
 194  102  395 1
 195  102  396 1
 196  103  104 1
 197  103  397 1
 198  103  398 1
 199  104  399 1
 200  104  400 1
 201  105  106 2
 202  105  108 1
 203  105  111 am
 204  107  108 1
 205  107  401 1
 206  108  402 1
 207  108  403 1
 208  109  110 2
 209  109  112 1
 210  109  117 am
 211  111  112 1
 212  111  404 1
 213  112  113 1
 214  112  405 1
 215  113  114 1
 216  113  406 1
 217  113  407 1
 218  114  408 1
 219  115  116 2
 220  115  118 1
 221  115  126 am
 222  117  118 1
 223  117  409 1
 224  118  119 1
 225  118  410 1
 226  119  120 1
 227  119  411 1
 228  119  412 1
 229  120  121 1
 230  120  413 1
 231  120  414 1
 232  121  122 1
 233  121  415 1
 234  121  416 1
 235  122  123 1
 236  122  417 1
 237  122  418 1
 238  123  419 1
 239  123  420 1
 240  124  125 2
 241  124  127 1
 242  124  138 am
 243  126  127 1
 244  126  421 1
 245  127  128 1
 246  127  422 1
 247  128  129 1
 248  128  423 1
 249  128  424 1
 250  129  130 ar
 251  129  135 ar
 252  130  131 ar
 253  130  425 1
 254  131  132 ar
 255  131  426 1
 256  132  133 1
 257  132  134 ar
 258  133  427 1
 259  134  135 ar
 260  134  428 1
 261  135  429 1
 262  136  137 2
 263  136  139 1
 264  136  146 am
 265  138  139 1
 266  138  430 1
 267  139  140 1
 268  139  431 1
 269  140  141 1
 270  140  432 1
 271  140  433 1
 272  141  142 1
 273  141  143 1
 274  141  434 1
 275  142  435 1
 276  142  436 1
 277  142  437 1
 278  143  438 1
 279  143  439 1
 280  143  440 1
 281  144  145 2
 282  144  147 1
 283  144  154 am
 284  146  147 1
 285  146  441 1
 286  147  148 1
 287  147  442 1
 288  148  149 1
 289  148  443 1
 290  148  444 1
 291  149  150 1
 292  149  151 1
 293  149  445 1
 294  150  446 1
 295  150  447 1
 296  150  448 1
 297  151  449 1
 298  151  450 1
 299  151  451 1
 300  152  153 2
 301  152  155 1
 302  152  163 am
 303  154  155 1
 304  154  452 1
 305  155  156 1
 306  155  453 1
 307  156  157 1
 308  156  454 1
 309  156  455 1
 310  157  158 1
 311  157  456 1
 312  157  457 1
 313  158  159 2
 314  158  160 1
 315  160  458 1
 316  161  162 2
 317  161  164 1
 318  161  172 am
 319  163  164 1
 320  163  459 1
 321  164  165 1
 322  164  460 1
 323  165  166 1
 324  165  461 1
 325  165  462 1
 326  166  167 1
 327  166  463 1
 328  166  464 1
 329  167  168 2
 330  167  169 am
 331  169  465 1
 332  169  466 1
 333  170  171 2
 334  170  173 1
 335  170  181 am
 336  172  173 1
 337  172  467 1
 338  173  174 1
 339  173  468 1
 340  174  175 1
 341  174  469 1
 342  174  470 1
 343  175  176 1
 344  175  471 1
 345  175  472 1
 346  176  177 1
 347  176  473 1
 348  176  474 1
 349  177  178 1
 350  177  475 1
 351  177  476 1
 352  178  477 1
 353  178  478 1
 354  179  180 2
 355  179  182 1
 356  179  185 am
 357  181  182 1
 358  181  479 1
 359  182  480 1
 360  182  481 1
 361  183  184 2
 362  183  186 1
 363  183  194 am
 364  185  186 1
 365  185  482 1
 366  186  187 1
 367  186  483 1
 368  187  188 1
 369  187  484 1
 370  187  485 1
 371  188  189 1
 372  188  486 1
 373  188  487 1
 374  189  190 2
 375  189  191 am
 376  191  488 1
 377  191  489 1
 378  192  193 2
 379  192  195 1
 380  192  203 am
 381  194  195 1
 382  194  490 1
 383  195  196 1
 384  195  491 1
 385  196  197 1
 386  196  492 1
 387  196  493 1
 388  197  198 1
 389  197  494 1
 390  197  495 1
 391  198  199 2
 392  198  200 1
 393  200  496 1
 394  201  202 2
 395  201  204 1
 396  201  215 am
 397  203  204 1
 398  203  497 1
 399  204  205 1
 400  204  498 1
 401  205  206 1
 402  205  499 1
 403  205  500 1
 404  206  207 ar
 405  206  212 ar
 406  207  208 ar
 407  207  501 1
 408  208  209 ar
 409  208  502 1
 410  209  210 1
 411  209  211 ar
 412  210  503 1
 413  211  212 ar
 414  211  504 1
 415  212  505 1
 416  213  214 2
 417  213  216 1
 418  213  223 am
 419  215  216 1
 420  215  506 1
 421  216  217 1
 422  216  507 1
 423  217  218 1
 424  217  220 1
 425  217  508 1
 426  218  219 1
 427  218  509 1
 428  218  510 1
 429  219  511 1
 430  219  512 1
 431  219  513 1
 432  220  514 1
 433  220  515 1
 434  220  516 1
 435  221  222 2
 436  221  224 1
 437  221  231 am
 438  223  224 1
 439  223  517 1
 440  224  225 1
 441  224  518 1
 442  225  226 1
 443  225  519 1
 444  225  520 1
 445  226  227 2
 446  226  228 am
 447  228  521 1
 448  228  522 1
 449  229  230 2
 450  229  232 1
 451  229  239 am
 452  231  232 1
 453  231  523 1
 454  232  233 1
 455  232  524 1
 456  233  234 1
 457  233  525 1
 458  233  526 1
 459  234  235 2
 460  234  236 am
 461  236  527 1
 462  236  528 1
 463  237  238 2
 464  237  240 1
 465  237  247 am
 466  239  240 1
 467  239  529 1
 468  240  241 1
 469  240  530 1
 470  241  242 1
 471  241  244 1
 472  241  531 1
 473  242  243 1
 474  242  532 1
 475  242  533 1
 476  243  534 1
 477  243  535 1
 478  243  536 1
 479  244  537 1
 480  244  538 1
 481  244  539 1
 482  245  246 2
 483  245  248 1
 484  245  257 am
 485  247  248 1
 486  247  540 1
 487  248  249 1
 488  248  541 1
 489  249  250 1
 490  249  542 1
 491  249  543 1
 492  250  251 2
 493  250  254 1
 494  251  252 1
 495  251  544 1
 496  252  253 1
 497  252  545 1
 498  253  254 2
 499  253  546 1
 500  255  256 2
 501  255  258 1
 502  255  265 am
 503  257  258 1
 504  257  547 1
 505  258  259 1
 506  258  548 1
 507  259  260 1
 508  259  549 1
 509  259  550 1
 510  260  261 1
 511  260  262 1
 512  260  551 1
 513  261  552 1
 514  261  553 1
 515  261  554 1
 516  262  555 1
 517  262  556 1
 518  262  557 1
 519  263  264 2
 520  263  266 1
 521  263  272 am
 522  265  266 1
 523  265  558 1
 524  266  267 1
 525  266  559 1
 526  267  268 1
 527  267  269 1
 528  267  560 1
 529  268  561 1
 530  268  562 1
 531  268  563 1
 532  269  564 1
 533  270  271 2
 534  270  273 1
 535  270  282 am
 536  272  273 1
 537  272  565 1
 538  273  274 1
 539  273  566 1
 540  274  275 1
 541  274  567 1
 542  274  568 1
 543  275  276 2
 544  275  279 1
 545  276  277 1
 546  276  569 1
 547  277  278 1
 548  277  570 1
 549  278  279 2
 550  278  571 1
 551  280  281 2
 552  280  283 1
 553  280  288 am
 554  282  283 1
 555  282  572 1
 556  283  284 1
 557  283  573 1
 558  284  285 1
 559  284  574 1
 560  284  575 1
 561  285  576 1
 562  286  287 2
 563  286  289 1
 564  286  296 am
 565  288  289 1
 566  288  577 1
 567  289  290 1
 568  289  578 1
 569  290  291 1
 570  290  579 1
 571  290  580 1
 572  291  292 1
 573  291  293 1
 574  291  581 1
 575  292  582 1
 576  292  583 1
 577  292  584 1
 578  293  585 1
 579  293  586 1
 580  293  587 1
 581  294  295 2
 582  294  297 1
 583  294  305 am
 584  296  297 1
 585  296  588 1
 586  297  298 1
 587  297  589 1
 588  298  299 1
 589  298  590 1
 590  298  591 1
 591  299  300 1
 592  299  592 1
 593  299  593 1
 594  300  301 2
 595  300  302 1
 596  302  594 1
 597  303  304 2
 598  303  306 1
 599  303  312 1
 600  305  306 1
 601  305  595 1
 602  306  307 1
 603  306  596 1
 604  307  308 1
 605  307  597 1
 606  307  598 1
 607  308  309 1
 608  308  599 1
 609  308  600 1
 610  309  310 2
 611  309  311 1
 612  311  601 1
 613  312  602 1

#	End of record

