#	Name: ASD03331241
#	Creating user name:	WinNT
#	Creation time:	15. 06. 2019 20:38

#	Modifying user name:	WinNT
#	Modification time:	15. 06. 2019 20:38

#	Program:	/corina/corina34_cracker 3.40 0067  02.08.2006

@<TRIPOS>MOLECULE
ASD03331241
  42   44    0    0    0
SMALL
NO_CHARGES


@<TRIPOS>ATOM
   1 N1            -0.0478     1.4495     0.2459 N.am    
   2 C2            -0.0338     0.0026     0.5090 C.3     
   3 C3             0.7257    -0.6914    -0.6267 C.3     
   4 N4             2.0505    -0.0741    -0.7743 N.3     
   5 C5             1.9399     1.3387    -1.1613 C.3     
   6 C6             1.2302     2.1159    -0.0475 C.3     
   7 C7            -1.2018     2.1454     0.2675 C.2     
   8 O8            -2.2597     1.5640     0.4125 O.2     
   9 N9            -1.1831     3.4859     0.1284 N.am    
  10 C10           -2.3804     4.1935     0.0333 C.ar    
  11 N11           -2.3875     5.5008     0.2398 N.ar    
  12 C12           -3.4985     6.2080     0.1596 C.ar    
  13 C13           -4.7020     5.6037    -0.1445 C.ar    
  14 C14           -4.7374     4.2338    -0.3682 C.ar    
  15 C15           -3.5551     3.5203    -0.2830 C.ar    
  16 C16            2.8748    -0.8200    -1.7346 C.3     
  17 C17            4.1208    -0.0316    -2.0459 C.ar    
  18 C18            5.2594    -0.2094    -1.2827 C.ar    
  19 C19            6.4029     0.5137    -1.5672 C.ar    
  20 C20            6.4080     1.4150    -2.6159 C.ar    
  21 C21            5.2677     1.5928    -3.3805 C.ar    
  22 C22            4.1263     0.8650    -3.0982 C.ar    
  23 Br23           5.2731     2.8254    -4.8146 Br      
  24 Br24           7.9716     2.4048    -3.0050 Br      
  25 H25            0.4672    -0.1923     1.4572 H       
  26 H26           -1.0565    -0.3724     0.5482 H       
  27 H27            0.8416    -1.7498    -0.3932 H       
  28 H28            0.1680    -0.5827    -1.5569 H       
  29 H29            2.9364     1.7526    -1.3156 H       
  30 H30            1.3653     1.4192    -2.0840 H       
  31 H31            1.0431     3.1381    -0.3763 H       
  32 H32            1.8527     2.1241     0.8472 H       
  33 H33           -0.3366     3.9582     0.0944 H       
  34 H34           -3.4661     7.2732     0.3345 H       
  35 H35           -5.6066     6.1903    -0.2073 H       
  36 H36           -5.6661     3.7371    -0.6073 H       
  37 H37           -3.5456     2.4542    -0.4553 H       
  38 H38            3.1518    -1.7826    -1.3050 H       
  39 H39            2.3081    -0.9810    -2.6518 H       
  40 H40            5.2557    -0.9133    -0.4636 H       
  41 H41            7.2921     0.3749    -0.9701 H       
  42 H42            3.2364     1.0033    -3.6944 H       
@<TRIPOS>BOND
   1    1    2 1
   2    1    6 1
   3    1    7 am
   4    2    3 1
   5    2   25 1
   6    2   26 1
   7    3    4 1
   8    3   27 1
   9    3   28 1
  10    4    5 1
  11    4   16 1
  12    5    6 1
  13    5   29 1
  14    5   30 1
  15    6   31 1
  16    6   32 1
  17    7    8 2
  18    7    9 am
  19    9   10 1
  20    9   33 1
  21   10   11 ar
  22   10   15 ar
  23   11   12 ar
  24   12   13 ar
  25   12   34 1
  26   13   14 ar
  27   13   35 1
  28   14   15 ar
  29   14   36 1
  30   15   37 1
  31   16   17 1
  32   16   38 1
  33   16   39 1
  34   17   18 ar
  35   17   22 ar
  36   18   19 ar
  37   18   40 1
  38   19   20 ar
  39   19   41 1
  40   20   21 ar
  41   20   24 1
  42   21   22 ar
  43   21   23 1
  44   22   42 1

#	End of record

