#	Name: ASD01812998
#	Creating user name:	WinNT
#	Creation time:	15. 06. 2019 19:29

#	Modifying user name:	WinNT
#	Modification time:	15. 06. 2019 19:29

#	Program:	/corina/corina34_cracker 3.40 0067  02.08.2006

@<TRIPOS>MOLECULE
ASD01812998
  51   55    0    0    0
SMALL
NO_CHARGES


@<TRIPOS>ATOM
   1 N1             0.0027     1.3184    -0.2223 N.ar    
   2 C2             0.0319     0.0058    -0.3460 C.ar    
   3 C3             1.2340    -0.6843    -0.3686 C.ar    
   4 C4             2.4113     0.0205    -0.2597 C.ar    
   5 C5             2.3614     1.4132    -0.1292 C.ar    
   6 C6             1.1073     2.0395    -0.1145 C.ar    
   7 C7             3.8682    -0.3580    -0.2437 C.3     
   8 N8             4.6152     0.8976    -0.0979 N.am    
   9 C9             3.7395     1.9163    -0.0323 C.2     
  10 C10            6.0736     1.0204    -0.0334 C.3     
  11 C11            6.6248     1.1963    -1.4249 C.ar    
  12 O12            1.0259     3.3855     0.0100 O.3     
  13 O13            4.0442     3.0870     0.0901 O.2     
  14 C14            6.7719     2.4666    -1.9523 C.ar    
  15 C15            7.2762     2.6336    -3.2262 C.ar    
  16 C16            7.6379     1.5195    -3.9810 C.ar    
  17 C17            7.4881     0.2422    -3.4445 C.ar    
  18 C18            6.9872     0.0872    -2.1678 C.ar    
  19 C19           -0.2021     3.9617    -0.0802 C.ar    
  20 C20           -1.0086     4.0613     1.0471 C.ar    
  21 C21           -0.6495     4.4559    -1.2957 C.ar    
  22 C22           -1.8999     5.0425    -1.3850 C.ar    
  23 C23           -2.7036     5.1358    -0.2616 C.ar    
  24 C24           -2.2572     4.6482     0.9530 C.ar    
  25 F25           -0.5733     3.5848     2.2339 F       
  26 F26           -2.3364     5.5247    -2.5691 F       
  27 C27            8.1802     1.6927    -5.3512 C.ar    
  28 C28            8.3388     2.9631    -5.9100 C.ar    
  29 N29            8.8234     3.0835    -7.1300 N.ar    
  30 N30            9.1607     2.0676    -7.8370 N.ar    
  31 C31            9.0481     0.8282    -7.3966 C.ar    
  32 C32            8.5558     0.5884    -6.1261 C.ar    
  33 C33            9.4609    -0.3246    -8.2751 C.3     
  34 H34           -0.8959    -0.5406    -0.4306 H       
  35 H35            1.2466    -1.7594    -0.4699 H       
  36 H36            4.0750    -1.0173     0.5993 H       
  37 H37            4.1384    -0.8484    -1.1789 H       
  38 H38            6.3389     1.8854     0.5745 H       
  39 H39            6.4947     0.1196     0.4130 H       
  40 H40            6.4912     3.3293    -1.3664 H       
  41 H41            7.3899     3.6258    -3.6373 H       
  42 H42            7.7669    -0.6246    -4.0252 H       
  43 H43            6.8741    -0.9021    -1.7496 H       
  44 H44           -0.0226     4.3835    -2.1722 H       
  45 H45           -3.6789     5.5942    -0.3330 H       
  46 H46           -2.8844     4.7255     1.8288 H       
  47 H47            8.0655     3.8423    -5.3454 H       
  48 H48            8.4606    -0.4179    -5.7458 H       
  49 H49           10.5129    -0.5531    -8.1041 H       
  50 H50            8.8557    -1.1989    -8.0356 H       
  51 H51            9.3129    -0.0556    -9.3209 H       
@<TRIPOS>BOND
   1    1    2 ar
   2    1    6 ar
   3    2    3 ar
   4    2   34 1
   5    3    4 ar
   6    3   35 1
   7    4    7 1
   8    4    5 ar
   9    5    6 ar
  10    5    9 1
  11    6   12 1
  12    7    8 1
  13    7   36 1
  14    7   37 1
  15    8    9 am
  16    8   10 1
  17    9   13 2
  18   10   11 1
  19   10   38 1
  20   10   39 1
  21   11   14 ar
  22   11   18 ar
  23   12   19 1
  24   14   15 ar
  25   14   40 1
  26   15   16 ar
  27   15   41 1
  28   16   17 ar
  29   16   27 1
  30   17   18 ar
  31   17   42 1
  32   18   43 1
  33   19   21 ar
  34   19   20 ar
  35   20   24 ar
  36   20   25 1
  37   21   22 ar
  38   21   44 1
  39   22   23 ar
  40   22   26 1
  41   23   24 ar
  42   23   45 1
  43   24   46 1
  44   27   28 ar
  45   27   32 ar
  46   28   29 ar
  47   28   47 1
  48   29   30 ar
  49   30   31 ar
  50   31   32 ar
  51   31   33 1
  52   32   48 1
  53   33   49 1
  54   33   50 1
  55   33   51 1

#	End of record

