#	Name: ASD01918255
#	Creating user name:	WinNT
#	Creation time:	15. 06. 2019 20:11

#	Modifying user name:	WinNT
#	Modification time:	15. 06. 2019 20:11

#	Program:	/corina/corina34_cracker 3.40 0067  02.08.2006

@<TRIPOS>MOLECULE
ASD01918255
  41   44    0    0    0
SMALL
NO_CHARGES


@<TRIPOS>ATOM
   1 C1             0.0096     1.4429     0.0019 C.ar    
   2 C2             0.0176     0.0600    -0.0194 C.ar    
   3 C3             1.2156    -0.6256    -0.0352 C.ar    
   4 C4             2.4180     0.0780    -0.0297 C.ar    
   5 C5             2.4041     1.4712    -0.0082 C.ar    
   6 C6             1.2007     2.1465     0.0075 C.ar    
   7 C7            -1.2839    -0.6996    -0.0248 C.3     
   8 C8             3.7092    -0.6538    -0.0462 C.2     
   9 N9             3.8655    -1.9519    -0.0668 N.2     
  10 O10            5.0462    -2.2294    -0.0758 O.3     
  11 C11            5.7793    -1.1117    -0.0615 C.2     
  12 N12            4.9440    -0.1029    -0.0485 N.2     
  13 C13            7.2839    -1.0281    -0.0663 C.3     
  14 C14            7.8832    -1.7690     1.1514 C.3     
  15 C15            7.8784    -1.8288    -1.2460 C.3     
  16 N16            9.1173    -2.4235    -0.7308 N.am    
  17 C17            9.1442    -2.4082     0.6130 C.2     
  18 O18           10.0483    -2.8429     1.2947 O.2     
  19 C19           10.1400    -2.9401    -1.5357 C.ar    
  20 C20            9.9689    -3.0199    -2.9114 C.ar    
  21 C21           10.9791    -3.5293    -3.7036 C.ar    
  22 C22           12.1619    -3.9603    -3.1268 C.ar    
  23 C23           12.3346    -3.8816    -1.7551 C.ar    
  24 C24           11.3289    -3.3680    -0.9600 C.ar    
  25 F25           13.1487    -4.4587    -3.9034 F       
  26 H26           -0.9299     1.9754     0.0098 H       
  27 H27            1.2208    -1.7054    -0.0515 H       
  28 H28            3.3334     2.0215    -0.0039 H       
  29 H29            1.1888     3.2263     0.0241 H       
  30 H30           -1.6026    -0.8670    -1.0536 H       
  31 H31           -1.1465    -1.6592     0.4737 H       
  32 H32           -2.0438    -0.1222     0.5017 H       
  33 H33            7.6148     0.0102    -0.0927 H       
  34 H34            8.1228    -1.0637     1.9471 H       
  35 H35            7.1927    -2.5317     1.5116 H       
  36 H36            7.1861    -2.6106    -1.5582 H       
  37 H37            8.0982    -1.1633    -2.0808 H       
  38 H38            9.0464    -2.6842    -3.3615 H       
  39 H39           10.8463    -3.5919    -4.7735 H       
  40 H40           13.2577    -4.2187    -1.3072 H       
  41 H41           11.4639    -3.3068     0.1098 H       
@<TRIPOS>BOND
   1    1    2 ar
   2    1    6 ar
   3    1   26 1
   4    2    3 ar
   5    2    7 1
   6    3    4 ar
   7    3   27 1
   8    4    5 ar
   9    4    8 1
  10    5    6 ar
  11    5   28 1
  12    6   29 1
  13    7   30 1
  14    7   31 1
  15    7   32 1
  16    8    9 2
  17    8   12 1
  18    9   10 1
  19   10   11 1
  20   11   12 2
  21   11   13 1
  22   13   14 1
  23   13   15 1
  24   13   33 1
  25   14   17 1
  26   14   34 1
  27   14   35 1
  28   15   16 1
  29   15   36 1
  30   15   37 1
  31   16   17 am
  32   16   19 1
  33   17   18 2
  34   19   20 ar
  35   19   24 ar
  36   20   21 ar
  37   20   38 1
  38   21   22 ar
  39   21   39 1
  40   22   23 ar
  41   22   25 1
  42   23   24 ar
  43   23   40 1
  44   24   41 1

#	End of record

