#	Name: ASD01440002
#	Creating user name:	WinNT
#	Creation time:	15. 06. 2019 19:20

#	Modifying user name:	WinNT
#	Modification time:	15. 06. 2019 19:20

#	Program:	/corina/corina34_cracker 3.40 0067  02.08.2006

@<TRIPOS>MOLECULE
ASD01440002
  43   44    0    0    0
SMALL
NO_CHARGES


@<TRIPOS>ATOM
   1 C1            -0.0178     1.4648     0.0101 C.3     
   2 N2             0.0021    -0.0041     0.0020 N.3     
   3 C3             0.7062    -0.5275     1.1802 C.3     
   4 C4             2.1851    -0.1430     1.1032 C.3     
   5 C5             2.9074    -0.6800     2.3119 C.ar    
   6 C6             3.4718    -1.9413     2.2760 C.ar    
   7 C7             4.1343    -2.4339     3.3847 C.ar    
   8 C8             4.2328    -1.6649     4.5292 C.ar    
   9 C9             3.6692    -0.4032     4.5648 C.ar    
  10 C10            3.0104     0.0911     3.4546 C.ar    
  11 C11            4.9542    -2.2023     5.7383 C.3     
  12 C12           -1.3597    -0.5486    -0.0825 C.3     
  13 C13           -1.9710    -0.1854    -1.4372 C.3     
  14 O14           -1.2392    -0.8339    -2.4793 O.3     
  15 C15           -1.6557    -0.6148    -3.7542 C.ar    
  16 C16           -0.9909    -1.2130    -4.8148 C.ar    
  17 C17           -1.4162    -0.9886    -6.1099 C.ar    
  18 C18           -2.5034    -0.1686    -6.3495 C.ar    
  19 C19           -3.1673     0.4292    -5.2942 C.ar    
  20 C20           -2.7497     0.2030    -3.9969 C.ar    
  21 H21            1.0047     1.8421     0.0024 H       
  22 H22           -0.5450     1.8259    -0.8730 H       
  23 H23           -0.5280     1.8163     0.9069 H       
  24 H24            0.2673    -0.1040     2.0837 H       
  25 H25            0.6139    -1.6133     1.2060 H       
  26 H26            2.6240    -0.5665     0.1998 H       
  27 H27            2.2773     0.9428     1.0774 H       
  28 H28            3.3949    -2.5421     1.3818 H       
  29 H29            4.5747    -3.4196     3.3569 H       
  30 H30            3.7458     0.1974     5.4591 H       
  31 H31            2.5700     1.0768     3.4824 H       
  32 H32            6.0081    -1.9294     5.6836 H       
  33 H33            4.5154    -1.7782     6.6414 H       
  34 H34            4.8610    -3.2880     5.7642 H       
  35 H35           -1.3244    -1.6331     0.0212 H       
  36 H36           -1.9698    -0.1268     0.7163 H       
  37 H37           -3.0106    -0.5117    -1.4659 H       
  38 H38           -1.9251     0.8944    -1.5788 H       
  39 H39           -0.1415    -1.8533    -4.6282 H       
  40 H40           -0.8989    -1.4538    -6.9359 H       
  41 H41           -2.8343     0.0056    -7.3626 H       
  42 H42           -4.0157     1.0699    -5.4839 H       
  43 H43           -3.2686     0.6702    -3.1729 H       
@<TRIPOS>BOND
   1    1    2 1
   2    1   21 1
   3    1   22 1
   4    1   23 1
   5    2    3 1
   6    2   12 1
   7    3    4 1
   8    3   24 1
   9    3   25 1
  10    4    5 1
  11    4   26 1
  12    4   27 1
  13    5    6 ar
  14    5   10 ar
  15    6    7 ar
  16    6   28 1
  17    7    8 ar
  18    7   29 1
  19    8    9 ar
  20    8   11 1
  21    9   10 ar
  22    9   30 1
  23   10   31 1
  24   11   32 1
  25   11   33 1
  26   11   34 1
  27   12   13 1
  28   12   35 1
  29   12   36 1
  30   13   14 1
  31   13   37 1
  32   13   38 1
  33   14   15 1
  34   15   16 ar
  35   15   20 ar
  36   16   17 ar
  37   16   39 1
  38   17   18 ar
  39   17   40 1
  40   18   19 ar
  41   18   41 1
  42   19   20 ar
  43   19   42 1
  44   20   43 1

#	End of record

