#	Name: ASD08178211
#	Creating user name:	WinNT
#	Creation time:	15. 06. 2019 21:18

#	Modifying user name:	WinNT
#	Modification time:	15. 06. 2019 21:18

#	Program:	/corina/corina34_cracker 3.40 0067  02.08.2006

@<TRIPOS>MOLECULE
ASD08178211
  63   66    0    0    0
SMALL
NO_CHARGES


@<TRIPOS>ATOM
   1 C1            -0.0191     1.5027     0.0207 C.ar    
   2 C2             0.0010    -0.0042     0.0166 C.3     
   3 C3            -0.8034    -0.5283     1.2078 C.3     
   4 C4            -0.7830    -2.0581     1.2036 C.3     
   5 C5            -1.5874    -2.5822     2.3949 C.3     
   6 C6            -1.5673    -4.0891     2.3907 C.2     
   7 N7            -0.6926    -4.8430     2.9773 N.2     
   8 N8            -0.8493    -6.0898     2.8558 N.2     
   9 C9            -1.8644    -6.5050     2.1598 C.2     
  10 S10           -2.7350    -5.1430     1.5925 S.3     
  11 N11           -2.1931    -7.8348     1.9197 N.am    
  12 C12           -1.4281    -8.8206     2.4289 C.2     
  13 C13           -1.7844   -10.2616     2.1687 C.3     
  14 O14           -0.4530    -8.5481     3.0966 O.2     
  15 C15           -0.7780   -11.1576     2.8435 C.ar    
  16 C16           -0.9920   -11.5798     4.1428 C.ar    
  17 C17           -0.0718   -12.4009     4.7642 C.ar    
  18 C18            1.0699   -12.8028     4.0825 C.ar    
  19 C19            1.2818   -12.3768     2.7774 C.ar    
  20 C20            0.3547   -11.5604     2.1601 C.ar    
  21 C21            1.1728     2.2124     0.0064 C.ar    
  22 C22            1.1067     3.5974     0.0109 C.ar    
  23 C23           -0.1542     4.1903     0.0295 C.ar    
  24 N24           -1.2376     3.4283     0.0422 N.ar    
  25 N25           -1.1697     2.1466     0.0324 N.ar    
  26 N26           -0.2749     5.5795     0.0353 N.am    
  27 N27            2.0029   -13.6329     4.7081 N.pl3   
  28 C28           -1.4926     6.1505    -0.0517 C.2     
  29 C29           -1.6342     7.6458     0.0713 C.3     
  30 O30           -2.4744     5.4610    -0.2290 O.2     
  31 C31           -3.0867     8.0253    -0.0606 C.ar    
  32 C32           -3.8892     8.0891     1.0632 C.ar    
  33 C33           -3.6151     8.3153    -1.3046 C.ar    
  34 C34           -4.9474     8.6634    -1.4256 C.ar    
  35 C35           -5.7514     8.7212    -0.3026 C.ar    
  36 C36           -5.2215     8.4372     0.9422 C.ar    
  37 H37           -0.4409    -0.3709    -0.9099 H       
  38 H38            1.0307    -0.3540     0.0914 H       
  39 H39           -0.3615    -0.1615     2.1343 H       
  40 H40           -1.8331    -0.1785     1.1331 H       
  41 H41           -1.2249    -2.4249     0.2772 H       
  42 H42            0.2467    -2.4079     1.2784 H       
  43 H43           -1.1455    -2.2155     3.3213 H       
  44 H44           -2.6171    -2.2324     2.3201 H       
  45 H45           -2.9730    -8.0528     1.3857 H       
  46 H46           -2.7782   -10.4676     2.5661 H       
  47 H47           -1.7761   -10.4498     1.0951 H       
  48 H48           -1.8797   -11.2667     4.6724 H       
  49 H49           -0.2394   -12.7300     5.7791 H       
  50 H50            2.1684   -12.6875     2.2446 H       
  51 H51            0.5187   -11.2291     1.1453 H       
  52 H52            2.1241     1.7012    -0.0074 H       
  53 H53            2.0044     4.1978     0.0007 H       
  54 H54            0.5176     6.1349     0.1018 H       
  55 H55            1.8540   -13.9294     5.6196 H       
  56 H56            2.7998   -13.9128     4.2311 H       
  57 H57           -1.2615     7.9672     1.0438 H       
  58 H58           -1.0588     8.1313    -0.7169 H       
  59 H59           -3.4753     7.8665     2.0356 H       
  60 H60           -2.9870     8.2701    -2.1820 H       
  61 H61           -5.3601     8.8906    -2.3974 H       
  62 H62           -6.7922     8.9936    -0.3970 H       
  63 H63           -5.8496     8.4823     1.8196 H       
@<TRIPOS>BOND
   1    1    2 1
   2    1   21 ar
   3    1   25 ar
   4    2    3 1
   5    2   37 1
   6    2   38 1
   7    3    4 1
   8    3   39 1
   9    3   40 1
  10    4    5 1
  11    4   41 1
  12    4   42 1
  13    5    6 1
  14    5   43 1
  15    5   44 1
  16    6    7 2
  17    6   10 1
  18    7    8 1
  19    8    9 2
  20    9   10 1
  21    9   11 1
  22   11   12 am
  23   11   45 1
  24   12   13 1
  25   12   14 2
  26   13   15 1
  27   13   46 1
  28   13   47 1
  29   15   16 ar
  30   15   20 ar
  31   16   17 ar
  32   16   48 1
  33   17   18 ar
  34   17   49 1
  35   18   19 ar
  36   18   27 1
  37   19   20 ar
  38   19   50 1
  39   20   51 1
  40   21   22 ar
  41   21   52 1
  42   22   23 ar
  43   22   53 1
  44   23   24 ar
  45   23   26 1
  46   24   25 ar
  47   26   28 am
  48   26   54 1
  49   27   55 1
  50   27   56 1
  51   28   29 1
  52   28   30 2
  53   29   31 1
  54   29   57 1
  55   29   58 1
  56   31   32 ar
  57   31   33 ar
  58   32   36 ar
  59   32   59 1
  60   33   34 ar
  61   33   60 1
  62   34   35 ar
  63   34   61 1
  64   35   36 ar
  65   35   62 1
  66   36   63 1

#	End of record

