#	Name: ASD05213034
#	Creating user name:	WinNT
#	Creation time:	15. 06. 2019 20:57

#	Modifying user name:	WinNT
#	Modification time:	15. 06. 2019 20:57

#	Program:	/corina/corina34_cracker 3.40 0067  02.08.2006

@<TRIPOS>MOLECULE
ASD05213034
  23   25    0    0    0
SMALL
NO_CHARGES


@<TRIPOS>ATOM
   1 S1            -0.0218     1.7577     0.0117 S.3     
   2 C2             0.0021    -0.0041     0.0020 C.2     
   3 N3            -1.0462    -0.7546     0.0080 N.2     
   4 C4            -0.8653    -2.0902    -0.0014 C.ar    
   5 C5             0.4840    -2.4559    -0.0166 C.ar    
   6 S6             1.4587    -0.9881    -0.0248 S.3     
   7 C7            -1.8378    -3.1127     0.0019 C.ar    
   8 C8            -1.4601    -4.4316    -0.0093 C.ar    
   9 C9            -0.1168    -4.7815    -0.0244 C.ar    
  10 C10            0.8501    -3.7995    -0.0278 C.ar    
  11 C11            1.7090     2.0873    -0.0030 C.2     
  12 S12            2.4091     3.6471    -0.0014 S.3     
  13 C13            4.0206     2.9356    -0.0194 C.2     
  14 C14            3.8872     1.6083    -0.0250 C.2     
  15 N15            2.6378     1.1818    -0.0111 N.2     
  16 Cl16           0.3446    -6.4550    -0.0383 Cl      
  17 N17            5.3022     3.6821    -0.0279 N.pl3   
  18 O18            6.3593     3.0772    -0.0408 O.2     
  19 O19            5.2976     4.9001    -0.0218 O.2     
  20 H20           -2.8866    -2.8553     0.0136 H       
  21 H21           -2.2145    -5.2044    -0.0059 H       
  22 H22            1.8949    -4.0728    -0.0396 H       
  23 H23            4.7330     0.9368    -0.0361 H       
@<TRIPOS>BOND
   1    1    2 1
   2    1   11 1
   3    2    3 2
   4    2    6 1
   5    3    4 1
   6    4    5 ar
   7    4    7 ar
   8    5    6 1
   9    5   10 ar
  10    7    8 ar
  11    7   20 1
  12    8    9 ar
  13    8   21 1
  14    9   10 ar
  15    9   16 1
  16   10   22 1
  17   11   12 1
  18   11   15 2
  19   12   13 1
  20   13   14 2
  21   13   17 1
  22   14   15 1
  23   14   23 1
  24   17   18 2
  25   17   19 2

#	End of record

