#	Name: ASD01940556
#	Creating user name:	WinNT
#	Creation time:	15. 06. 2019 20:12

#	Modifying user name:	WinNT
#	Modification time:	15. 06. 2019 20:12

#	Program:	/corina/corina34_cracker 3.40 0067  02.08.2006

@<TRIPOS>MOLECULE
ASD01940556
  74   79    0    0    0
SMALL
NO_CHARGES


@<TRIPOS>ATOM
   1 C1             0.0885     1.4753    -0.5090 C.ar    
   2 C2             0.4274     0.6426     0.5474 C.ar    
   3 C3             1.6496    -0.0151     0.5442 C.ar    
   4 C4             2.5293     0.1622    -0.5162 C.ar    
   5 C5             2.1885     0.9924    -1.5669 C.ar    
   6 C6             0.9728     1.6484    -1.5666 C.ar    
   7 N7            -1.1461     2.1362    -0.5123 N.am    
   8 C8            -1.1950     3.4816    -0.1915 C.2     
   9 C9            -2.4435     4.1482    -0.1953 C.2     
  10 C10           -3.6496     3.3671    -0.5451 C.2     
  11 N11           -3.4789     2.0089    -0.8524 N.am    
  12 C12           -2.2567     1.4525    -0.8319 C.2     
  13 C13           -0.0568     4.1959     0.1330 C.2     
  14 C14           -0.1689     5.5525     0.4476 C.2     
  15 N15           -1.3638     6.1695     0.4389 N.am    
  16 C16           -2.5070     5.4929     0.1233 C.2     
  17 N17           -3.7159     6.1455     0.1209 N.pl3   
  18 C18           -1.4405     7.5933     0.7751 C.3     
  19 O19            0.8337     6.1878     0.7354 O.2     
  20 C20            1.2894     3.5189     0.1478 C.3     
  21 C21           -4.8589     3.9346    -0.5673 C.2     
  22 C22           -4.5927     1.2275    -1.1900 C.ar    
  23 N23            1.9952    -0.8551     1.6076 N.am    
  24 C24            1.5995    -0.5541     2.8603 C.2     
  25 C25            1.8636    -1.4982     3.9651 C.ar    
  26 O26            1.0251     0.4945     3.0809 O.2     
  27 C27           -4.4978     6.1743     1.2812 C.ar    
  28 C28           -4.0097     5.6326     2.4628 C.ar    
  29 C29           -4.7834     5.6628     3.6067 C.ar    
  30 C30           -6.0439     6.2320     3.5771 C.ar    
  31 C31           -6.5345     6.7730     2.4024 C.ar    
  32 C32           -5.7632     6.7508     1.2548 C.ar    
  33 F33           -6.2401     7.2838     0.1086 F       
  34 O34           -2.1518     0.2736    -1.1098 O.2     
  35 I35           -7.2127     6.2741     5.3153 I       
  36 C36            1.4544    -1.1882     5.2638 C.ar    
  37 C37            1.7042    -2.0756     6.2949 C.ar    
  38 C38            2.3614    -3.2738     6.0384 C.ar    
  39 C39            2.7691    -3.5834     4.7494 C.ar    
  40 C40            2.5180    -2.7054     3.7130 C.ar    
  41 C41           -5.2973     1.4904    -2.3572 C.ar    
  42 C42           -6.3948     0.7207    -2.6901 C.ar    
  43 C43           -6.7939    -0.3152    -1.8594 C.ar    
  44 C44           -6.0901    -0.5797    -0.6913 C.ar    
  45 C45           -4.9880     0.1869    -0.3603 C.ar    
  46 F46            2.6040    -4.1386     7.0476 F       
  47 F47            3.4081    -4.7486     4.5060 F       
  48 O48            1.3071    -1.7759     7.5603 O.3     
  49 F49           -6.4790    -1.5890     0.1181 F       
  50 O50           -7.8751    -1.0723    -2.1880 O.3     
  51 H51           -0.2581     0.5067     1.3708 H       
  52 H52            3.4806    -0.3490    -0.5192 H       
  53 H53            2.8742     1.1289    -2.3900 H       
  54 H54            0.7094     2.2966    -2.3893 H       
  55 H55           -4.0275     6.5863    -0.6850 H       
  56 H56           -0.4570     7.9470     1.0848 H       
  57 H57           -1.7704     8.1557    -0.0984 H       
  58 H58           -2.1510     7.7367     1.5892 H       
  59 H59            1.6986     3.5018    -0.8624 H       
  60 H60            1.9649     4.0676     0.8041 H       
  61 H61            1.1786     2.4977     0.5122 H       
  62 H62           -4.9793     4.9615    -0.2553 H       
  63 H63           -5.7161     3.3665    -0.8973 H       
  64 H64            2.5198    -1.6543     1.4436 H       
  65 H65           -3.0260     5.1876     2.4874 H       
  66 H66           -4.4037     5.2410     4.5256 H       
  67 H67           -7.5190     7.2167     2.3824 H       
  68 H68            0.9442    -0.2573     5.4627 H       
  69 H69            2.8316    -2.9507     2.7090 H       
  70 H70           -4.9874     2.2972    -3.0047 H       
  71 H71           -6.9426     0.9260    -3.5980 H       
  72 H72           -4.4376    -0.0210     0.5454 H       
  73 H73            0.4158    -2.0826     7.7758 H       
  74 H74           -7.6634    -1.8480    -2.7253 H       
@<TRIPOS>BOND
   1    1    2 ar
   2    1    6 ar
   3    1    7 1
   4    2    3 ar
   5    2   51 1
   6    3    4 ar
   7    3   23 1
   8    4    5 ar
   9    4   52 1
  10    5    6 ar
  11    5   53 1
  12    6   54 1
  13    7    8 1
  14    7   12 am
  15    8   13 2
  16    8    9 1
  17    9   10 1
  18    9   16 2
  19   10   11 1
  20   10   21 2
  21   11   12 am
  22   11   22 1
  23   12   34 2
  24   13   14 1
  25   13   20 1
  26   14   15 am
  27   14   19 2
  28   15   16 1
  29   15   18 1
  30   16   17 1
  31   17   27 1
  32   17   55 1
  33   18   56 1
  34   18   57 1
  35   18   58 1
  36   20   59 1
  37   20   60 1
  38   20   61 1
  39   21   62 1
  40   21   63 1
  41   22   41 ar
  42   22   45 ar
  43   23   24 am
  44   23   64 1
  45   24   25 1
  46   24   26 2
  47   25   36 ar
  48   25   40 ar
  49   27   28 ar
  50   27   32 ar
  51   28   29 ar
  52   28   65 1
  53   29   30 ar
  54   29   66 1
  55   30   31 ar
  56   30   35 1
  57   31   32 ar
  58   31   67 1
  59   32   33 1
  60   36   37 ar
  61   36   68 1
  62   37   38 ar
  63   37   48 1
  64   38   39 ar
  65   38   46 1
  66   39   40 ar
  67   39   47 1
  68   40   69 1
  69   41   42 ar
  70   41   70 1
  71   42   43 ar
  72   42   71 1
  73   43   44 ar
  74   43   50 1
  75   44   45 ar
  76   44   49 1
  77   45   72 1
  78   48   73 1
  79   50   74 1

#	End of record

