#	Name: ASD01884687
#	Creating user name:	WinNT
#	Creation time:	15. 06. 2019 19:48

#	Modifying user name:	WinNT
#	Modification time:	15. 06. 2019 19:48

#	Program:	/corina/corina34_cracker 3.40 0067  02.08.2006

@<TRIPOS>MOLECULE
ASD01884687
  65   67    0    0    0
SMALL
NO_CHARGES


@<TRIPOS>ATOM
   1 C1            -0.0168     1.3884     0.0097 C.2     
   2 C2             0.0021    -0.0041     0.0020 C.2     
   3 C3            -1.2095    -0.6965     0.0104 C.2     
   4 C4            -2.3831    -0.0157     0.0252 C.2     
   5 N5            -2.4093     1.3392     0.0327 N.am    
   6 C6            -1.2693     2.0558     0.0312 C.2     
   7 O7            -1.3129     3.2741     0.0383 O.2     
   8 C8            -3.6983     2.0352     0.0483 C.3     
   9 C9             1.2059     2.1337     0.0020 C.1     
  10 N10            2.1759     2.7249    -0.0041 N.1     
  11 C11            1.3105    -0.7515    -0.0155 C.3     
  12 C12           -4.1338     2.2698     1.4962 C.3     
  13 C13           -5.4800     2.9967     1.5124 C.3     
  14 C14           -6.5555     2.0919     0.9078 C.3     
  15 C15           -5.8558     3.3419     2.9548 C.3     
  16 N16            1.6901    -1.1066     1.3585 N.3     
  17 C17            2.8328    -2.0383     1.3670 C.3     
  18 C18            3.9488    -1.3853     2.2094 C.3     
  19 C19            3.1718    -0.3800     3.0996 C.3     
  20 C20            2.0581     0.0969     2.1343 C.3     
  21 C21            4.6600    -2.4320     3.0694 C.3     
  22 C22            5.2826    -3.4975     2.1651 C.3     
  23 C23            5.7588    -1.7554     3.8915 C.3     
  24 C24            5.8767    -4.5920     3.0138 C.ar    
  25 C25            5.1062    -5.6806     3.3764 C.ar    
  26 C26            5.6512    -6.6847     4.1550 C.ar    
  27 C27            6.9666    -6.5997     4.5708 C.ar    
  28 C28            7.7375    -5.5110     4.2078 C.ar    
  29 C29            7.1941    -4.5098     3.4250 C.ar    
  30 C30            4.8110    -7.8714     4.5507 C.3     
  31 F31            4.9360    -8.8746     3.5837 F       
  32 F32            5.2462    -8.3592     5.7876 F       
  33 F33            3.4708    -7.4822     4.6483 F       
  34 H34           -1.2130    -1.7765     0.0046 H       
  35 H35           -3.3137    -0.5638     0.0308 H       
  36 H36           -3.5999     2.9937    -0.4613 H       
  37 H37           -4.4456     1.4275    -0.4619 H       
  38 H38            1.2023    -1.6595    -0.6087 H       
  39 H39            2.0835    -0.1207    -0.4544 H       
  40 H40           -4.2323     1.3113     2.0058 H       
  41 H41           -3.3866     2.8775     2.0064 H       
  42 H42           -5.4052     3.9132     0.9272 H       
  43 H43           -7.5146     2.6098     0.9194 H       
  44 H44           -6.2878     1.8460    -0.1198 H       
  45 H45           -6.6304     1.1754     1.4930 H       
  46 H46           -5.0896     3.9865     3.3856 H       
  47 H47           -6.8149     3.8597     2.9664 H       
  48 H48           -5.9307     2.4254     3.5401 H       
  49 H49            2.5354    -2.9858     1.8162 H       
  50 H50            3.1849    -2.2025     0.3486 H       
  51 H51            4.6598    -0.8635     1.5690 H       
  52 H52            2.7464    -0.8778     3.9710 H       
  53 H53            3.8106     0.4507     3.3995 H       
  54 H54            2.4378     0.8743     1.4713 H       
  55 H55            1.1993     0.4630     2.6970 H       
  56 H56            3.9403    -2.9005     3.7408 H       
  57 H57            4.5140    -3.9176     1.5162 H       
  58 H58            6.0649    -3.0450     1.5558 H       
  59 H59            6.4784    -1.2868     3.2202 H       
  60 H60            5.3152    -0.9962     4.5358 H       
  61 H61            6.2655    -2.5010     4.5042 H       
  62 H62            4.0783    -5.7468     3.0517 H       
  63 H63            7.3922    -7.3837     5.1797 H       
  64 H64            8.7652    -5.4445     4.5330 H       
  65 H65            7.7963    -3.6593     3.1413 H       
@<TRIPOS>BOND
   1    1    2 2
   2    1    9 1
   3    1    6 1
   4    2    3 1
   5    2   11 1
   6    3    4 2
   7    3   34 1
   8    4    5 1
   9    4   35 1
  10    5    8 1
  11    5    6 am
  12    6    7 2
  13    8   12 1
  14    8   36 1
  15    8   37 1
  16    9   10 3
  17   11   16 1
  18   11   38 1
  19   11   39 1
  20   12   13 1
  21   12   40 1
  22   12   41 1
  23   13   14 1
  24   13   15 1
  25   13   42 1
  26   14   43 1
  27   14   44 1
  28   14   45 1
  29   15   46 1
  30   15   47 1
  31   15   48 1
  32   16   17 1
  33   16   20 1
  34   17   18 1
  35   17   49 1
  36   17   50 1
  37   18   19 1
  38   18   21 1
  39   18   51 1
  40   19   20 1
  41   19   52 1
  42   19   53 1
  43   20   54 1
  44   20   55 1
  45   21   22 1
  46   21   23 1
  47   21   56 1
  48   22   24 1
  49   22   57 1
  50   22   58 1
  51   23   59 1
  52   23   60 1
  53   23   61 1
  54   24   25 ar
  55   24   29 ar
  56   25   26 ar
  57   25   62 1
  58   26   30 1
  59   26   27 ar
  60   27   28 ar
  61   27   63 1
  62   28   29 ar
  63   28   64 1
  64   29   65 1
  65   30   31 1
  66   30   32 1
  67   30   33 1

#	End of record

