#	Name: ASD00461039
#	Creating user name:	WinNT
#	Creation time:	15. 06. 2019 18:36

#	Modifying user name:	WinNT
#	Modification time:	15. 06. 2019 18:36

#	Program:	/corina/corina34_cracker 3.40 0067  02.08.2006

@<TRIPOS>MOLECULE
ASD00461039
  66   69    0    0    0
SMALL
NO_CHARGES


@<TRIPOS>ATOM
   1 C1             1.0149    -0.3844     2.9458 C.ar    
   2 C2             0.9503    -1.4612     2.0864 C.ar    
   3 C3             1.8771    -1.5786     1.0483 C.ar    
   4 C4             2.8634    -0.6036     0.8881 C.ar    
   5 C5             2.9165     0.4684     1.7550 C.ar    
   6 C6             1.9952     0.5784     2.7812 C.ar    
   7 C7             3.8681    -0.7221    -0.2289 C.3     
   8 O8             5.0592    -0.0164     0.1250 O.3     
   9 C9             5.9941    -0.7940     0.8757 C.3     
  10 C10            7.1677     0.0906     1.3011 C.3     
  11 C11            8.1057    -0.7081     2.2085 C.3     
  12 N12            9.1669     0.1734     2.7131 N.3     
  13 C13           10.0887    -0.5610     3.5900 C.3     
  14 C14            3.2812    -0.1226    -1.5084 C.3     
  15 C15            4.2057    -0.0043    -2.7217 C.3     
  16 C16            3.0954    -1.0569    -2.7056 C.3     
  17 O17            7.8817     0.5247     0.1419 O.3     
  18 C18           11.1774     0.3881     4.0947 C.3     
  19 C19            9.3151    -1.1294     4.7815 C.3     
  20 C20           10.7334    -1.7065     2.8072 C.3     
  21 C21           12.1230    -0.3653     4.9943 C.ar    
  22 C22           13.2420    -0.9885     4.4458 C.ar    
  23 C23           14.1156    -1.6774     5.2302 C.ar    
  24 C24           13.8888    -1.7628     6.6141 C.ar    
  25 C25           12.7508    -1.1284     7.1723 C.ar    
  26 C26           11.8742    -0.4221     6.3315 C.ar    
  27 C27           14.7680    -2.4655     7.4559 C.ar    
  28 C28           14.5159    -2.5272     8.7918 C.ar    
  29 C29           13.3969    -1.9033     9.3407 C.ar    
  30 C30           12.5237    -1.2142     8.5566 C.ar    
  31 C31            1.8143    -2.7294     0.1243 C.2     
  32 O32            2.5555    -2.7776    -0.8370 O.2     
  33 O33            0.9353    -3.7254     0.3476 O.3     
  34 H34            0.2960    -0.2901     3.7462 H       
  35 H35            0.1850    -2.2121     2.2161 H       
  36 H36            3.6792     1.2231     1.6324 H       
  37 H37            2.0413     1.4196     3.4570 H       
  38 H38            4.1042    -1.7731    -0.3951 H       
  39 H39            5.5030    -1.1969     1.7615 H       
  40 H40            6.3621    -1.6143     0.2595 H       
  41 H41            6.7910     0.9587     1.8421 H       
  42 H42            7.5408    -1.1140     3.0477 H       
  43 H43            8.5513    -1.5252     1.6412 H       
  44 H44            9.6639     0.6128     1.9529 H       
  45 H45            2.5394     0.6626    -1.3624 H       
  46 H46            4.0719     0.8585    -3.3742 H       
  47 H47            5.2320    -0.3536    -2.6084 H       
  48 H48            3.3913    -2.0986    -2.5818 H       
  49 H49            2.2311    -0.8866    -3.3476 H       
  50 H50            8.2460    -0.1970    -0.3888 H       
  51 H51           11.7285     0.7930     3.2460 H       
  52 H52           10.7181     1.2042     4.6524 H       
  53 H53            8.5395    -1.8055     4.4219 H       
  54 H54            9.9991    -1.6743     5.4321 H       
  55 H55            8.8558    -0.3132     5.3392 H       
  56 H56           11.2845    -1.3016     1.9584 H       
  57 H57           11.4174    -2.2515     3.4579 H       
  58 H58            9.9578    -2.3827     2.4476 H       
  59 H59           13.4187    -0.9244     3.3823 H       
  60 H60           14.9784    -2.1560     4.7909 H       
  61 H61           11.0031     0.0662     6.7427 H       
  62 H62           15.6390    -2.9541     7.0447 H       
  63 H63           15.1930    -3.0681     9.4364 H       
  64 H64           13.2201    -1.9677    10.4041 H       
  65 H65           11.6610    -0.7355     8.9959 H       
  66 H66            0.9312    -4.4573    -0.2844 H       
@<TRIPOS>BOND
   1    1    2 ar
   2    1    6 ar
   3    1   34 1
   4    2    3 ar
   5    2   35 1
   6    3    4 ar
   7    3   31 1
   8    4    5 ar
   9    4    7 1
  10    5    6 ar
  11    5   36 1
  12    6   37 1
  13    7    8 1
  14    7   14 1
  15    7   38 1
  16    8    9 1
  17    9   10 1
  18    9   39 1
  19    9   40 1
  20   10   11 1
  21   10   17 1
  22   10   41 1
  23   11   12 1
  24   11   42 1
  25   11   43 1
  26   12   13 1
  27   12   44 1
  28   13   18 1
  29   13   19 1
  30   13   20 1
  31   14   15 1
  32   14   16 1
  33   14   45 1
  34   15   16 1
  35   15   46 1
  36   15   47 1
  37   16   48 1
  38   16   49 1
  39   17   50 1
  40   18   21 1
  41   18   51 1
  42   18   52 1
  43   19   53 1
  44   19   54 1
  45   19   55 1
  46   20   56 1
  47   20   57 1
  48   20   58 1
  49   21   22 ar
  50   21   26 ar
  51   22   23 ar
  52   22   59 1
  53   23   24 ar
  54   23   60 1
  55   24   25 ar
  56   24   27 ar
  57   25   26 ar
  58   25   30 ar
  59   26   61 1
  60   27   28 ar
  61   27   62 1
  62   28   29 ar
  63   28   63 1
  64   29   30 ar
  65   29   64 1
  66   30   65 1
  67   31   32 2
  68   31   33 1
  69   33   66 1

#	End of record

