#	Name: ASD08170158
#	Creating user name:	WinNT
#	Creation time:	15. 06. 2019 21:17

#	Modifying user name:	WinNT
#	Modification time:	15. 06. 2019 21:17

#	Program:	/corina/corina34_cracker 3.40 0067  02.08.2006

@<TRIPOS>MOLECULE
ASD08170158
  76   79    0    0    0
SMALL
NO_CHARGES


@<TRIPOS>ATOM
   1 Cl1            0.0000     0.0000     0.0000 Cl      
   2 H2             0.0000     1.3700     0.0000 H       
   3 Cl3            5.0000     6.3700     5.0000 Cl      
   4 H4             5.0000     7.7400     5.0000 H       
   5 C5            14.3095    24.2821    11.7951 C.3     
   6 C6            15.7242    26.3416    11.7926 C.3     
   7 C7            17.1596    26.8711    11.7818 C.3     
   8 C8            17.1391    28.3780    11.7901 C.2     
   9 C9            14.3300    22.7753    11.7868 C.2     
  10 S10           17.1114    29.4259    10.3714 S.3     
  11 C11           17.1019    30.7922    11.4048 C.2     
  12 N12           17.1191    30.3822    12.6372 N.2     
  13 N13           17.1331    29.1362    12.8402 N.2     
  14 S14           14.3305    21.7426    10.3567 S.3     
  15 N15           14.3560    22.0059    12.8284 N.2     
  16 N16           14.3702    20.7622    12.6118 N.2     
  17 C17           14.3595    20.3654    11.3750 C.2     
  18 N18           14.3718    19.0418    10.9483 N.am    
  19 C19           14.3973    18.0425    11.8523 C.2     
  20 O20           14.4096    18.2975    13.0379 O.2     
  21 N21           17.0801    32.1203    10.9926 N.am    
  22 C22           17.0747    33.1098    11.9076 C.2     
  23 C23           17.0510    34.5489    11.4609 C.3     
  24 O24           17.0890    32.8422    13.0904 O.2     
  25 C25           14.4105    16.6082    11.3898 C.3     
  26 C26           14.4388    15.6944    12.5878 C.2     
  27 C27           15.7449    24.8117    11.7842 C.3     
  28 C28           15.5289    15.1503    13.1515 C.2     
  29 C29           17.0495    35.4499    12.6690 C.2     
  30 C30           18.2231    35.9047    13.4183 C.ar    
  31 C31           15.9727    35.9926    13.2590 C.2     
  32 N32           16.3605    36.7530    14.3284 N.pl3   
  33 C33           17.7313    36.7202    14.4535 C.ar    
  34 C34           18.6259    37.3022    15.3461 C.ar    
  35 C35           19.9772    37.0741    15.2068 C.ar    
  36 C36           20.4576    36.2682    14.1835 C.ar    
  37 C37           19.5972    35.6902    13.2933 C.ar    
  38 C38           15.4527    37.4949    15.2069 C.3     
  39 N39           15.1647    14.3767    14.2198 N.pl3   
  40 C40           13.7967    14.4049    14.3733 C.ar    
  41 C41           13.2826    15.2364    13.3619 C.ar    
  42 C42           12.9219    13.8107    15.2774 C.ar    
  43 C43           11.5676    14.0373    15.1686 C.ar    
  44 C44           11.0646    14.8538    14.1648 C.ar    
  45 C45           11.9062    15.4530    13.2706 C.ar    
  46 C46           16.0921    13.6291    15.0725 C.3     
  47 H47           13.7824    24.6432    10.9120 H       
  48 H48           13.7994    24.6337    12.6919 H       
  49 H49           15.2140    26.6931    12.6894 H       
  50 H50           15.1970    26.7026    10.9096 H       
  51 H51           17.6867    26.5101    12.6648 H       
  52 H52           17.6697    26.5196    10.8850 H       
  53 H53           14.3619    18.8378    10.0000 H       
  54 H54           17.0687    32.3343    10.0466 H       
  55 H55           17.9328    34.7557    10.8546 H       
  56 H56           16.1531    34.7314    10.8705 H       
  57 H57           13.5153    16.4080    10.8012 H       
  58 H58           15.2949    16.4321    10.7775 H       
  59 H59           16.2721    24.4506    12.6673 H       
  60 H60           16.2551    24.4602    10.8874 H       
  61 H61           16.5430    15.3007    12.8120 H       
  62 H62           14.9517    35.8504    12.9370 H       
  63 H63           18.2621    37.9309    16.1453 H       
  64 H64           20.6700    37.5270    15.9005 H       
  65 H65           21.5201    36.0998    14.0881 H       
  66 H66           19.9781    35.0644    12.4998 H       
  67 H67           15.1495    36.8576    16.0376 H       
  68 H68           15.9619    38.3778    15.5934 H       
  69 H69           14.5714    37.8012    14.6434 H       
  70 H70           13.3034    13.1737    16.0616 H       
  71 H71           10.8901    13.5749    15.8712 H       
  72 H72           10.0000    15.0209    14.0932 H       
  73 H73           11.5078    16.0868    12.4922 H       
  74 H74           16.4088    14.2586    15.9042 H       
  75 H75           15.5939    12.7400    15.4590 H       
  76 H76           16.9636    13.3326    14.4889 H       
@<TRIPOS>BOND
   1    1    2 1
   2    3    4 1
   3    5    9 1
   4    5   27 1
   5    5   47 1
   6    5   48 1
   7    6    7 1
   8    6   27 1
   9    6   49 1
  10    6   50 1
  11    7    8 1
  12    7   51 1
  13    7   52 1
  14    8   10 1
  15    8   13 2
  16    9   14 1
  17    9   15 2
  18   10   11 1
  19   11   12 2
  20   11   21 1
  21   12   13 1
  22   14   17 1
  23   15   16 1
  24   16   17 2
  25   17   18 1
  26   18   19 am
  27   18   53 1
  28   19   20 2
  29   19   25 1
  30   21   22 am
  31   21   54 1
  32   22   23 1
  33   22   24 2
  34   23   29 1
  35   23   55 1
  36   23   56 1
  37   25   26 1
  38   25   57 1
  39   25   58 1
  40   26   28 2
  41   26   41 1
  42   27   59 1
  43   27   60 1
  44   28   39 1
  45   28   61 1
  46   29   30 1
  47   29   31 2
  48   30   33 ar
  49   30   37 ar
  50   31   32 1
  51   31   62 1
  52   32   33 1
  53   32   38 1
  54   33   34 ar
  55   34   35 ar
  56   34   63 1
  57   35   36 ar
  58   35   64 1
  59   36   37 ar
  60   36   65 1
  61   37   66 1
  62   38   67 1
  63   38   68 1
  64   38   69 1
  65   39   40 1
  66   39   46 1
  67   40   41 ar
  68   40   42 ar
  69   41   45 ar
  70   42   43 ar
  71   42   70 1
  72   43   44 ar
  73   43   71 1
  74   44   45 ar
  75   44   72 1
  76   45   73 1
  77   46   74 1
  78   46   75 1
  79   46   76 1

#	End of record

