#	Name: ASD08590004
#	Creating user name:	WinNT
#	Creation time:	15. 06. 2019 21:19

#	Modifying user name:	WinNT
#	Modification time:	15. 06. 2019 21:19

#	Program:	/corina/corina34_cracker 3.40 0067  02.08.2006

@<TRIPOS>MOLECULE
ASD08590004
  45   47    0    0    0
SMALL
NO_CHARGES


@<TRIPOS>ATOM
   1 N1            -0.1451     1.3916    -0.3807 N.am    
   2 C2             0.0151     0.0613    -0.2367 C.2     
   3 C3            -1.2982    -0.4519     0.3196 C.3     
   4 N4            -2.1234     0.7629     0.4354 N.am    
   5 C5            -1.3628     1.7869     0.0080 C.2     
   6 C6            -3.4347     0.8374     0.9009 C.ar    
   7 C7            -3.6809     0.9495     2.2648 C.ar    
   8 C8            -4.4945     0.8051    -0.0014 C.ar    
   9 C9            -5.7912     0.8787     0.4528 C.ar    
  10 C10           -6.0457     0.9859     1.8233 C.ar    
  11 C11           -4.9780     1.0235     2.7289 C.ar    
  12 C12           -7.4339     1.0655     2.3133 C.2     
  13 O13           -7.6533     1.1587     3.5058 O.2     
  14 N14           -8.4597     1.0351     1.4397 N.am    
  15 F15           -5.2179     1.1265     4.0544 F       
  16 O16            1.0039    -0.5898    -0.4985 O.2     
  17 C17           -1.9400    -1.4484    -0.6479 C.3     
  18 C18           -1.0874    -1.0924     1.6930 C.3     
  19 C19            0.8414     2.2532    -0.8702 C.ar    
  20 C20            1.7285     2.8633     0.0102 C.ar    
  21 C21            0.9365     2.4934    -2.2363 C.ar    
  22 C22            1.9072     3.3412    -2.7223 C.ar    
  23 C23            2.7968     3.9605    -1.8404 C.ar    
  24 C24            2.7010     3.7128    -0.4681 C.ar    
  25 S25           -1.8968     3.4127    -0.0427 S.2     
  26 C26            3.8077     4.8421    -2.3418 C.1     
  27 N27            4.6097     5.5415    -2.7395 N.1     
  28 C28            3.6579     4.3781     0.4873 C.3     
  29 F29            3.3652     3.9771     1.7953 F       
  30 F30            4.9686     4.0074     0.1682 F       
  31 F31            3.5282     5.7673     0.3854 F       
  32 H32           -2.8561     0.9784     2.9614 H       
  33 H33           -4.2983     0.7223    -1.0602 H       
  34 H34           -6.6118     0.8542    -0.2490 H       
  35 H35           -8.2847     0.9608     0.4886 H       
  36 H36           -9.3731     1.0875     1.7622 H       
  37 H37           -1.2783    -2.3045    -0.7796 H       
  38 H38           -2.8939    -1.7855    -0.2424 H       
  39 H39           -2.1049    -0.9651    -1.6109 H       
  40 H40           -0.6540    -0.3592     2.3732 H       
  41 H41           -2.0457    -1.4313     2.0868 H       
  42 H42           -0.4125    -1.9429     1.5975 H       
  43 H43            1.6543     2.6708     1.0703 H       
  44 H44            0.2486     2.0144    -2.9173 H       
  45 H45            1.9810     3.5268    -3.7837 H       
@<TRIPOS>BOND
   1    1    2 am
   2    1   19 1
   3    1    5 am
   4    2    3 1
   5    2   16 2
   6    3    4 1
   7    3   17 1
   8    3   18 1
   9    4    5 am
  10    4    6 1
  11    5   25 2
  12    6    7 ar
  13    6    8 ar
  14    7   11 ar
  15    7   32 1
  16    8    9 ar
  17    8   33 1
  18    9   10 ar
  19    9   34 1
  20   10   11 ar
  21   10   12 1
  22   11   15 1
  23   12   13 2
  24   12   14 am
  25   14   35 1
  26   14   36 1
  27   17   37 1
  28   17   38 1
  29   17   39 1
  30   18   40 1
  31   18   41 1
  32   18   42 1
  33   19   20 ar
  34   19   21 ar
  35   20   24 ar
  36   20   43 1
  37   21   22 ar
  38   21   44 1
  39   22   23 ar
  40   22   45 1
  41   23   24 ar
  42   23   26 1
  43   24   28 1
  44   26   27 3
  45   28   29 1
  46   28   30 1
  47   28   31 1

#	End of record

