#	Name: ASD01940092
#	Creating user name:	WinNT
#	Creation time:	15. 06. 2019 20:11

#	Modifying user name:	WinNT
#	Modification time:	15. 06. 2019 20:11

#	Program:	/corina/corina34_cracker 3.40 0067  02.08.2006

@<TRIPOS>MOLECULE
ASD01940092
  43   45    0    0    0
SMALL
NO_CHARGES


@<TRIPOS>ATOM
   1 C1             1.7976     1.4188    -1.0485 C.ar    
   2 C2             1.5958     0.0461    -1.1448 C.ar    
   3 C3             1.7664    -0.5937    -2.3652 C.ar    
   4 C4             2.1358     0.1341    -3.4797 C.ar    
   5 C5             2.3365     1.4993    -3.3818 C.ar    
   6 C6             2.1622     2.1421    -2.1694 C.ar    
   7 I7             2.8973     2.5972    -5.0757 I       
   8 F8             1.6323     2.0456     0.1368 F       
   9 N9             1.2221    -0.6886    -0.0143 N.pl3   
  10 C10            1.1513    -2.0679    -0.0785 C.2     
  11 C11            2.3513    -2.8747    -0.2916 C.2     
  12 C12            2.2375    -4.2708    -0.3501 C.2     
  13 N13            1.0111    -4.8568    -0.2078 N.am    
  14 C14           -0.0984    -4.1250    -0.0120 C.2     
  15 C15           -0.0589    -2.7285     0.0630 C.2     
  16 O16           -1.1709    -4.6951     0.1090 O.2     
  17 C17            3.6310    -2.2847    -0.4418 C.2     
  18 N18            4.6882    -3.1059    -0.6358 N.am    
  19 C19            4.5120    -4.4474    -0.6825 C.2     
  20 N20            3.3407    -5.0064    -0.5461 N.2     
  21 O21            3.7744    -1.0756    -0.3978 O.2     
  22 C22            0.9038    -6.3165    -0.2707 C.3     
  23 F23           -1.1962    -2.0268     0.2614 F       
  24 C24            6.0303    -2.5408    -0.7967 C.3     
  25 C25            6.7004    -2.4200     0.5735 C.3     
  26 O26            6.9025    -3.7241     1.1216 O.3     
  27 C27            8.0503    -1.7161     0.4207 C.3     
  28 O28            8.6230    -1.4990     1.7118 O.3     
  29 H29            1.6107    -1.6595    -2.4430 H       
  30 H30            2.2684    -0.3637    -4.4289 H       
  31 H31            2.3193     3.2081    -2.0962 H       
  32 H32            1.0127    -0.2303     0.8146 H       
  33 H33            5.3739    -5.0793    -0.8387 H       
  34 H34            1.0211    -6.7329     0.7298 H       
  35 H35           -0.0735    -6.5923    -0.6667 H       
  36 H36            1.6841    -6.7105    -0.9219 H       
  37 H37            6.6251    -3.1935    -1.4357 H       
  38 H38            5.9566    -1.5539    -1.2535 H       
  39 H39            6.0619    -1.8405     1.2403 H       
  40 H40            7.4627    -4.2961     0.5794 H       
  41 H41            8.7193    -2.3385    -0.1736 H       
  42 H42            7.9060    -0.7580    -0.0786 H       
  43 H43            9.4822    -1.0557     1.6914 H       
@<TRIPOS>BOND
   1    1    2 ar
   2    1    8 1
   3    1    6 ar
   4    2    3 ar
   5    2    9 1
   6    3    4 ar
   7    3   29 1
   8    4    5 ar
   9    4   30 1
  10    5    6 ar
  11    5    7 1
  12    6   31 1
  13    9   10 1
  14    9   32 1
  15   10   11 1
  16   10   15 2
  17   11   12 2
  18   11   17 1
  19   12   13 1
  20   12   20 1
  21   13   14 am
  22   13   22 1
  23   14   15 1
  24   14   16 2
  25   15   23 1
  26   17   18 am
  27   17   21 2
  28   18   19 1
  29   18   24 1
  30   19   20 2
  31   19   33 1
  32   22   34 1
  33   22   35 1
  34   22   36 1
  35   24   25 1
  36   24   37 1
  37   24   38 1
  38   25   26 1
  39   25   27 1
  40   25   39 1
  41   26   40 1
  42   27   28 1
  43   27   41 1
  44   27   42 1
  45   28   43 1

#	End of record

