#	Name: ASD00740010
#	Creating user name:	WinNT
#	Creation time:	15. 06. 2019 18:37

#	Modifying user name:	WinNT
#	Modification time:	15. 06. 2019 18:37

#	Program:	/corina/corina34_cracker 3.40 0067  02.08.2006

@<TRIPOS>MOLECULE
ASD00740010
  61   68    0    0    0
SMALL
NO_CHARGES


@<TRIPOS>ATOM
   1 C1             0.0663     1.5120     0.1373 C.ar    
   2 C2             0.0494     0.0991     0.0690 C.ar    
   3 C3             1.2537    -0.6072     0.0337 C.ar    
   4 C4             2.4718     0.0810     0.0604 C.ar    
   5 C5             2.4838     1.4835     0.1221 C.ar    
   6 C6             1.2834     2.1850     0.1627 C.ar    
   7 N7             3.7756    -0.3905     0.0388 N.pl3   
   8 C8             4.6441     0.6744     0.0735 C.ar    
   9 C9             3.8955     1.8710     0.1264 C.ar    
  10 C10            6.0381     0.7102     0.0610 C.ar    
  11 C11            6.6374     1.9579     0.1017 C.ar    
  12 C12            5.9015     3.1284     0.1542 C.ar    
  13 C13            4.5164     3.1192     0.1681 C.ar    
  14 C14           -1.0096    -0.9045     0.0203 C.ar    
  15 C15           -0.3716    -2.1659    -0.0338 C.ar    
  16 N16            0.9871    -1.9722    -0.0235 N.pl3   
  17 C17           -2.4010    -0.7913     0.0194 C.ar    
  18 C18           -3.1234    -1.9714    -0.0346 C.ar    
  19 C19           -2.5012    -3.2064    -0.0854 C.ar    
  20 C20           -1.1228    -3.3393    -0.0870 C.ar    
  21 C21            0.9571     3.6566     0.2354 C.3     
  22 N22           -0.5072     3.7496     0.2508 N.am    
  23 C23           -1.0155     2.5068     0.1977 C.2     
  24 O24           -2.2025     2.2422     0.1939 O.2     
  25 C25            2.0133    -3.0151    -0.0671 C.3     
  26 O26            3.1915    -2.5826    -0.7089 O.3     
  27 C27            4.1437    -1.8062    -0.0185 C.3     
  28 C28            2.2761    -3.5672     1.3283 C.3     
  29 C29            4.4334    -2.3418     1.3782 C.3     
  30 C30            3.1125    -2.5594     2.1250 C.3     
  31 C31            5.4542    -1.8981    -0.8027 C.3     
  32 H32            1.6092    -3.8376    -0.6572 H       
  33 O33            5.2354    -1.3996     2.0931 O.3     
  34 N34            2.3871    -1.2865     2.2311 N.3     
  35 C35            6.1054    -1.9919     3.0596 C.3     
  36 C36            1.4519    -1.3063     3.3638 C.3     
  37 H37            6.6247    -0.1958     0.0217 H       
  38 H38            7.7156     2.0195     0.0925 H       
  39 H39            6.4209     4.0748     0.1847 H       
  40 H40            3.9447     4.0345     0.2100 H       
  41 H41           -2.8906     0.1705     0.0592 H       
  42 H42           -4.2025    -1.9268    -0.0368 H       
  43 H43           -3.1113    -4.0967    -0.1254 H       
  44 H44           -0.6502    -4.3095    -0.1270 H       
  45 H45            1.3697     4.0875     1.1477 H       
  46 H46            1.3564     4.1728    -0.6376 H       
  47 H47           -1.0220     4.5705     0.2953 H       
  48 H48            1.3271    -3.7352     1.8375 H       
  49 H49            2.8189    -4.5092     1.2503 H       
  50 H50            4.9675    -3.2889     1.3007 H       
  51 H51            3.3133    -2.9536     3.1212 H       
  52 H52            6.2908    -1.6788    -0.1392 H       
  53 H53            5.5656    -2.9040    -1.2075 H       
  54 H54            5.4400    -1.1771    -1.6200 H       
  55 H55            3.0276    -0.5103     2.3046 H       
  56 H56            6.6794    -1.2111     3.5586 H       
  57 H57            5.5138    -2.5351     3.7965 H       
  58 H58            6.7868    -2.6813     2.5610 H       
  59 H59            0.9281    -0.3520     3.4193 H       
  60 H60            0.7289    -2.1100     3.2240 H       
  61 H61            2.0047    -1.4717     4.2885 H       
@<TRIPOS>BOND
   1    1    2 ar
   2    1    6 ar
   3    1   23 1
   4    2    3 ar
   5    2   14 1
   6    3    4 ar
   7    3   16 1
   8    4    5 ar
   9    4    7 1
  10    5    6 ar
  11    5    9 1
  12    6   21 1
  13    7    8 1
  14    7   27 1
  15    8    9 ar
  16    8   10 ar
  17    9   13 ar
  18   10   11 ar
  19   10   37 1
  20   11   12 ar
  21   11   38 1
  22   12   13 ar
  23   12   39 1
  24   13   40 1
  25   14   15 ar
  26   14   17 ar
  27   15   16 1
  28   15   20 ar
  29   16   25 1
  30   17   18 ar
  31   17   41 1
  32   18   19 ar
  33   18   42 1
  34   19   20 ar
  35   19   43 1
  36   20   44 1
  37   21   22 1
  38   21   45 1
  39   21   46 1
  40   22   23 am
  41   22   47 1
  42   23   24 2
  43   25   26 1
  44   25   28 1
  45   25   32 1
  46   26   27 1
  47   27   31 1
  48   27   29 1
  49   28   30 1
  50   28   48 1
  51   28   49 1
  52   29   33 1
  53   29   30 1
  54   29   50 1
  55   30   34 1
  56   30   51 1
  57   31   52 1
  58   31   53 1
  59   31   54 1
  60   33   35 1
  61   34   36 1
  62   34   55 1
  63   35   56 1
  64   35   57 1
  65   35   58 1
  66   36   59 1
  67   36   60 1
  68   36   61 1

#	End of record

