#	Name: ASD05060101
#	Creating user name:	WinNT
#	Creation time:	15. 06. 2019 20:56

#	Modifying user name:	WinNT
#	Modification time:	15. 06. 2019 20:56

#	Program:	/corina/corina34_cracker 3.40 0067  02.08.2006

@<TRIPOS>MOLECULE
ASD05060101
  44   46    0    0    0
SMALL
NO_CHARGES


@<TRIPOS>ATOM
   1 C1             0.0991     2.1409     3.9497 C.ar    
   2 C2             0.5550     1.4747     5.0735 C.ar    
   3 C3             1.8134     0.9035     5.0748 C.ar    
   4 C4             2.6167     0.9975     3.9535 C.ar    
   5 C5             2.1620     1.6632     2.8307 C.ar    
   6 C6             0.9033     2.2346     2.8281 C.ar    
   7 C7             0.4073     2.9595     1.6035 C.3     
   8 N8             0.7100     4.3877     1.7254 N.pl3   
   9 C9             1.8900     4.9457     1.0603 C.3     
  10 C10           -0.1283     5.2190     2.4772 C.ar    
  11 C11            1.4798     5.5750    -0.2462 C.ar    
  12 C12            1.0932     6.9016    -0.2832 C.ar    
  13 C13            0.7169     7.4789    -1.4814 C.ar    
  14 C14            0.7274     6.7301    -2.6436 C.ar    
  15 C15            1.1137     5.4037    -2.6078 C.ar    
  16 C16            1.4955     4.8267    -1.4095 C.ar    
  17 C17           -1.4017     5.5269     2.0089 C.ar    
  18 C18           -2.2351     6.3461     2.7431 C.ar    
  19 C19           -1.8081     6.8689     3.9545 C.ar    
  20 C20           -0.5270     6.5632     4.4333 C.ar    
  21 C21            0.3094     5.7283     3.6871 C.ar    
  22 O22           -2.6290     7.6752     4.6747 O.3     
  23 C23           -0.0660     7.1151     5.7200 C.2     
  24 O24           -0.7973     7.8370     6.3685 O.2     
  25 O25            1.1665     6.8189     6.1773 O.3     
  26 Cl26          -1.4843     2.8525     3.9448 Cl      
  27 Cl27           1.9873     3.1624    -1.3649 Cl      
  28 H28           -0.0722     1.4015     5.9496 H       
  29 H29            2.1695     0.3839     5.9521 H       
  30 H30            3.6001     0.5510     3.9550 H       
  31 H31            2.7902     1.7369     1.9553 H       
  32 H32            0.9008     2.5577     0.7186 H       
  33 H33           -0.6703     2.8230     1.5120 H       
  34 H34            2.3446     5.7015     1.7007 H       
  35 H35            2.6101     4.1499     0.8700 H       
  36 H36            1.0848     7.4871     0.6243 H       
  37 H37            0.4143     8.5153    -1.5097 H       
  38 H38            0.4333     7.1817    -3.5795 H       
  39 H39            1.1212     4.8187    -3.5156 H       
  40 H40           -1.7397     5.1231     1.0660 H       
  41 H41           -3.2221     6.5810     2.3730 H       
  42 H42            1.2964     5.4847     4.0519 H       
  43 H43           -3.1924     7.2028     5.3027 H       
  44 H44            1.4243     7.2042     7.0259 H       
@<TRIPOS>BOND
   1    1    2 ar
   2    1    6 ar
   3    1   26 1
   4    2    3 ar
   5    2   28 1
   6    3    4 ar
   7    3   29 1
   8    4    5 ar
   9    4   30 1
  10    5    6 ar
  11    5   31 1
  12    6    7 1
  13    7    8 1
  14    7   32 1
  15    7   33 1
  16    8    9 1
  17    8   10 1
  18    9   11 1
  19    9   34 1
  20    9   35 1
  21   10   17 ar
  22   10   21 ar
  23   11   12 ar
  24   11   16 ar
  25   12   13 ar
  26   12   36 1
  27   13   14 ar
  28   13   37 1
  29   14   15 ar
  30   14   38 1
  31   15   16 ar
  32   15   39 1
  33   16   27 1
  34   17   18 ar
  35   17   40 1
  36   18   19 ar
  37   18   41 1
  38   19   20 ar
  39   19   22 1
  40   20   21 ar
  41   20   23 1
  42   21   42 1
  43   22   43 1
  44   23   24 2
  45   23   25 1
  46   25   44 1

#	End of record

