#	Name: ASD01141074
#	Creating user name:	WinNT
#	Creation time:	15. 06. 2019 19:01

#	Modifying user name:	WinNT
#	Modification time:	15. 06. 2019 19:01

#	Program:	/corina/corina34_cracker 3.40 0067  02.08.2006

@<TRIPOS>MOLECULE
ASD01141074
  46   47    0    0    0
SMALL
NO_CHARGES


@<TRIPOS>ATOM
   1 C1            -0.1498     1.3681    -0.0344 C.2     
   2 C2            -0.5026    -0.0480     0.1116 C.2     
   3 C3             0.2557     1.8964    -1.3542 C.ar    
   4 O4            -0.1958     2.1092     0.9298 O.2     
   5 C5             0.5289    -1.0818    -0.0451 C.2     
   6 C6            -1.8055    -0.4096     0.3968 C.2     
   7 C7             0.2744     1.0573    -2.4702 C.ar    
   8 C8             0.6165     3.2391    -1.4919 C.ar    
   9 O9             0.2317    -2.2575     0.0534 O.2     
  10 N10            1.8045    -0.7280    -0.2982 N.am    
  11 N11           -2.1034    -1.6964     0.6743 N.pl3   
  12 C12            0.6532     1.5566    -3.6984 C.ar    
  13 C13            0.9938     3.7256    -2.7286 C.ar    
  14 Cl14           0.5901     4.2934    -0.1130 Cl      
  15 C15           -3.4044    -2.0483     1.0457 C.ar    
  16 C16            1.0147     2.8866    -3.8276 C.ar    
  17 C17           -4.3929    -1.0755     1.1240 C.ar    
  18 C18           -3.7124    -3.3724     1.3317 C.ar    
  19 C19           -5.6773    -1.4260     1.4907 C.ar    
  20 C20           -4.9985    -3.7171     1.6978 C.ar    
  21 C21           -5.9801    -2.7450     1.7801 C.ar    
  22 Cl22          -7.5957    -3.1820     2.2413 Cl      
  23 H23            2.0520     0.2096    -0.3228 H       
  24 H24           -1.4148    -2.3771     0.6161 H       
  25 C25            2.8173    -1.7594    -0.5360 C.3     
  26 C26            2.4218    -2.5903    -1.7583 C.3     
  27 C27            4.1724    -1.0952    -0.7876 C.3     
  28 C28            2.9154    -2.6701     0.6896 C.3     
  29 H29           -2.5854     0.3375     0.3975 H       
  30 H30           -0.0069     0.0193    -2.3714 H       
  31 H31            0.6720     0.9072    -4.5612 H       
  32 H32            1.2728     4.7632    -2.8373 H       
  33 H33            1.3105     3.2719    -4.7923 H       
  34 H34           -4.1571    -0.0459     0.8986 H       
  35 H35           -2.9469    -4.1314     1.2673 H       
  36 H36           -6.4462    -0.6700     1.5520 H       
  37 H37           -5.2385    -4.7464     1.9203 H       
  38 H38            2.3520    -1.9416    -2.6315 H       
  39 H39            3.1754    -3.3577    -1.9353 H       
  40 H40            1.4564    -3.0635    -1.5791 H       
  41 H41            4.4951    -0.5750     0.1143 H       
  42 H42            4.9070    -1.8564    -1.0504 H       
  43 H43            4.0806    -0.3810    -1.6058 H       
  44 H44            1.9500    -3.1433     0.8688 H       
  45 H45            3.6689    -3.4375     0.5127 H       
  46 H46            3.1971    -2.0781     1.5604 H       
@<TRIPOS>BOND
   1    1    2 1
   2    1    3 1
   3    1    4 2
   4    2    5 1
   5    2    6 2
   6    3    7 ar
   7    3    8 ar
   8    5   10 am
   9    5    9 2
  10    6   11 1
  11    6   29 1
  12    7   12 ar
  13    7   30 1
  14    8   13 ar
  15    8   14 1
  16   10   23 1
  17   10   25 1
  18   11   24 1
  19   11   15 1
  20   12   16 ar
  21   12   31 1
  22   13   16 ar
  23   13   32 1
  24   15   18 ar
  25   15   17 ar
  26   16   33 1
  27   17   19 ar
  28   17   34 1
  29   18   20 ar
  30   18   35 1
  31   19   21 ar
  32   19   36 1
  33   20   21 ar
  34   20   37 1
  35   21   22 1
  36   25   26 1
  37   25   27 1
  38   25   28 1
  39   26   38 1
  40   26   39 1
  41   26   40 1
  42   27   41 1
  43   27   42 1
  44   27   43 1
  45   28   44 1
  46   28   45 1
  47   28   46 1

#	End of record

