#	Name: ASD05832001
#	Creating user name:	WinNT
#	Creation time:	15. 06. 2019 21:03

#	Modifying user name:	WinNT
#	Modification time:	15. 06. 2019 21:03

#	Program:	/corina/corina34_cracker 3.40 0067  02.08.2006

@<TRIPOS>MOLECULE
ASD05832001
  55   55    0    0    0
SMALL
NO_CHARGES


@<TRIPOS>ATOM
   1 C1            -0.0167     1.3781     0.0096 C.ar    
   2 C2             0.0021    -0.0041     0.0020 C.ar    
   3 C3             1.2084    -0.6789    -0.0132 C.ar    
   4 C4             2.3960     0.0285    -0.0212 C.ar    
   5 C5             2.3773     1.4107    -0.0145 C.ar    
   6 C6             1.1710     2.0855     0.0021 C.ar    
   7 C7             3.6720     2.1819    -0.0228 C.3     
   8 C8             4.0969     2.4497    -1.4680 C.3     
   9 C9             5.4113     3.2327    -1.4764 C.3     
  10 C10            5.8362     3.5004    -2.9216 C.3     
  11 C11            7.1507     4.2834    -2.9300 C.3     
  12 C12            7.5756     4.5512    -4.3753 C.3     
  13 C13            8.8901     5.3341    -4.3837 C.3     
  14 C14            9.3149     5.6019    -5.8289 C.3     
  15 C15           -1.2926    -0.7753     0.0108 C.3     
  16 C16           -1.7452    -1.0285    -1.4286 C.3     
  17 C17           -3.0596    -1.8115    -1.4197 C.3     
  18 C18           -2.8514    -3.1496    -0.7077 C.3     
  19 O19           -1.8519    -3.9046    -1.3954 O.3     
  20 N20           -4.0871    -1.0353    -0.7128 N.3     
  21 C21           -3.5121    -2.0647    -2.8592 C.3     
  22 O22           -4.7958    -2.6926    -2.8515 O.3     
  23 H23           -0.9592     1.9054     0.0170 H       
  24 H24            1.2231    -1.7588    -0.0184 H       
  25 H25            3.3386    -0.4987    -0.0324 H       
  26 H26            1.1563     3.1654     0.0069 H       
  27 H27            3.5335     3.1300     0.4968 H       
  28 H28            4.4443     1.6008     0.4812 H       
  29 H29            4.2354     1.5016    -1.9876 H       
  30 H30            3.3246     3.0308    -1.9720 H       
  31 H31            5.2728     4.1808    -0.9568 H       
  32 H32            6.1836     2.6516    -0.9724 H       
  33 H33            5.9748     2.5523    -3.4412 H       
  34 H34            5.0640     4.0815    -3.4257 H       
  35 H35            7.0122     5.2315    -2.4104 H       
  36 H36            7.9230     3.7023    -2.4260 H       
  37 H37            7.7141     3.6031    -4.8949 H       
  38 H38            6.8033     5.1323    -4.8793 H       
  39 H39            8.7515     6.2823    -3.8641 H       
  40 H40            9.6623     4.7530    -3.8796 H       
  41 H41            9.4535     4.6538    -6.3485 H       
  42 H42            8.5427     6.1830    -6.3329 H       
  43 H43           10.2514     6.1597    -5.8349 H       
  44 H44           -1.1443    -1.7285     0.5181 H       
  45 H45           -2.0550    -0.1993     0.5353 H       
  46 H46           -1.8935    -0.0752    -1.9359 H       
  47 H47           -0.9828    -1.6044    -1.9532 H       
  48 H48           -2.5290    -2.9692     0.3178 H       
  49 H49           -3.7878    -3.7074    -0.7014 H       
  50 H50           -1.6677    -4.7669    -0.9983 H       
  51 H51           -4.2431    -0.1464    -1.1640 H       
  52 H52           -4.9468    -1.5581    -0.6369 H       
  53 H53           -3.5749    -1.1162    -3.3925 H       
  54 H54           -2.7927    -2.7147    -3.3572 H       
  55 H55           -5.1457    -2.8833    -3.7325 H       
@<TRIPOS>BOND
   1    1    2 ar
   2    1    6 ar
   3    1   23 1
   4    2    3 ar
   5    2   15 1
   6    3    4 ar
   7    3   24 1
   8    4    5 ar
   9    4   25 1
  10    5    6 ar
  11    5    7 1
  12    6   26 1
  13    7    8 1
  14    7   27 1
  15    7   28 1
  16    8    9 1
  17    8   29 1
  18    8   30 1
  19    9   10 1
  20    9   31 1
  21    9   32 1
  22   10   11 1
  23   10   33 1
  24   10   34 1
  25   11   12 1
  26   11   35 1
  27   11   36 1
  28   12   13 1
  29   12   37 1
  30   12   38 1
  31   13   14 1
  32   13   39 1
  33   13   40 1
  34   14   41 1
  35   14   42 1
  36   14   43 1
  37   15   16 1
  38   15   44 1
  39   15   45 1
  40   16   17 1
  41   16   46 1
  42   16   47 1
  43   17   18 1
  44   17   20 1
  45   17   21 1
  46   18   19 1
  47   18   48 1
  48   18   49 1
  49   19   50 1
  50   20   51 1
  51   20   52 1
  52   21   22 1
  53   21   53 1
  54   21   54 1
  55   22   55 1

#	End of record

