#	Name: ASD01917047
#	Creating user name:	WinNT
#	Creation time:	15. 06. 2019 20:08

#	Modifying user name:	WinNT
#	Modification time:	15. 06. 2019 20:08

#	Program:	/corina/corina34_cracker 3.40 0067  02.08.2006

@<TRIPOS>MOLECULE
ASD01917047
  63   67    0    0    0
SMALL
NO_CHARGES


@<TRIPOS>ATOM
   1 C1            -0.0173     1.3089     0.0939 C.2     
   2 N2             0.0007     0.0198    -0.1688 N.2     
   3 N3            -1.3351    -0.4133    -0.1801 N.pl3   
   4 C4            -2.0929     0.6764     0.0845 C.2     
   5 N5            -1.2857     1.7023     0.2524 N.2     
   6 C6             1.1769     2.1835     0.2030 C.ar    
   7 C7             1.0258     3.5386     0.4867 C.ar    
   8 C8             2.4512     1.6496     0.0275 C.ar    
   9 C9             3.5641     2.4686     0.1299 C.ar    
  10 C10            3.4101     3.8189     0.4073 C.ar    
  11 C11           -1.8137    -1.7751    -0.4299 C.3     
  12 C12           -1.8504    -2.5406     0.8678 C.2     
  13 N13           -2.2612    -3.8241     0.8816 N.am    
  14 O14           -1.5102    -2.0016     1.8996 O.2     
  15 C15           -2.3046    -4.5893     2.1370 C.3     
  16 C16           -3.6916    -5.2271     2.2706 C.3     
  17 N17           -3.9888    -6.0033     1.0594 N.3     
  18 C18           -4.0503    -5.1382    -0.1263 C.3     
  19 C19           -2.6838    -4.4949    -0.3572 C.3     
  20 C20           -5.1604    -6.7252     1.2079 C.ar    
  21 N21           -5.5827    -7.4855     0.2084 N.ar    
  22 C22           -6.6982    -8.1879     0.3178 C.ar    
  23 C23           -7.4264    -8.1213     1.4953 C.ar    
  24 C24           -6.9559    -7.3162     2.5207 C.ar    
  25 N25           -5.8300    -6.6436     2.3482 N.ar    
  26 C26           -3.5697     0.7077     0.1754 C.ar    
  27 C27            2.1426     4.3526     0.5879 C.ar    
  28 C28           -4.2545     1.9150     0.0371 C.ar    
  29 C29           -5.6314     1.9376     0.1230 C.ar    
  30 C30           -6.3327     0.7661     0.3461 C.ar    
  31 C31           -5.6593    -0.4344     0.4846 C.ar    
  32 C32           -4.2829    -0.4710     0.3941 C.ar    
  33 O33            4.8079     1.9483    -0.0413 O.3     
  34 C34            5.9103     2.8497     0.0781 C.3     
  35 O35            1.9956     5.6760     0.8596 O.3     
  36 C36            3.1891     6.4573     0.9448 C.3     
  37 H37            0.0391     3.9546     0.6273 H       
  38 H38            2.5717     0.5982    -0.1879 H       
  39 H39            4.2791     4.4552     0.4874 H       
  40 H40           -2.8159    -1.7355    -0.8567 H       
  41 H41           -1.1412    -2.2745    -1.1274 H       
  42 H42           -1.5434    -5.3692     2.1169 H       
  43 H43           -2.1261    -3.9211     2.9794 H       
  44 H44           -3.7065    -5.8868     3.1382 H       
  45 H45           -4.4409    -4.4454     2.3946 H       
  46 H46           -4.3253    -5.7334    -0.9970 H       
  47 H47           -4.7946    -4.3577     0.0312 H       
  48 H48           -2.7540    -3.7660    -1.1645 H       
  49 H49           -1.9562    -5.2640    -0.6166 H       
  50 H50           -7.0375    -8.8056    -0.5005 H       
  51 H51           -8.3408    -8.6843     1.6111 H       
  52 H52           -7.4999    -7.2420     3.4507 H       
  53 H53           -3.7081     2.8303    -0.1364 H       
  54 H54           -6.1628     2.8717     0.0161 H       
  55 H55           -7.4104     0.7890     0.4129 H       
  56 H56           -6.2123    -1.3454     0.6594 H       
  57 H57           -3.7583    -1.4088     0.5023 H       
  58 H58            5.8174     3.6383    -0.6687 H       
  59 H59            5.9122     3.2915     1.0746 H       
  60 H60            6.8422     2.3071    -0.0805 H       
  61 H61            3.7224     6.4107    -0.0047 H       
  62 H62            2.9305     7.4928     1.1658 H       
  63 H63            3.8248     6.0642     1.7382 H       
@<TRIPOS>BOND
   1    1    2 2
   2    1    6 1
   3    1    5 1
   4    2    3 1
   5    3    4 1
   6    3   11 1
   7    4    5 2
   8    4   26 1
   9    6    7 ar
  10    6    8 ar
  11    7   27 ar
  12    7   37 1
  13    8    9 ar
  14    8   38 1
  15    9   10 ar
  16    9   33 1
  17   10   27 ar
  18   10   39 1
  19   11   12 1
  20   11   40 1
  21   11   41 1
  22   12   13 am
  23   12   14 2
  24   13   15 1
  25   13   19 1
  26   15   16 1
  27   15   42 1
  28   15   43 1
  29   16   17 1
  30   16   44 1
  31   16   45 1
  32   17   18 1
  33   17   20 1
  34   18   19 1
  35   18   46 1
  36   18   47 1
  37   19   48 1
  38   19   49 1
  39   20   21 ar
  40   20   25 ar
  41   21   22 ar
  42   22   23 ar
  43   22   50 1
  44   23   24 ar
  45   23   51 1
  46   24   25 ar
  47   24   52 1
  48   26   28 ar
  49   26   32 ar
  50   27   35 1
  51   28   29 ar
  52   28   53 1
  53   29   30 ar
  54   29   54 1
  55   30   31 ar
  56   30   55 1
  57   31   32 ar
  58   31   56 1
  59   32   57 1
  60   33   34 1
  61   34   58 1
  62   34   59 1
  63   34   60 1
  64   35   36 1
  65   36   61 1
  66   36   62 1
  67   36   63 1

#	End of record

