#	Name: ASD09116495
#	Creating user name:	WinNT
#	Creation time:	15. 06. 2019 21:21

#	Modifying user name:	WinNT
#	Modification time:	15. 06. 2019 21:21

#	Program:	/corina/corina34_cracker 3.40 0067  02.08.2006

@<TRIPOS>MOLECULE
ASD09116495
  59   64    0    0    0
SMALL
NO_CHARGES


@<TRIPOS>ATOM
   1 N1            -0.0298     1.4184     0.1460 N.2     
   2 N2            -0.0211     0.0196     0.2680 N.pl3   
   3 C3             1.2222     1.8079     0.1166 C.2     
   4 N4             2.0153     0.7343     0.2131 N.2     
   5 C5             1.2799    -0.3529     0.3052 C.2     
   6 N6             1.7522    -1.6465     0.4198 N.pl3   
   7 C7            -1.1338    -0.8206     0.3379 C.ar    
   8 N8             1.6572     3.1285     0.0026 N.pl3   
   9 C9             3.0192     3.4261     0.0967 C.ar    
  10 C10            3.5411     4.5216    -0.5801 C.ar    
  11 C11            3.8537     2.6308     0.8717 C.ar    
  12 C12            5.2013     2.9324     0.9605 C.ar    
  13 C13            5.7146     4.0116     0.2863 C.ar    
  14 C14            4.8874     4.8128    -0.4847 C.ar    
  15 N15           -1.0323    -2.0869    -0.0376 N.ar    
  16 N16           -2.0281    -2.8991    -0.0024 N.ar    
  17 C17           -3.2236    -2.5134     0.4137 C.ar    
  18 C18           -3.4201    -1.2000     0.8498 C.ar    
  19 C19           -2.3531    -0.3275     0.8092 C.ar    
  20 C20           -4.3855    -3.4321     0.4042 C.ar    
  21 C21           -5.5821    -3.0006    -0.1705 C.ar    
  22 C22           -5.6443    -1.6416    -0.8122 C.3     
  23 C23           -5.7429    -0.5354     0.2348 C.3     
  24 C24           -4.7621    -0.7835     1.3777 C.3     
  25 C25           -4.2993    -4.7041     0.9592 C.ar    
  26 C26           -5.4078    -5.5285     0.9550 C.ar    
  27 C27           -6.5976    -5.0893     0.4032 C.ar    
  28 C28           -6.6852    -3.8269    -0.1579 C.ar    
  29 C29            6.0975     2.0596     1.8095 C.3     
  30 C30            6.9978     1.2301     0.8884 C.3     
  31 C31            8.1616     2.0667     0.4336 C.2     
  32 C32            7.9831     3.3016    -0.4057 C.3     
  33 C33            7.1859     4.3469     0.3802 C.3     
  34 O34            9.2779     1.7358     0.7537 O.2     
  35 H35            2.7074    -1.8143     0.4376 H       
  36 H36            1.1284    -2.3868     0.4824 H       
  37 H37            1.0141     3.8402    -0.1420 H       
  38 H38            2.8945     5.1445    -1.1803 H       
  39 H39            3.4523     1.7806     1.4031 H       
  40 H40            5.2961     5.6610    -1.0138 H       
  41 H41           -2.4581     0.7008     1.1222 H       
  42 H42           -4.7458    -1.4880    -1.4098 H       
  43 H43           -6.5169    -1.5946    -1.4638 H       
  44 H44           -5.5145     0.4224    -0.2326 H       
  45 H45           -6.7574    -0.5070     0.6324 H       
  46 H46           -5.1539    -1.5707     2.0218 H       
  47 H47           -4.6503     0.1317     1.9591 H       
  48 H48           -3.3703    -5.0460     1.3910 H       
  49 H49           -5.3452    -6.5180     1.3832 H       
  50 H50           -7.4634    -5.7349     0.4104 H       
  51 H51           -7.6175    -3.4898    -0.5863 H       
  52 H52            6.7134     2.6866     2.4542 H       
  53 H53            5.4871     1.3939     2.4197 H       
  54 H54            7.3668     0.3590     1.4299 H       
  55 H55            6.4255     0.9021     0.0207 H       
  56 H56            8.9604     3.7095    -0.6637 H       
  57 H57            7.4447     3.0455    -1.3182 H       
  58 H58            7.3630     5.3355    -0.0434 H       
  59 H59            7.4972     4.3340     1.4247 H       
@<TRIPOS>BOND
   1    1    2 1
   2    1    3 2
   3    2    7 1
   4    2    5 1
   5    3    4 1
   6    3    8 1
   7    4    5 2
   8    5    6 1
   9    6   35 1
  10    6   36 1
  11    7   15 ar
  12    7   19 ar
  13    8    9 1
  14    8   37 1
  15    9   10 ar
  16    9   11 ar
  17   10   14 ar
  18   10   38 1
  19   11   12 ar
  20   11   39 1
  21   12   13 ar
  22   12   29 1
  23   13   14 ar
  24   13   33 1
  25   14   40 1
  26   15   16 ar
  27   16   17 ar
  28   17   18 ar
  29   17   20 1
  30   18   19 ar
  31   18   24 1
  32   19   41 1
  33   20   21 ar
  34   20   25 ar
  35   21   22 1
  36   21   28 ar
  37   22   23 1
  38   22   42 1
  39   22   43 1
  40   23   24 1
  41   23   44 1
  42   23   45 1
  43   24   46 1
  44   24   47 1
  45   25   26 ar
  46   25   48 1
  47   26   27 ar
  48   26   49 1
  49   27   28 ar
  50   27   50 1
  51   28   51 1
  52   29   30 1
  53   29   52 1
  54   29   53 1
  55   30   31 1
  56   30   54 1
  57   30   55 1
  58   31   32 1
  59   31   34 2
  60   32   33 1
  61   32   56 1
  62   32   57 1
  63   33   58 1
  64   33   59 1

#	End of record

