#	Name: ASD01410403
#	Creating user name:	WinNT
#	Creation time:	15. 06. 2019 19:17

#	Modifying user name:	WinNT
#	Modification time:	15. 06. 2019 19:17

#	Program:	/corina/corina34_cracker 3.40 0067  02.08.2006

@<TRIPOS>MOLECULE
ASD01410403
  36   38    0    0    0
SMALL
NO_CHARGES


@<TRIPOS>ATOM
   1 S1             0.0590     1.7565    -0.6122 S.3     
   2 C2             0.1427     0.0027    -0.8526 C.2     
   3 N3             1.4215    -0.3528    -0.6844 N.am    
   4 C4             2.3224     0.5713    -0.3953 C.2     
   5 C5             1.7945     1.9380    -0.2876 C.2     
   6 S6            -1.1637    -1.0382    -1.2278 S.2     
   7 O7             3.4993     0.3093    -0.2307 O.2     
   8 N8             1.8034    -1.6945    -0.8132 N.am    
   9 S9             2.2701    -2.2846    -2.2885 S.o2    
  10 O10            2.7346    -3.6084    -2.0624 O.2     
  11 O11            1.2213    -1.9731    -3.1953 O.2     
  12 C12            3.6699    -1.3478    -2.8059 C.ar    
  13 C13            4.9437    -1.7636    -2.4663 C.ar    
  14 C14            6.0419    -1.0286    -2.8722 C.ar    
  15 C15            5.8662     0.1219    -3.6180 C.ar    
  16 C16            4.5924     0.5372    -3.9584 C.ar    
  17 C17            3.4945    -0.2002    -3.5562 C.ar    
  18 C18            2.4761     3.0762    -0.0055 C.2     
  19 C19            1.6796     6.7071     0.4823 C.ar    
  20 C20            0.5353     6.8357    -0.2877 C.ar    
  21 C21            2.3159     5.4884     0.5793 C.ar    
  22 C22            1.8032     4.3792    -0.1029 C.ar    
  23 C23            0.6466     4.5171    -0.8788 C.ar    
  24 C24            0.0215     5.7424    -0.9656 C.ar    
  25 Br25          -0.3303     8.5123    -0.4136 Br      
  26 H26            1.7946    -2.2779    -0.0383 H       
  27 H27            5.0810    -2.6624    -1.8835 H       
  28 H28            7.0371    -1.3530    -2.6062 H       
  29 H29            6.7241     0.6965    -3.9346 H       
  30 H30            4.4551     1.4363    -4.5409 H       
  31 H31            2.4994     0.1223    -3.8253 H       
  32 H32            3.5135     3.0250     0.2908 H       
  33 H33            2.0768     7.5651     1.0043 H       
  34 H34            3.2081     5.3897     1.1798 H       
  35 H35            0.2453     3.6658    -1.4085 H       
  36 H36           -0.8711     5.8504    -1.5640 H       
@<TRIPOS>BOND
   1    1    2 1
   2    1    5 1
   3    2    3 am
   4    2    6 2
   5    3    4 am
   6    3    8 1
   7    4    5 1
   8    4    7 2
   9    5   18 2
  10    8    9 am
  11    8   26 1
  12    9   10 2
  13    9   11 2
  14    9   12 1
  15   12   13 ar
  16   12   17 ar
  17   13   14 ar
  18   13   27 1
  19   14   15 ar
  20   14   28 1
  21   15   16 ar
  22   15   29 1
  23   16   17 ar
  24   16   30 1
  25   17   31 1
  26   18   22 1
  27   18   32 1
  28   19   20 ar
  29   19   21 ar
  30   19   33 1
  31   20   24 ar
  32   20   25 1
  33   21   22 ar
  34   21   34 1
  35   22   23 ar
  36   23   24 ar
  37   23   35 1
  38   24   36 1

#	End of record

