#	Name: ASD08151077
#	Creating user name:	WinNT
#	Creation time:	15. 06. 2019 21:17

#	Modifying user name:	WinNT
#	Modification time:	15. 06. 2019 21:17

#	Program:	/corina/corina34_cracker 3.40 0067  02.08.2006

@<TRIPOS>MOLECULE
ASD08151077
  40   41    0    0    0
SMALL
NO_CHARGES


@<TRIPOS>ATOM
   1 C1            -0.0170     1.4053     0.0098 C.ar    
   2 C2             0.0021    -0.0041     0.0020 C.ar    
   3 C3             1.2239    -0.6831    -0.0133 C.ar    
   4 C4             2.4059     0.0229    -0.0203 C.ar    
   5 C5             2.3915     1.4222    -0.0122 C.ar    
   6 C6             1.1786     2.1104     0.0021 C.ar    
   7 C7            -1.3087     2.1316     0.0198 C.ar    
   8 C8            -2.1629     2.0241     1.1164 C.ar    
   9 C9            -3.3668     2.7034     1.1211 C.ar    
  10 C10           -3.7251     3.4896     0.0385 C.ar    
  11 C11           -2.8800     3.5992    -1.0536 C.ar    
  12 C12           -1.6711     2.9290    -1.0648 C.ar    
  13 C13           -1.2607    -0.7586     0.0105 C.2     
  14 O14           -1.2424    -1.9820     0.0038 O.co2   
  15 O15           -2.3293    -0.1628     0.0243 O.co2   
  16 C16            3.6252     2.1493    -0.0187 C.1     
  17 C17            4.6366     2.7453    -0.0240 C.1     
  18 Si18           6.2735     3.7100    -0.0325 Si      
  19 C19            5.9168     5.5385    -0.0190 C.3     
  20 C20            7.2674     3.2600     1.4776 C.3     
  21 C21            7.2413     3.2774    -1.5645 C.3     
  22 N22            1.1662     3.5905     0.0102 N.pl3   
  23 O23            1.1712     4.1938     1.0683 O.2     
  24 O24            1.1511     4.2052    -1.0412 O.2     
  25 F25           -3.2352     4.3672    -2.1068 F       
  26 F26           -4.1953     2.6000     2.1832 F       
  27 Cl27           3.9200    -0.8262    -0.0388 Cl      
  28 H28            1.2407    -1.7629    -0.0193 H       
  29 H29           -1.8847     1.4107     1.9607 H       
  30 H30           -4.6667     4.0186     0.0457 H       
  31 H31           -1.0106     3.0190    -1.9146 H       
  32 H32            5.3506     5.7916     0.8773 H       
  33 H33            6.8558     6.0919    -0.0239 H       
  34 H34            5.3353     5.8018    -0.9025 H       
  35 H35            7.4761     2.1902     1.4697 H       
  36 H36            8.2065     3.8134     1.4727 H       
  37 H37            6.7012     3.5131     2.3739 H       
  38 H38            6.6597     3.5407    -2.4480 H       
  39 H39            8.1803     3.8308    -1.5694 H       
  40 H40            7.4500     2.2076    -1.5724 H       
@<TRIPOS>BOND
   1    1    2 ar
   2    1    6 ar
   3    1    7 1
   4    2    3 ar
   5    2   13 1
   6    3    4 ar
   7    3   28 1
   8    4    5 ar
   9    4   27 1
  10    5    6 ar
  11    5   16 1
  12    6   22 1
  13    7    8 ar
  14    7   12 ar
  15    8    9 ar
  16    8   29 1
  17    9   10 ar
  18    9   26 1
  19   10   11 ar
  20   10   30 1
  21   11   12 ar
  22   11   25 1
  23   12   31 1
  24   13   14 ar
  25   13   15 ar
  26   16   17 3
  27   17   18 1
  28   18   19 1
  29   18   20 1
  30   18   21 1
  31   19   32 1
  32   19   33 1
  33   19   34 1
  34   20   35 1
  35   20   36 1
  36   20   37 1
  37   21   38 1
  38   21   39 1
  39   21   40 1
  40   22   23 2
  41   22   24 2

#	End of record

