#	Name: ASD01900541
#	Creating user name:	WinNT
#	Creation time:	15. 06. 2019 19:52

#	Modifying user name:	WinNT
#	Modification time:	15. 06. 2019 19:52

#	Program:	/corina/corina34_cracker 3.40 0067  02.08.2006

@<TRIPOS>MOLECULE
ASD01900541
  48   51    0    0    0
SMALL
NO_CHARGES


@<TRIPOS>ATOM
   1 C1             0.0592     1.5179     0.5829 C.ar    
   2 C2             0.1587     0.2613     1.1765 C.ar    
   3 C3             1.3749    -0.4023     1.1477 C.ar    
   4 C4             2.4499     0.2139     0.5260 C.ar    
   5 C5             2.2790     1.4652    -0.0439 C.ar    
   6 N6             1.1133     2.0730    -0.0023 N.ar    
   7 C7            -1.2353     2.2377     0.5997 C.2     
   8 O8            -2.2050     1.7319     1.1297 O.2     
   9 N9            -1.3378     3.4535     0.0271 N.am    
  10 C10           -2.5838     4.0849    -0.0562 C.ar    
  11 C11           -2.6714     5.4660     0.0611 C.ar    
  12 C12           -3.9046     6.0896    -0.0215 C.ar    
  13 C13           -5.0552     5.3300    -0.2220 C.ar    
  14 C14           -4.9636     3.9513    -0.3386 C.ar    
  15 C15           -3.7317     3.3307    -0.2617 C.ar    
  16 O16           -3.9929     7.4414     0.0934 O.3     
  17 C17           -2.7725     8.1561     0.2982 C.3     
  18 C18           -8.2184     6.9440    -1.0748 C.3     
  19 C19           -8.3429     8.4220    -1.4570 C.3     
  20 C20           -9.5519     9.0174    -0.7286 C.3     
  21 C21           -9.3399     8.9747     0.7849 C.3     
  22 C22           -9.2113     7.5156     1.2490 C.3     
  23 N23           -8.2017     6.8749     0.4024 N.am    
  24 C24           -7.1040     6.1977     0.7478 C.2     
  25 N25           -6.3078     5.9605    -0.3057 N.am    
  26 C26           -6.8586     6.4033    -1.4559 C.2     
  27 O27           -6.8554     5.8391     1.8821 O.2     
  28 O28           -6.3661     6.3733    -2.5634 O.2     
  29 H29           -0.6998    -0.1890     1.6526 H       
  30 H30            1.4829    -1.3773     1.5995 H       
  31 H31            3.4114    -0.2764     0.4866 H       
  32 H32            3.1144     1.9481    -0.5290 H       
  33 H33           -0.5478     3.8909    -0.3272 H       
  34 H34           -1.7783     6.0529     0.2169 H       
  35 H35           -5.8555     3.3625    -0.4937 H       
  36 H36           -3.6617     2.2572    -0.3575 H       
  37 H37           -2.1011     7.9767    -0.5415 H       
  38 H38           -2.9843     9.2227     0.3728 H       
  39 H39           -2.3013     7.8140     1.2197 H       
  40 H40           -9.0320     6.3532    -1.4958 H       
  41 H41           -7.4389     8.9538    -1.1602 H       
  42 H42           -8.4850     8.5105    -2.5340 H       
  43 H43           -9.6879    10.0520    -1.0436 H       
  44 H44          -10.4433     8.4443    -0.9832 H       
  45 H45           -8.4296     9.5177     1.0391 H       
  46 H46          -10.1902     9.4402     1.2835 H       
  47 H47           -8.8945     7.4848     2.2915 H       
  48 H48          -10.1677     7.0051     1.1362 H       
@<TRIPOS>BOND
   1    1    2 ar
   2    1    6 ar
   3    1    7 1
   4    2    3 ar
   5    2   29 1
   6    3    4 ar
   7    3   30 1
   8    4    5 ar
   9    4   31 1
  10    5    6 ar
  11    5   32 1
  12    7    8 2
  13    7    9 am
  14    9   10 1
  15    9   33 1
  16   10   11 ar
  17   10   15 ar
  18   11   12 ar
  19   11   34 1
  20   12   13 ar
  21   12   16 1
  22   13   14 ar
  23   13   25 1
  24   14   15 ar
  25   14   35 1
  26   15   36 1
  27   16   17 1
  28   17   37 1
  29   17   38 1
  30   17   39 1
  31   18   19 1
  32   18   23 1
  33   18   26 1
  34   18   40 1
  35   19   20 1
  36   19   41 1
  37   19   42 1
  38   20   21 1
  39   20   43 1
  40   20   44 1
  41   21   22 1
  42   21   45 1
  43   21   46 1
  44   22   23 1
  45   22   47 1
  46   22   48 1
  47   23   24 am
  48   24   25 am
  49   24   27 2
  50   25   26 am
  51   26   28 2

#	End of record

