#	Name: ASD03430303
#	Creating user name:	WinNT
#	Creation time:	15. 06. 2019 20:40

#	Modifying user name:	WinNT
#	Modification time:	15. 06. 2019 20:40

#	Program:	/corina/corina34_cracker 3.40 0067  02.08.2006

@<TRIPOS>MOLECULE
ASD03430303
  50   55    0    0    0
SMALL
NO_CHARGES


@<TRIPOS>ATOM
   1 C1            -0.0166     1.3737     0.0096 C.ar    
   2 C2             0.0021    -0.0041     0.0020 C.ar    
   3 C3             1.2039    -0.6791    -0.0065 C.ar    
   4 C4             2.4068     0.0233     0.0041 C.ar    
   5 C5             2.3792     1.4122     0.0041 C.ar    
   6 C6             1.1694     2.0973     0.0022 C.ar    
   7 O7             3.4724    -0.8270     0.0253 O.3     
   8 C8             1.5595    -2.1407    -0.0408 C.3     
   9 C9             3.0485    -2.1318    -0.4137 C.3     
  10 C10            0.4347    -3.8608     1.0035 C.ar    
  11 C11            1.3157    -2.8205     1.2734 C.ar    
  12 C12            0.7385    -2.9030    -1.0410 C.2     
  13 N13            0.1154    -3.8833    -0.3570 N.am    
  14 O14            0.6527    -2.6802    -2.2301 O.2     
  15 C15            1.7766    -2.6038     2.5696 C.ar    
  16 C16            1.3475    -3.4395     3.6074 C.ar    
  17 C17            0.4724    -4.4703     3.3359 C.ar    
  18 C18            0.0180    -4.6836     2.0490 C.ar    
  19 C19           -0.7905    -4.8588    -0.9685 C.3     
  20 C20           -1.1518     2.3782     0.0353 C.3     
  21 C21           -0.4177     3.6811     0.4314 C.3     
  22 O22            0.9265     3.4375    -0.0167 O.3     
  23 C23            2.7110    -1.5010     2.8471 C.2     
  24 C24           -2.2212    -4.3176    -0.9342 C.3     
  25 C25           -3.1826    -5.3370    -1.5755 C.3     
  26 C26           -4.2016    -5.6550    -0.4543 C.3     
  27 C27           -4.0543    -4.4247     0.4768 C.3     
  28 O28           -2.6412    -4.1326     0.4280 O.3     
  29 O29            3.1106    -1.3146     3.9767 O.2     
  30 H30           -0.9263    -0.5559     0.0031 H       
  31 H31            3.3068     1.9654     0.0054 H       
  32 H32            3.1784    -2.2389    -1.4907 H       
  33 H33            3.5864    -2.9141     0.1218 H       
  34 H34            1.7003    -3.2783     4.6153 H       
  35 H35            0.1401    -5.1158     4.1354 H       
  36 H36           -0.6667    -5.4950     1.8510 H       
  37 H37           -0.4927    -5.0329    -2.0025 H       
  38 H38           -0.7432    -5.7960    -0.4140 H       
  39 H39           -1.6101     2.4733    -0.9491 H       
  40 H40           -1.8952     2.1068     0.7848 H       
  41 H41           -0.8476     4.5391    -0.0855 H       
  42 H42           -0.4444     3.8264     1.5114 H       
  43 H43            3.0408    -0.8578     2.0447 H       
  44 H44           -2.2722    -3.3709    -1.4720 H       
  45 H45           -3.6869    -4.8969    -2.4358 H       
  46 H46           -2.6435    -6.2381    -1.8679 H       
  47 H47           -5.2131    -5.7207    -0.8551 H       
  48 H48           -3.9313    -6.5727     0.0681 H       
  49 H49           -4.6335    -3.5835     0.0959 H       
  50 H50           -4.3599    -4.6736     1.4930 H       
@<TRIPOS>BOND
   1    1    2 ar
   2    1    6 ar
   3    1   20 1
   4    2    3 ar
   5    2   30 1
   6    3    4 ar
   7    3    8 1
   8    4    5 ar
   9    4    7 1
  10    5    6 ar
  11    5   31 1
  12    6   22 1
  13    7    9 1
  14    8    9 1
  15    8   11 1
  16    8   12 1
  17    9   32 1
  18    9   33 1
  19   10   11 ar
  20   10   13 1
  21   10   18 ar
  22   11   15 ar
  23   12   13 am
  24   12   14 2
  25   13   19 1
  26   15   16 ar
  27   15   23 1
  28   16   17 ar
  29   16   34 1
  30   17   18 ar
  31   17   35 1
  32   18   36 1
  33   19   24 1
  34   19   37 1
  35   19   38 1
  36   20   21 1
  37   20   39 1
  38   20   40 1
  39   21   22 1
  40   21   41 1
  41   21   42 1
  42   23   29 2
  43   23   43 1
  44   24   25 1
  45   24   28 1
  46   24   44 1
  47   25   26 1
  48   25   45 1
  49   25   46 1
  50   26   27 1
  51   26   47 1
  52   26   48 1
  53   27   28 1
  54   27   49 1
  55   27   50 1

#	End of record

