#	Name: ASD01882968
#	Creating user name:	WinNT
#	Creation time:	15. 06. 2019 19:45

#	Modifying user name:	WinNT
#	Modification time:	15. 06. 2019 19:45

#	Program:	/corina/corina34_cracker 3.40 0067  02.08.2006

@<TRIPOS>MOLECULE
ASD01882968
  46   50    0    0    0
SMALL
NO_CHARGES


@<TRIPOS>ATOM
   1 C1            -0.0159     1.3220     0.0093 C.2     
   2 N2             0.0021    -0.0041     0.0020 N.2     
   3 C3             1.1523    -0.6857    -0.0126 C.2     
   4 C4             2.3835     0.0173    -0.0206 C.2     
   5 C5             2.3523     1.3664    -0.0131 C.2     
   6 N6             1.1484     2.0132     0.0019 N.pl3   
   7 O7            -1.0993     2.1290     0.0184 O.3     
   8 C8             0.8540     3.4562     0.0125 C.3     
   9 C9            -0.6831     3.5211     0.0242 C.3     
  10 O10            1.1423    -1.9071    -0.0187 O.2     
  11 C11           -1.1944     4.2379    -1.2270 C.3     
  12 O12           -2.6209     4.3119    -1.1842 O.3     
  13 C13           -5.2546     5.6561    -3.3229 C.ar    
  14 C14           -4.4954     6.1780    -4.3757 C.ar    
  15 C15           -5.3292     6.7895    -5.3943 C.2     
  16 C16           -6.6366     6.7424    -5.1450 C.2     
  17 S17           -6.9650     5.9360    -3.6237 S.3     
  18 C18           -3.0884     6.0570    -4.3287 C.ar    
  19 C19           -2.4824     5.4430    -3.2770 C.ar    
  20 C20           -3.2387     4.9235    -2.2291 C.ar    
  21 C21           -4.6142     5.0331    -2.2480 C.ar    
  22 C22           -7.6768     7.2995    -6.0360 C.ar    
  23 C23           -9.0245     7.2008    -5.6872 C.ar    
  24 C24           -9.6250     8.3432    -7.7044 C.ar    
  25 C25           -7.3148     7.9313    -7.2266 C.ar    
  26 C26           -9.9902     7.7231    -6.5228 C.ar    
  27 C27           -8.2903     8.4494    -8.0533 C.ar    
  28 C28          -10.6852     8.9105    -8.6127 C.3     
  29 H29            3.3237    -0.5140    -0.0321 H       
  30 H30            3.2727     1.9314    -0.0185 H       
  31 H31            1.2651     3.9237     0.9072 H       
  32 H32            1.2480     3.9334    -0.8848 H       
  33 H33           -1.0396     4.0220     0.9243 H       
  34 H34           -0.7793     5.2451    -1.2639 H       
  35 H35           -0.8857     3.6850    -2.1142 H       
  36 H36           -4.9217     7.2468    -6.2838 H       
  37 H37           -2.4894     6.4548    -5.1344 H       
  38 H38           -1.4060     5.3576    -3.2543 H       
  39 H39           -5.1978     4.6292    -1.4339 H       
  40 H40           -9.3109     6.7164    -4.7654 H       
  41 H41           -6.2734     8.0148    -7.5000 H       
  42 H42          -11.0335     7.6474    -6.2540 H       
  43 H43           -8.0118     8.9343    -8.9772 H       
  44 H44          -10.8799     9.9478    -8.3404 H       
  45 H45          -10.3410     8.8647    -9.6460 H       
  46 H46          -11.6015     8.3294    -8.5089 H       
@<TRIPOS>BOND
   1    1    2 2
   2    1    6 1
   3    1    7 1
   4    2    3 1
   5    3    4 1
   6    3   10 2
   7    4    5 2
   8    4   29 1
   9    5    6 1
  10    5   30 1
  11    6    8 1
  12    7    9 1
  13    8    9 1
  14    8   31 1
  15    8   32 1
  16    9   11 1
  17    9   33 1
  18   11   12 1
  19   11   34 1
  20   11   35 1
  21   12   20 1
  22   13   14 ar
  23   13   17 1
  24   13   21 ar
  25   14   15 1
  26   14   18 ar
  27   15   16 2
  28   15   36 1
  29   16   17 1
  30   16   22 1
  31   18   19 ar
  32   18   37 1
  33   19   20 ar
  34   19   38 1
  35   20   21 ar
  36   21   39 1
  37   22   23 ar
  38   22   25 ar
  39   23   26 ar
  40   23   40 1
  41   24   26 ar
  42   24   27 ar
  43   24   28 1
  44   25   27 ar
  45   25   41 1
  46   26   42 1
  47   27   43 1
  48   28   44 1
  49   28   45 1
  50   28   46 1

#	End of record

