#	Name: ASD05300029
#	Creating user name:	WinNT
#	Creation time:	15. 06. 2019 20:58

#	Modifying user name:	WinNT
#	Modification time:	15. 06. 2019 20:58

#	Program:	/corina/corina34_cracker 3.40 0067  02.08.2006

@<TRIPOS>MOLECULE
ASD05300029
  48   50    0    0    0
SMALL
NO_CHARGES


@<TRIPOS>ATOM
   1 C1             1.8060    -0.4470     3.1182 C.3     
   2 C2             0.4982    -0.5505     2.3308 C.3     
   3 N3             0.7788    -0.4208     0.8988 N.am    
   4 C4             1.5409    -1.3412     0.2754 C.2     
   5 O5             2.1330    -2.1779     0.9235 O.2     
   6 N6             1.6448    -1.3317    -1.0683 N.am    
   7 C7             2.6629    -1.9824    -1.6739 C.2     
   8 C8             2.7754    -3.3664    -1.5277 C.2     
   9 C9             3.7947    -4.0591    -2.1781 C.2     
  10 C10            4.6982    -3.3684    -2.9853 C.2     
  11 C11            4.5916    -1.9864    -3.1243 C.2     
  12 C12            3.5848    -1.2866    -2.4529 C.2     
  13 C13            3.5462     0.1756    -2.5404 C.2     
  14 C14            2.4802     0.9055    -2.6056 C.2     
  15 C15            1.1011     0.4053    -2.6121 C.2     
  16 C16            0.7288    -0.6766    -1.8140 C.2     
  17 C17           -0.6059    -1.0904    -1.7808 C.2     
  18 C18           -1.5563    -0.4542    -2.5767 C.2     
  19 C19           -1.1749     0.5977    -3.4090 C.2     
  20 C20            0.1511     1.0253    -3.4283 C.2     
  21 C21            0.2310     0.7093     0.1445 C.3     
  22 C22           -1.2868     0.5566     0.0275 C.3     
  23 C23            0.5577     2.0147     0.8725 C.3     
  24 C24           -0.1542    -1.9076     2.6018 C.3     
  25 H25            2.3170     0.4787     2.8537 H       
  26 H26            1.5883    -0.4495     4.1862 H       
  27 H27            2.4444    -1.2965     2.8756 H       
  28 H28           -0.1774     0.2461     2.6423 H       
  29 H29            2.0706    -3.9015    -0.9085 H       
  30 H30            3.8851    -5.1285    -2.0571 H       
  31 H31            5.4804    -3.9046    -3.5021 H       
  32 H32            5.2897    -1.4536    -3.7529 H       
  33 H33            4.4950     0.6913    -2.5511 H       
  34 H34            2.6173     1.9754    -2.6595 H       
  35 H35           -0.9012    -1.9055    -1.1367 H       
  36 H36           -2.5870    -0.7757    -2.5495 H       
  37 H37           -1.9064     1.0807    -4.0398 H       
  38 H38            0.4449     1.8401    -4.0734 H       
  39 H39            0.6721     0.7288    -0.8521 H       
  40 H40           -1.5331    -0.4872    -0.1668 H       
  41 H41           -1.7567     0.8736     0.9586 H       
  42 H42           -1.6520     1.1748    -0.7926 H       
  43 H43            1.6382     2.1563     0.8974 H       
  44 H44            0.0940     2.8496     0.3471 H       
  45 H45            0.1738     1.9683     1.8916 H       
  46 H46           -0.2972    -2.0342     3.6750 H       
  47 H47           -1.1201    -1.9534     2.0987 H       
  48 H48            0.4898    -2.7021     2.2249 H       
@<TRIPOS>BOND
   1    1    2 1
   2    1   25 1
   3    1   26 1
   4    1   27 1
   5    2    3 1
   6    2   24 1
   7    2   28 1
   8    3    4 am
   9    3   21 1
  10    4    5 2
  11    4    6 am
  12    6    7 1
  13    6   16 1
  14    7    8 2
  15    7   12 1
  16    8    9 1
  17    8   29 1
  18    9   10 2
  19    9   30 1
  20   10   11 1
  21   10   31 1
  22   11   12 2
  23   11   32 1
  24   12   13 1
  25   13   14 2
  26   13   33 1
  27   14   15 1
  28   14   34 1
  29   15   16 2
  30   15   20 1
  31   16   17 1
  32   17   18 2
  33   17   35 1
  34   18   19 1
  35   18   36 1
  36   19   20 2
  37   19   37 1
  38   20   38 1
  39   21   22 1
  40   21   23 1
  41   21   39 1
  42   22   40 1
  43   22   41 1
  44   22   42 1
  45   23   43 1
  46   23   44 1
  47   23   45 1
  48   24   46 1
  49   24   47 1
  50   24   48 1

#	End of record

