#	Name: ASD01911956
#	Creating user name:	WinNT
#	Creation time:	15. 06. 2019 19:58

#	Modifying user name:	WinNT
#	Modification time:	15. 06. 2019 19:58

#	Program:	/corina/corina34_cracker 3.40 0067  02.08.2006

@<TRIPOS>MOLECULE
ASD01911956
  35   37    0    0    0
SMALL
NO_CHARGES


@<TRIPOS>ATOM
   1 C1            -1.3366     1.1652     1.7441 C.ar    
   2 C2            -1.1801    -0.2034     1.5500 C.ar    
   3 C3            -1.1124    -1.0247     2.6708 C.ar    
   4 N4            -1.1985    -0.4789     3.8727 N.ar    
   5 C5            -1.3464     0.8229     4.0154 C.ar    
   6 N6            -1.4148     1.6337     2.9787 N.ar    
   7 O7            -1.0961    -0.7248     0.2977 O.3     
   8 C8            -0.9393    -2.0691     0.1755 C.ar    
   9 C9             0.4658    -3.9760    -0.2567 C.ar    
  10 C10           -0.6288    -4.8215    -0.0734 C.ar    
  11 C11           -1.8724    -4.2866     0.2278 C.ar    
  12 C12           -2.0270    -2.9121     0.3520 C.ar    
  13 N13           -2.9709    -5.1326     0.4115 N.am    
  14 C14           -4.2051    -4.7203     0.0605 C.2     
  15 C15           -5.3813    -5.5725     0.3513 C.ar    
  16 O16           -4.3530    -3.6494    -0.4947 O.2     
  17 N17           -5.2133    -6.7412     0.9579 N.ar    
  18 C18           -6.2304    -7.5282     1.2345 C.ar    
  19 C19           -7.5241    -7.1632     0.9003 C.ar    
  20 C20           -7.7456    -5.9498     0.2650 C.ar    
  21 C21           -6.6548    -5.1382    -0.0089 C.ar    
  22 C22            0.3050    -2.5950    -0.1308 C.ar    
  23 Br23          -9.4952    -5.4116    -0.2094 Br      
  24 C24            1.7519    -4.5237    -0.5674 C.1     
  25 N25            2.7722    -4.9582    -0.8138 N.1     
  26 H26           -1.3889     1.8360     0.8992 H       
  27 H27           -0.9916    -2.0923     2.5613 H       
  28 H28           -1.4139     1.2371     5.0105 H       
  29 H29           -0.5079    -5.8907    -0.1662 H       
  30 H30           -2.9965    -2.4983     0.5870 H       
  31 H31           -2.8444    -6.0160     0.7915 H       
  32 H32           -6.0543    -8.4722     1.7288 H       
  33 H33           -8.3521    -7.8168     1.1316 H       
  34 H34           -6.7899    -4.1870    -0.5023 H       
  35 H35            1.1499    -1.9374    -0.2723 H       
@<TRIPOS>BOND
   1    1    2 ar
   2    1    6 ar
   3    1   26 1
   4    2    3 ar
   5    2    7 1
   6    3    4 ar
   7    3   27 1
   8    4    5 ar
   9    5    6 ar
  10    5   28 1
  11    7    8 1
  12    8   22 ar
  13    8   12 ar
  14    9   10 ar
  15    9   24 1
  16    9   22 ar
  17   10   11 ar
  18   10   29 1
  19   11   12 ar
  20   11   13 1
  21   12   30 1
  22   13   14 am
  23   13   31 1
  24   14   15 1
  25   14   16 2
  26   15   17 ar
  27   15   21 ar
  28   17   18 ar
  29   18   19 ar
  30   18   32 1
  31   19   20 ar
  32   19   33 1
  33   20   21 ar
  34   20   23 1
  35   21   34 1
  36   22   35 1
  37   24   25 3

#	End of record

