#	Name: ASD03240347
#	Creating user name:	WinNT
#	Creation time:	15. 06. 2019 20:34

#	Modifying user name:	WinNT
#	Modification time:	15. 06. 2019 20:34

#	Program:	/corina/corina34_cracker 3.40 0067  02.08.2006

@<TRIPOS>MOLECULE
ASD03240347
  56   59    0    0    0
SMALL
NO_CHARGES


@<TRIPOS>ATOM
   1 O1             0.0091     1.3488    -0.2455 O.3     
   2 C2             1.2326    -0.6866    -0.0325 C.ar    
   3 C3             2.4473     0.0979     0.2403 C.2     
   4 C4             2.3242     1.5115     0.2456 C.2     
   5 C5             1.1097     2.0793     0.0026 C.2     
   6 C6             0.0292    -0.0003    -0.2710 C.ar    
   7 C7            -1.1265    -0.7217    -0.5299 C.ar    
   8 C8            -1.0897    -2.1069    -0.5518 C.ar    
   9 C9             0.0997    -2.7885    -0.3158 C.ar    
  10 C10            1.2622    -2.0874    -0.0563 C.ar    
  11 C11            0.9987     3.5496     0.0118 C.ar    
  12 C12            1.9269     4.3266    -0.6870 C.ar    
  13 C13            1.8211     5.7009    -0.6776 C.ar    
  14 C14            0.7946     6.3164     0.0250 C.ar    
  15 C15           -0.1346     5.5480     0.7241 C.ar    
  16 C16           -0.0384     4.1696     0.7145 C.ar    
  17 O17           -1.1388     6.1547     1.4118 O.3     
  18 O18            0.6955     7.6715     0.0317 O.3     
  19 O19            3.5190    -0.4462     0.4542 O.2     
  20 O20            2.4237    -2.7506     0.1737 O.3     
  21 O21           -2.2257    -2.8055    -0.8056 O.3     
  22 C22           -2.1225    -4.2308    -0.8143 C.3     
  23 O23           -1.8989    -4.7006     0.5166 O.3     
  24 C24           -1.7543    -6.1186     0.6182 C.3     
  25 C25           -3.0388    -6.7971     0.1350 C.3     
  26 C26           -3.3265    -6.3613    -1.3051 C.3     
  27 C27           -3.4218    -4.8334    -1.3551 C.3     
  28 O28           -2.8758    -8.2160     0.1810 O.3     
  29 C29           -1.4923    -6.5016     2.0761 C.3     
  30 O30           -4.5625    -6.9319    -1.7393 O.3     
  31 O31           -0.2357    -5.9628     2.4918 O.3     
  32 O32           -3.6180    -4.4111    -2.7061 O.3     
  33 O33            3.4104     2.2938     0.4913 O.3     
  34 C34           -2.0552     5.3057     2.1056 C.3     
  35 H35           -2.0561    -0.2037    -0.7143 H       
  36 H36            0.1147    -3.8682    -0.3350 H       
  37 H37            2.7271     3.8503    -1.2340 H       
  38 H38            2.5389     6.3001    -1.2179 H       
  39 H39           -0.7603     3.5729     1.2522 H       
  40 H40            0.1544     8.0299    -0.6852 H       
  41 H41            2.9421    -2.9243    -0.6239 H       
  42 H42           -1.2900    -4.5310    -1.4505 H       
  43 H43           -0.9170    -6.4438     0.0007 H       
  44 H44           -3.8693    -6.5039     0.7771 H       
  45 H45           -2.5195    -6.6978    -1.9560 H       
  46 H46           -4.2601    -4.5005    -0.7431 H       
  47 H47           -3.6530    -8.7109    -0.1122 H       
  48 H48           -2.2861    -6.0996     2.7057 H       
  49 H49           -1.4704    -7.5875     2.1682 H       
  50 H50           -4.8076    -6.6971    -2.6447 H       
  51 H51           -0.0041    -6.1669     3.4082 H       
  52 H52           -3.6874    -3.4525    -2.8125 H       
  53 H53            4.2246     1.7973     0.6516 H       
  54 H54           -2.8041     5.9155     2.6109 H       
  55 H55           -2.5467     4.6428     1.3935 H       
  56 H56           -1.5139     4.7112     2.8415 H       
@<TRIPOS>BOND
   1    1    6 1
   2    1    5 1
   3    2    3 1
   4    2    6 ar
   5    2   10 ar
   6    3    4 1
   7    3   19 2
   8    4    5 2
   9    4   33 1
  10    5   11 1
  11    6    7 ar
  12    7    8 ar
  13    7   35 1
  14    8    9 ar
  15    8   21 1
  16    9   10 ar
  17    9   36 1
  18   10   20 1
  19   11   12 ar
  20   11   16 ar
  21   12   13 ar
  22   12   37 1
  23   13   14 ar
  24   13   38 1
  25   14   15 ar
  26   14   18 1
  27   15   16 ar
  28   15   17 1
  29   16   39 1
  30   17   34 1
  31   18   40 1
  32   20   41 1
  33   21   22 1
  34   22   23 1
  35   22   27 1
  36   22   42 1
  37   23   24 1
  38   24   25 1
  39   24   29 1
  40   24   43 1
  41   25   26 1
  42   25   28 1
  43   25   44 1
  44   26   27 1
  45   26   30 1
  46   26   45 1
  47   27   32 1
  48   27   46 1
  49   28   47 1
  50   29   31 1
  51   29   48 1
  52   29   49 1
  53   30   50 1
  54   31   51 1
  55   32   52 1
  56   33   53 1
  57   34   54 1
  58   34   55 1
  59   34   56 1

#	End of record

