#	Name: ASD09890093
#	Creating user name:	WinNT
#	Creation time:	15. 06. 2019 21:24

#	Modifying user name:	WinNT
#	Modification time:	15. 06. 2019 21:24

#	Program:	/corina/corina34_cracker 3.40 0067  02.08.2006

@<TRIPOS>MOLECULE
ASD09890093
  58   62    0    0    0
SMALL
NO_CHARGES


@<TRIPOS>ATOM
   1 C1            -0.0176     1.3672     0.0649 C.2     
   2 N2            -0.0056    -0.0001     0.0347 N.pl3   
   3 C3            -1.2997    -0.4349     0.1195 C.2     
   4 N4            -2.0758     0.6196     0.1986 N.2     
   5 N5            -1.2619     1.7594     0.1691 N.2     
   6 S6            -1.8305    -2.1151     0.1216 S.3     
   7 C7            -3.6339    -1.9731     0.2561 C.3     
   8 C8             1.1331    -0.8131    -0.0663 C.ar    
   9 C9             2.0792    -0.8330     0.9544 C.ar    
  10 C10            3.1872    -1.6522     0.8090 C.ar    
  11 C11            3.3160    -2.4166    -0.3354 C.ar    
  12 N12            2.4011    -2.3749    -1.2844 N.ar    
  13 C13            1.3298    -1.6139    -1.1831 C.ar    
  14 C14           -4.2818    -3.3645     0.1466 C.3     
  15 C15           -5.0372    -3.6043     1.4702 C.3     
  16 C16           -5.3133    -2.1802     2.0133 C.3     
  17 C17           -4.0182    -1.4159     1.6423 C.3     
  18 O18            1.0701     2.1752     0.0035 O.3     
  19 C19            0.8651     3.5143    -0.0918 C.ar    
  20 C20           -0.4196     4.0068    -0.2839 C.ar    
  21 C21           -0.6310     5.3653    -0.3815 C.ar    
  22 C22            0.4468     6.2460    -0.2868 C.ar    
  23 C23            1.7357     5.7482    -0.0935 C.ar    
  24 C24            1.9397     4.3889     0.0085 C.ar    
  25 C25            0.2233     7.7067    -0.3918 C.ar    
  26 C26            1.3038     8.5859    -0.2967 C.ar    
  27 C27            1.1001     9.9329    -0.3937 C.ar    
  28 C28           -0.1937    10.4321    -0.5887 C.ar    
  29 C29           -1.2759     9.5484    -0.6838 C.ar    
  30 C30           -1.0668     8.2019    -0.5915 C.ar    
  31 C31           -0.4154    11.8808    -0.6928 C.2     
  32 O32            0.5225    12.6454    -0.6099 O.2     
  33 C33           -1.8082    12.4168    -0.9026 C.3     
  34 O34           -1.7643    13.8435    -0.9709 O.3     
  35 H35           -4.0163    -1.3204    -0.5286 H       
  36 H36            1.9529    -0.2247     1.8378 H       
  37 H37            3.9417    -1.6926     1.5807 H       
  38 H38            4.1778    -3.0566    -0.4542 H       
  39 H39            0.6020    -1.6065    -1.9810 H       
  40 H40           -4.9793    -3.3868    -0.6907 H       
  41 H41           -3.5126    -4.1251     0.0127 H       
  42 H42           -5.9738    -4.1302     1.2850 H       
  43 H43           -4.4153    -4.1648     2.1681 H       
  44 H44           -6.1778    -1.7387     1.5176 H       
  45 H45           -5.4543    -2.1996     3.0939 H       
  46 H46           -3.2318    -1.6230     2.3681 H       
  47 H47           -4.2111    -0.3448     1.5828 H       
  48 H48           -1.2536     3.3245    -0.3571 H       
  49 H49           -1.6299     5.7475    -0.5315 H       
  50 H50            2.5722     6.4274    -0.0198 H       
  51 H51            2.9372     4.0029     0.1586 H       
  52 H52            2.3014     8.2005    -0.1460 H       
  53 H53            1.9361    10.6126    -0.3197 H       
  54 H54           -2.2746     9.9312    -0.8338 H       
  55 H55           -1.9011     7.5200    -0.6648 H       
  56 H56           -2.2134    12.0208    -1.8338 H       
  57 H57           -2.4438    12.1122    -0.0711 H       
  58 H58           -2.6277    14.2576    -1.1052 H       
@<TRIPOS>BOND
   1    1    2 1
   2    1   18 1
   3    1    5 2
   4    2    3 1
   5    2    8 1
   6    3    4 2
   7    3    6 1
   8    4    5 1
   9    6    7 1
  10    7   14 1
  11    7   17 1
  12    7   35 1
  13    8    9 ar
  14    8   13 ar
  15    9   10 ar
  16    9   36 1
  17   10   11 ar
  18   10   37 1
  19   11   12 ar
  20   11   38 1
  21   12   13 ar
  22   13   39 1
  23   14   15 1
  24   14   40 1
  25   14   41 1
  26   15   16 1
  27   15   42 1
  28   15   43 1
  29   16   17 1
  30   16   44 1
  31   16   45 1
  32   17   46 1
  33   17   47 1
  34   18   19 1
  35   19   20 ar
  36   19   24 ar
  37   20   21 ar
  38   20   48 1
  39   21   22 ar
  40   21   49 1
  41   22   23 ar
  42   22   25 1
  43   23   24 ar
  44   23   50 1
  45   24   51 1
  46   25   26 ar
  47   25   30 ar
  48   26   27 ar
  49   26   52 1
  50   27   28 ar
  51   27   53 1
  52   28   29 ar
  53   28   31 1
  54   29   30 ar
  55   29   54 1
  56   30   55 1
  57   31   32 2
  58   31   33 1
  59   33   34 1
  60   33   56 1
  61   33   57 1
  62   34   58 1

#	End of record

