#	Name: ASD06170114
#	Creating user name:	WinNT
#	Creation time:	15. 06. 2019 21:05

#	Modifying user name:	WinNT
#	Modification time:	15. 06. 2019 21:05

#	Program:	/corina/corina34_cracker 3.40 0067  02.08.2006

@<TRIPOS>MOLECULE
ASD06170114
  65   69    0    0    0
SMALL
NO_CHARGES


@<TRIPOS>ATOM
   1 N1             0.3123     1.9986    -0.3500 N.pl3   
   2 N2             0.1049     0.7236     0.1846 N.am    
   3 C3             1.3013     0.1996     0.5227 C.2     
   4 C4             2.3132     1.2106     0.1771 C.2     
   5 C5             1.6278     2.2862    -0.3534 C.2     
   6 C6             3.7651     1.0984     0.3604 C.2     
   7 O7             4.4928     2.0158     0.0296 O.2     
   8 N8             4.2923    -0.0208     0.8952 N.am    
   9 C9            -0.7442     2.8874    -0.8398 C.3     
  10 C10           -1.1318     3.8749     0.2627 C.3     
  11 C11           -2.2352     4.8031    -0.2488 C.3     
  12 C12           -1.1353     0.0966     0.3432 C.ar    
  13 C13           -2.0360     0.0585    -0.7134 C.ar    
  14 C14           -3.2595    -0.5619    -0.5537 C.ar    
  15 C15           -3.5884    -1.1443     0.6566 C.ar    
  16 C16           -2.6941    -1.1077     1.7107 C.ar    
  17 C17           -1.4664    -0.4943     1.5556 C.ar    
  18 O18            1.5039    -0.8940     1.0165 O.2     
  19 C19            5.6766    -0.1844     0.9458 C.ar    
  20 C20            6.5039     0.9309     0.8736 C.ar    
  21 C21            7.8751     0.7573     0.9247 C.ar    
  22 C22            8.3760    -0.5365     1.0473 C.ar    
  23 C23            7.4910    -1.6006     1.1136 C.ar    
  24 N24            6.1880    -1.3987     1.0674 N.ar    
  25 O25            9.7172    -0.7528     1.1007 O.3     
  26 N26           11.5863    -0.2952     4.7485 N.ar    
  27 C27           10.2977    -0.0739     4.6348 C.ar    
  28 C28            9.6342    -0.2176     3.4230 C.ar    
  29 C29           10.3387    -0.6042     2.2963 C.ar    
  30 C30           11.7259    -0.8398     2.4304 C.ar    
  31 C31           12.5060    -1.2342     1.3336 C.ar    
  32 C32           13.8394    -1.4535     1.4947 C.ar    
  33 C33           14.4451    -1.2902     2.7439 C.ar    
  34 C34           13.7065    -0.9045     3.8396 C.ar    
  35 C35           12.3290    -0.6714     3.7007 C.ar    
  36 O36           15.7779    -1.5153     2.8782 O.3     
  37 C37           16.4901    -1.9137     1.7051 C.3     
  38 C38            2.2480     3.5657    -0.8527 C.3     
  39 H39            3.7090    -0.7125     1.2449 H       
  40 H40           -0.3829     3.4368    -1.7091 H       
  41 H41           -1.6156     2.2958    -1.1204 H       
  42 H42           -1.4931     3.3255     1.1320 H       
  43 H43           -0.2604     4.4665     0.5433 H       
  44 H44           -2.5113     5.5067     0.5366 H       
  45 H45           -1.8738     5.3526    -1.1181 H       
  46 H46           -3.1066     4.2115    -0.5294 H       
  47 H47           -1.7800     0.5137    -1.6587 H       
  48 H48           -3.9603    -0.5919    -1.3749 H       
  49 H49           -4.5460    -1.6285     0.7791 H       
  50 H50           -2.9542    -1.5628     2.6549 H       
  51 H51           -0.7664    -0.4702     2.3778 H       
  52 H52            6.0811     1.9201     0.7784 H       
  53 H53            8.5418     1.6052     0.8704 H       
  54 H54            7.8721    -2.6067     1.2084 H       
  55 H55            9.7377     0.2279     5.5075 H       
  56 H56            8.5727    -0.0288     3.3605 H       
  57 H57           12.0495    -1.3640     0.3635 H       
  58 H58           14.4365    -1.7574     0.6477 H       
  59 H59           14.1840    -0.7812     4.8004 H       
  60 H60           16.0723    -2.8463     1.3257 H       
  61 H61           16.3991    -1.1387     0.9441 H       
  62 H62           17.5419    -2.0601     1.9508 H       
  63 H63            2.3106     4.2827    -0.0342 H       
  64 H64            3.2486     3.3603    -1.2331 H       
  65 H65            1.6333     3.9796    -1.6521 H       
@<TRIPOS>BOND
   1    1    2 1
   2    1    5 1
   3    1    9 1
   4    2    3 am
   5    2   12 1
   6    3    4 1
   7    3   18 2
   8    4    5 2
   9    4    6 1
  10    5   38 1
  11    6    7 2
  12    6    8 am
  13    8   19 1
  14    8   39 1
  15    9   10 1
  16    9   40 1
  17    9   41 1
  18   10   11 1
  19   10   42 1
  20   10   43 1
  21   11   44 1
  22   11   45 1
  23   11   46 1
  24   12   13 ar
  25   12   17 ar
  26   13   14 ar
  27   13   47 1
  28   14   15 ar
  29   14   48 1
  30   15   16 ar
  31   15   49 1
  32   16   17 ar
  33   16   50 1
  34   17   51 1
  35   19   20 ar
  36   19   24 ar
  37   20   21 ar
  38   20   52 1
  39   21   22 ar
  40   21   53 1
  41   22   23 ar
  42   22   25 1
  43   23   24 ar
  44   23   54 1
  45   25   29 1
  46   26   27 ar
  47   26   35 ar
  48   27   28 ar
  49   27   55 1
  50   28   29 ar
  51   28   56 1
  52   29   30 ar
  53   30   31 ar
  54   30   35 ar
  55   31   32 ar
  56   31   57 1
  57   32   33 ar
  58   32   58 1
  59   33   34 ar
  60   33   36 1
  61   34   35 ar
  62   34   59 1
  63   36   37 1
  64   37   60 1
  65   37   61 1
  66   37   62 1
  67   38   63 1
  68   38   64 1
  69   38   65 1

#	End of record

