#	Name: ASD00241026
#	Creating user name:	WinNT
#	Creation time:	15. 06. 2019 18:33

#	Modifying user name:	WinNT
#	Modification time:	15. 06. 2019 18:33

#	Program:	/corina/corina34_cracker 3.40 0067  02.08.2006

@<TRIPOS>MOLECULE
ASD00241026
  74   77    0    0    0
SMALL
NO_CHARGES


@<TRIPOS>ATOM
   1 N1            -0.0452     1.7285     0.5635 N.ar    
   2 C2            -0.1308     0.4202     0.7193 C.ar    
   3 N3             0.9245    -0.3663     0.6839 N.ar    
   4 C4             2.1375     0.1375     0.4862 C.ar    
   5 C5             2.2811     1.5258     0.3147 C.ar    
   6 C6             1.1258     2.3224     0.3607 C.ar    
   7 N7             3.4021    -0.3871     0.3964 N.pl3   
   8 C8             4.2602     0.6496     0.1804 C.2     
   9 N9             3.6008     1.7707     0.1328 N.2     
  10 C10            3.7637    -1.8021     0.5117 C.3     
  11 O11            5.1446    -1.9371     0.9127 O.3     
  12 C12            5.5256    -3.2740     0.5213 C.3     
  13 C13            4.8701    -3.4822    -0.8620 C.3     
  14 C14            3.6844    -2.4916    -0.8684 C.3     
  15 C15            7.0477    -3.3834     0.4113 C.3     
  16 F16            3.8354    -1.5529    -1.8947 F       
  17 O17            4.4012    -4.8253    -0.9968 O.3     
  18 N18            7.6474    -3.2263     1.7431 N.3     
  19 C19            7.2792    -4.3447     2.6215 C.3     
  20 C20            9.1070    -3.0883     1.6502 C.3     
  21 C21            9.6600    -2.6864     2.9932 C.2     
  22 C22           10.6420    -3.3688     3.5281 C.2     
  23 C23           11.1781    -4.5915     2.8291 C.3     
  24 N24            1.2051     3.6985     0.1976 N.am    
  25 C25            0.0862     4.4483     0.2446 C.2     
  26 C26            0.3292     8.6592    -0.2540 C.ar    
  27 C27           -0.9003     8.0603    -0.0438 C.ar    
  28 C28           -0.9863     6.6932     0.1190 C.ar    
  29 C29            0.1707     5.9136     0.0709 C.ar    
  30 C30            1.4080     6.5242    -0.1415 C.ar    
  31 C31            1.4799     7.8924    -0.3024 C.ar    
  32 O32           -0.9924     3.9195     0.4298 O.2     
  33 N33           12.6328    -4.4795     2.6962 N.am    
  34 O34           14.6695    -5.3610     1.9761 O.3     
  35 C35           15.3581    -6.4589     1.3213 C.3     
  36 C36           14.8259    -6.6168    -0.1045 C.3     
  37 C37           16.8589    -6.1650     1.2758 C.3     
  38 C38           15.1150    -7.7518     2.1025 C.3     
  39 C39           13.3326    -5.4640     2.0982 C.2     
  40 O40           12.7571    -6.4444     1.6694 O.2     
  41 H41           -1.1029    -0.0213     0.8823 H       
  42 H42            5.3299     0.5547     0.0659 H       
  43 H43            3.1104    -2.3030     1.2261 H       
  44 H44            5.1426    -4.0024     1.2361 H       
  45 H45            5.5740    -3.2406    -1.6584 H       
  46 H46            2.7405    -3.0264    -0.9745 H       
  47 H47            7.3135    -4.3598     0.0061 H       
  48 H48            7.4213    -2.6016    -0.2500 H       
  49 H49            3.9804    -5.0115    -1.8473 H       
  50 H50            7.6330    -5.2796     2.1871 H       
  51 H51            7.7364    -4.2032     3.6009 H       
  52 H52            6.1951    -4.3809     2.7285 H       
  53 H53            9.5434    -4.0402     1.3477 H       
  54 H54            9.3535    -2.3247     0.9125 H       
  55 H55            9.2468    -1.8357     3.5147 H       
  56 H56           11.0672    -3.0553     4.4700 H       
  57 H57           10.9339    -5.4797     3.4119 H       
  58 H58           10.7279    -4.6711     1.8396 H       
  59 H59            2.0659     4.1205     0.0498 H       
  60 H60            0.3904     9.7294    -0.3854 H       
  61 H61           -1.7947     8.6647    -0.0068 H       
  62 H62           -1.9466     6.2270     0.2834 H       
  63 H63            2.3070     5.9268    -0.1794 H       
  64 H64            2.4364     8.3661    -0.4668 H       
  65 H65           13.0922    -3.6968     3.0385 H       
  66 H66           14.9991    -5.6958    -0.6611 H       
  67 H67           15.3428    -7.4410    -0.5960 H       
  68 H68           13.7567    -6.8262    -0.0721 H       
  69 H69           17.2380    -6.0525     2.2915 H       
  70 H70           17.3758    -6.9892     0.7843 H       
  71 H71           17.0321    -5.2439     0.7193 H       
  72 H72           14.0458    -7.9612     2.1349 H       
  73 H73           15.6319    -8.5760     1.6109 H       
  74 H74           15.4941    -7.6393     3.1182 H       
@<TRIPOS>BOND
   1    1    2 ar
   2    1    6 ar
   3    2    3 ar
   4    2   41 1
   5    3    4 ar
   6    4    5 ar
   7    4    7 1
   8    5    6 ar
   9    5    9 1
  10    6   24 1
  11    7    8 1
  12    7   10 1
  13    8    9 2
  14    8   42 1
  15   10   11 1
  16   10   14 1
  17   10   43 1
  18   11   12 1
  19   12   13 1
  20   12   15 1
  21   12   44 1
  22   13   14 1
  23   13   17 1
  24   13   45 1
  25   14   16 1
  26   14   46 1
  27   15   18 1
  28   15   47 1
  29   15   48 1
  30   17   49 1
  31   18   19 1
  32   18   20 1
  33   19   50 1
  34   19   51 1
  35   19   52 1
  36   20   21 1
  37   20   53 1
  38   20   54 1
  39   21   22 2
  40   21   55 1
  41   22   23 1
  42   22   56 1
  43   23   33 1
  44   23   57 1
  45   23   58 1
  46   24   25 am
  47   24   59 1
  48   25   32 2
  49   25   29 1
  50   26   27 ar
  51   26   31 ar
  52   26   60 1
  53   27   28 ar
  54   27   61 1
  55   28   29 ar
  56   28   62 1
  57   29   30 ar
  58   30   31 ar
  59   30   63 1
  60   31   64 1
  61   33   39 am
  62   33   65 1
  63   34   35 1
  64   34   39 1
  65   35   36 1
  66   35   37 1
  67   35   38 1
  68   36   66 1
  69   36   67 1
  70   36   68 1
  71   37   69 1
  72   37   70 1
  73   37   71 1
  74   38   72 1
  75   38   73 1
  76   38   74 1
  77   39   40 2

#	End of record

