#	Name: ASD01230502
#	Creating user name:	WinNT
#	Creation time:	15. 06. 2019 19:14

#	Modifying user name:	WinNT
#	Modification time:	15. 06. 2019 19:14

#	Program:	/corina/corina34_cracker 3.40 0067  02.08.2006

@<TRIPOS>MOLECULE
ASD01230502
  40   42    0    0    0
SMALL
NO_CHARGES


@<TRIPOS>ATOM
   1 S1            -0.0294     1.6472    -0.0234 S.o2    
   2 N2            -0.0032    -0.0072    -0.0200 N.am    
   3 C3             1.0207    -0.6916    -0.4694 C.2     
   4 N4             2.1669    -0.1573    -0.9853 N.pl3   
   5 C5             2.3888     1.2790    -1.1715 C.3     
   6 C6             1.7402     2.0756    -0.0357 C.3     
   7 C7             0.8959    -2.1630    -0.3981 C.2     
   8 C8             1.9493    -2.9467    -0.8165 C.2     
   9 C9             3.1085    -2.3248    -1.3004 C.2     
  10 C10            3.1923    -0.9852    -1.3697 C.2     
  11 C11           -0.3445    -2.7865     0.1165 C.ar    
  12 C12           -0.3159    -3.5298     1.2972 C.ar    
  13 C13           -1.4739    -4.1087     1.7738 C.ar    
  14 C14           -2.6672    -3.9525     1.0790 C.ar    
  15 C15           -2.6986    -3.2138    -0.0954 C.ar    
  16 C16           -1.5458    -2.6274    -0.5747 C.ar    
  17 O17           -3.8063    -4.5248     1.5506 O.3     
  18 C18           -5.0183    -4.2267     0.8548 C.3     
  19 C19           -5.1723    -5.1792    -0.3326 C.3     
  20 C20           -6.2064    -4.3980     1.8035 C.3     
  21 Cl21          -1.4402    -5.0337     3.2424 Cl      
  22 O22           -0.6406     1.9926    -1.2589 O.2     
  23 O23           -0.6247     1.9980     1.2183 O.2     
  24 H24            3.4603     1.4785    -1.1841 H       
  25 H25            1.9548     1.5895    -2.1219 H       
  26 H26            1.8625     3.1439    -0.2143 H       
  27 H27            2.1950     1.8027     0.9165 H       
  28 H28            1.8825    -4.0237    -0.7725 H       
  29 H29            3.9440    -2.9292    -1.6215 H       
  30 H30            4.1037    -0.5419    -1.7429 H       
  31 H31            0.6115    -3.6519     1.8370 H       
  32 H32           -3.6278    -3.0945    -0.6327 H       
  33 H33           -1.5722    -2.0493    -1.4866 H       
  34 H34           -4.9867    -3.1986     0.4941 H       
  35 H35           -6.0968    -4.9518    -0.8633 H       
  36 H36           -4.3259    -5.0572    -1.0084 H       
  37 H37           -5.2039    -6.2073     0.0282 H       
  38 H38           -6.0967    -3.7193     2.6494 H       
  39 H39           -7.1309    -4.1706     1.2728 H       
  40 H40           -6.2380    -5.4261     2.1642 H       
@<TRIPOS>BOND
   1    1    2 am
   2    1    6 1
   3    1   22 2
   4    1   23 2
   5    2    3 2
   6    3    4 1
   7    3    7 1
   8    4    5 1
   9    4   10 1
  10    5    6 1
  11    5   24 1
  12    5   25 1
  13    6   26 1
  14    6   27 1
  15    7    8 2
  16    7   11 1
  17    8    9 1
  18    8   28 1
  19    9   10 2
  20    9   29 1
  21   10   30 1
  22   11   12 ar
  23   11   16 ar
  24   12   13 ar
  25   12   31 1
  26   13   14 ar
  27   13   21 1
  28   14   15 ar
  29   14   17 1
  30   15   16 ar
  31   15   32 1
  32   16   33 1
  33   17   18 1
  34   18   19 1
  35   18   20 1
  36   18   34 1
  37   19   35 1
  38   19   36 1
  39   19   37 1
  40   20   38 1
  41   20   39 1
  42   20   40 1

#	End of record

