#	Name: ASD01411049
#	Creating user name:	WinNT
#	Creation time:	15. 06. 2019 19:19

#	Modifying user name:	WinNT
#	Modification time:	15. 06. 2019 19:19

#	Program:	/corina/corina34_cracker 3.40 0067  02.08.2006

@<TRIPOS>MOLECULE
ASD01411049
  27   28    0    0    0
SMALL
NO_CHARGES


@<TRIPOS>ATOM
   1 C1            -0.1807     1.7699    -0.8453 C.2     
   2 S2            -0.0919     0.0138    -0.6237 S.3     
   3 C3            -1.8204    -0.1712    -0.2655 C.2     
   4 C4            -2.3504     1.1957    -0.3492 C.2     
   5 N5            -1.4548     2.1238    -0.6424 N.am    
   6 O6            -3.5239     1.4556    -0.1585 O.2     
   7 S7             1.1176     2.8149    -1.2370 S.2     
   8 C8            -2.4962    -1.3125     0.0198 C.2     
   9 C9            -1.8256    -2.6140    -0.1042 C.ar    
  10 C10           -1.8572     3.5280    -0.7546 C.3     
  11 C11           -2.3255    -3.7302     0.5766 C.ar    
  12 C12           -1.6919    -4.9476     0.4554 C.ar    
  13 C13           -0.5612    -5.0686    -0.3385 C.ar    
  14 C14           -0.0605    -3.9668    -1.0158 C.ar    
  15 C15           -0.6873    -2.7446    -0.9083 C.ar    
  16 F16            0.0557    -6.2651    -0.4521 F       
  17 C17           -1.7342     4.1949     0.5912 C.2     
  18 O18           -1.3499     3.5622     1.5461 O.2     
  19 O19           -2.0517     5.4918     0.7291 O.3     
  20 H20           -3.5271    -1.2644     0.3381 H       
  21 H21           -1.2114     4.0348    -1.4717 H       
  22 H22           -2.8914     3.5835    -1.0945 H       
  23 H23           -3.2055    -3.6373     1.1957 H       
  24 H24           -2.0765    -5.8097     0.9801 H       
  25 H25            0.8205    -4.0681    -1.6324 H       
  26 H26           -0.2966    -1.8875    -1.4366 H       
  27 H27           -1.9566     5.8756     1.6115 H       
@<TRIPOS>BOND
   1    1    2 1
   2    1    7 2
   3    1    5 am
   4    2    3 1
   5    3    4 1
   6    3    8 2
   7    4    5 am
   8    4    6 2
   9    5   10 1
  10    8    9 1
  11    8   20 1
  12    9   11 ar
  13    9   15 ar
  14   10   17 1
  15   10   21 1
  16   10   22 1
  17   11   12 ar
  18   11   23 1
  19   12   13 ar
  20   12   24 1
  21   13   14 ar
  22   13   16 1
  23   14   15 ar
  24   14   25 1
  25   15   26 1
  26   17   18 2
  27   17   19 1
  28   19   27 1

#	End of record

