#	Name: ASD05380072
#	Creating user name:	WinNT
#	Creation time:	15. 06. 2019 20:59

#	Modifying user name:	WinNT
#	Modification time:	15. 06. 2019 20:59

#	Program:	/corina/corina34_cracker 3.40 0067  02.08.2006

@<TRIPOS>MOLECULE
ASD05380072
  51   55    0    0    0
SMALL
NO_CHARGES


@<TRIPOS>ATOM
   1 C1            -0.0397     1.1898     0.1583 C.ar    
   2 C2            -0.0193    -0.1844    -0.1701 C.ar    
   3 C3             1.1543     1.8996     0.2654 C.ar    
   4 C4             2.3510     1.2517     0.0489 C.ar    
   5 C5             2.3747    -0.0984    -0.2745 C.ar    
   6 C6             1.2060    -0.8182    -0.3848 C.ar    
   7 N7            -1.1942    -0.8551    -0.2684 N.2     
   8 C8            -2.3336    -0.2654    -0.0683 C.2     
   9 N9            -2.4475     1.0519     0.2514 N.am    
  10 C10           -1.3455     1.8263     0.3840 C.2     
  11 C11           -3.7170     1.6108     0.4505 C.ar    
  12 C12           -4.2537     1.6820     1.7300 C.ar    
  13 C13           -4.4396     2.1004    -0.6305 C.ar    
  14 C14           -5.6914     2.6515    -0.4303 C.ar    
  15 C15           -6.2244     2.7163     0.8439 C.ar    
  16 C16           -5.5061     2.2344     1.9227 C.ar    
  17 C17           -3.5938    -1.0817    -0.1973 C.3     
  18 N18           -3.4350    -2.0575    -1.2784 N.pl3   
  19 C19           -4.5489    -2.5500    -1.9349 C.ar    
  20 N20           -5.7689    -2.1478    -1.5966 N.ar    
  21 O21           -1.4326     3.0064     0.6701 O.2     
  22 C22           -4.4136    -3.4822    -2.9781 C.ar    
  23 C23           -5.5783    -3.9483    -3.6100 C.ar    
  24 N24           -6.7606    -3.4963    -3.2040 N.ar    
  25 C25           -6.8426    -2.6145    -2.2209 C.ar    
  26 N26           -3.3620    -4.0937    -3.5769 N.2     
  27 C27           -3.7972    -4.8856    -4.5128 C.2     
  28 N28           -5.1593    -4.8313    -4.5728 N.pl3   
  29 C29            1.1371     3.3653     0.6150 C.3     
  30 Cl30          -3.7709     2.0207    -2.2306 Cl      
  31 C31           -3.8623    -1.8164     1.1175 C.3     
  32 Cl32          -3.3528     1.0773     3.0851 Cl      
  33 N33           -8.0926    -2.1634    -1.8297 N.pl3   
  34 H34            3.2785     1.7988     0.1311 H       
  35 H35            3.3216    -0.5902    -0.4415 H       
  36 H36            1.2370    -1.8680    -0.6365 H       
  37 H37           -6.2537     3.0323    -1.2701 H       
  38 H38           -7.2024     3.1481     0.9974 H       
  39 H39           -5.9257     2.2863     2.9165 H       
  40 H40           -4.4321    -0.4226    -0.4230 H       
  41 H41           -2.5489    -2.3583    -1.5340 H       
  42 H42           -3.1727    -5.4957    -5.1485 H       
  43 H43           -5.7271    -5.3266    -5.1836 H       
  44 H44            1.0740     3.4801     1.6971 H       
  45 H45            2.0510     3.8360     0.2524 H       
  46 H46            0.2740     3.8401     0.1483 H       
  47 H47           -2.9834    -2.3986     1.3945 H       
  48 H48           -4.0794    -1.0908     1.9014 H       
  49 H49           -4.7155    -2.4833     0.9934 H       
  50 H50           -8.1718    -1.5173    -1.1105 H       
  51 H51           -8.8886    -2.4937    -2.2749 H       
@<TRIPOS>BOND
   1    1    2 ar
   2    1    3 ar
   3    1   10 1
   4    2    7 1
   5    2    6 ar
   6    3    4 ar
   7    3   29 1
   8    4    5 ar
   9    4   34 1
  10    5    6 ar
  11    5   35 1
  12    6   36 1
  13    7    8 2
  14    8    9 1
  15    8   17 1
  16    9   10 am
  17    9   11 1
  18   10   21 2
  19   11   12 ar
  20   11   13 ar
  21   12   32 1
  22   12   16 ar
  23   13   14 ar
  24   13   30 1
  25   14   15 ar
  26   14   37 1
  27   15   16 ar
  28   15   38 1
  29   16   39 1
  30   17   18 1
  31   17   31 1
  32   17   40 1
  33   18   19 1
  34   18   41 1
  35   19   20 ar
  36   19   22 ar
  37   20   25 ar
  38   22   23 ar
  39   22   26 1
  40   23   24 ar
  41   23   28 1
  42   24   25 ar
  43   25   33 1
  44   26   27 2
  45   27   28 1
  46   27   42 1
  47   28   43 1
  48   29   44 1
  49   29   45 1
  50   29   46 1
  51   31   47 1
  52   31   48 1
  53   31   49 1
  54   33   50 1
  55   33   51 1

#	End of record

