#	Name: ASD03330535
#	Creating user name:	WinNT
#	Creation time:	15. 06. 2019 20:37

#	Modifying user name:	WinNT
#	Modification time:	15. 06. 2019 20:37

#	Program:	/corina/corina34_cracker 3.40 0067  02.08.2006

@<TRIPOS>MOLECULE
ASD03330535
  70   73    0    0    0
SMALL
NO_CHARGES


@<TRIPOS>ATOM
   1 C1            -0.5208     1.8016    -0.6115 C.2     
   2 N2            -0.6448     0.4693    -0.8527 N.pl3   
   3 C3             0.8116     2.0711    -0.5287 C.2     
   4 N4             1.4797     0.9152    -0.7356 N.2     
   5 C5             0.6138    -0.0504    -0.9366 C.2     
   6 C6             0.9468    -1.4656    -1.2083 C.ar    
   7 C7             1.4163     3.3881    -0.2621 C.2     
   8 O8             0.7058     4.3605    -0.0922 O.2     
   9 C9             3.3582     4.8246     0.0587 C.3     
  10 N10            2.7570     3.5152    -0.2064 N.am    
  11 C11            3.4200     5.0610     1.5690 C.3     
  12 C12            4.2248     3.9392     2.2284 C.3     
  13 C13            4.0959     6.4051     1.8476 C.3     
  14 C14            2.0012     5.0753     2.1415 C.3     
  15 C15            4.7520     4.8624    -0.5131 C.2     
  16 N16            5.3517     6.0460    -0.7493 N.am    
  17 O17            5.3341     3.8276    -0.7609 O.2     
  18 C18            6.6654     6.0854    -1.3964 C.3     
  19 C19            0.3110    -2.4841    -0.4974 C.ar    
  20 C20            1.8952    -1.7890    -2.1819 C.ar    
  21 C21            2.2006    -3.1144    -2.4303 C.ar    
  22 C22            1.5695    -4.1170    -1.7174 C.ar    
  23 C23            0.6255    -3.8022    -0.7556 C.ar    
  24 C24           -1.9112    -0.2568    -0.9806 C.3     
  25 C25           -2.8439     0.5206    -1.9147 C.3     
  26 C26           -3.6422     1.5430    -1.1124 C.3     
  27 N27           -2.8518     2.0731     0.0003 N.3     
  28 C28           -1.6575     2.7821    -0.4826 C.3     
  29 C29           -3.6681     2.9414     0.8592 C.3     
  30 C30           -2.8908     3.2735     2.1346 C.3     
  31 F31            2.5116    -0.8096    -2.8790 F       
  32 C32            1.9070    -5.5596    -1.9930 C.3     
  33 C33           -3.5257     4.2660     3.1106 C.3     
  34 C34           -3.4673     2.7782     3.4624 C.3     
  35 H35            2.7534     5.6030    -0.4065 H       
  36 H36            3.3237     2.7398    -0.3419 H       
  37 H37            5.2355     3.9290     1.8205 H       
  38 H38            4.2688     4.1076     3.3044 H       
  39 H39            3.7432     2.9816     2.0299 H       
  40 H40            3.5070     7.2071     1.4026 H       
  41 H41            4.1662     6.5602     2.9242 H       
  42 H42            5.0962     6.4055     1.4144 H       
  43 H43            1.5197     4.1178     1.9430 H       
  44 H44            2.0453     5.2438     3.2175 H       
  45 H45            1.4280     5.8746     1.6718 H       
  46 H46            4.9134     6.8719    -0.4907 H       
  47 H47            7.3871     5.5416    -0.7869 H       
  48 H48            6.5994     5.6226    -2.3811 H       
  49 H49            6.9872     7.1214    -1.5027 H       
  50 H50           -0.4257    -2.2410     0.2539 H       
  51 H51            2.9330    -3.3670    -3.1826 H       
  52 H52            0.1366    -4.5906    -0.2026 H       
  53 H53           -1.7231    -1.2472    -1.3952 H       
  54 H54           -2.3763    -0.3539     0.0004 H       
  55 H55           -2.2521     1.0357    -2.6713 H       
  56 H56           -3.5293    -0.1729    -2.4020 H       
  57 H57           -3.9327     2.3641    -1.7678 H       
  58 H58           -4.5399     1.0665    -0.7183 H       
  59 H59           -1.3859     3.5638     0.2269 H       
  60 H60           -1.8665     3.2277    -1.4551 H       
  61 H61           -3.9026     3.8629     0.3263 H       
  62 H62           -4.5932     2.4277     1.1209 H       
  63 H63           -1.8058     3.2922     2.0323 H       
  64 H64            2.7303    -5.8696    -1.3494 H       
  65 H65            1.0347    -6.1816    -1.7921 H       
  66 H66            2.2001    -5.6712    -3.0369 H       
  67 H67           -2.8583     4.9375     3.6508 H       
  68 H68           -4.4972     4.6825     2.8442 H       
  69 H69           -4.4004     2.2158     3.4275 H       
  70 H70           -2.7615     2.4708     4.2341 H       
@<TRIPOS>BOND
   1    1    2 1
   2    1    3 2
   3    1   28 1
   4    2   24 1
   5    2    5 1
   6    3    4 1
   7    3    7 1
   8    4    5 2
   9    5    6 1
  10    6   19 ar
  11    6   20 ar
  12    7    8 2
  13    7   10 am
  14    9   10 1
  15    9   11 1
  16    9   15 1
  17    9   35 1
  18   10   36 1
  19   11   12 1
  20   11   13 1
  21   11   14 1
  22   12   37 1
  23   12   38 1
  24   12   39 1
  25   13   40 1
  26   13   41 1
  27   13   42 1
  28   14   43 1
  29   14   44 1
  30   14   45 1
  31   15   16 am
  32   15   17 2
  33   16   18 1
  34   16   46 1
  35   18   47 1
  36   18   48 1
  37   18   49 1
  38   19   23 ar
  39   19   50 1
  40   20   21 ar
  41   20   31 1
  42   21   22 ar
  43   21   51 1
  44   22   23 ar
  45   22   32 1
  46   23   52 1
  47   24   25 1
  48   24   53 1
  49   24   54 1
  50   25   26 1
  51   25   55 1
  52   25   56 1
  53   26   27 1
  54   26   57 1
  55   26   58 1
  56   27   28 1
  57   27   29 1
  58   28   59 1
  59   28   60 1
  60   29   30 1
  61   29   61 1
  62   29   62 1
  63   30   33 1
  64   30   34 1
  65   30   63 1
  66   32   64 1
  67   32   65 1
  68   32   66 1
  69   33   34 1
  70   33   67 1
  71   33   68 1
  72   34   69 1
  73   34   70 1

#	End of record

