#	Name: ASD01230328
#	Creating user name:	WinNT
#	Creation time:	15. 06. 2019 19:14

#	Modifying user name:	WinNT
#	Modification time:	15. 06. 2019 19:14

#	Program:	/corina/corina34_cracker 3.40 0067  02.08.2006

@<TRIPOS>MOLECULE
ASD01230328
  29   30    0    0    0
SMALL
NO_CHARGES


@<TRIPOS>ATOM
   1 C1            -0.1317     1.4649    -0.3945 C.ar    
   2 C2            -0.1875     0.1084    -0.6261 C.ar    
   3 C3             0.9760    -0.6385    -0.6895 C.ar    
   4 C4             2.1982    -0.0162    -0.5054 C.ar    
   5 C5             2.2543     1.3401    -0.2598 C.ar    
   6 C6             1.0990     2.1059    -0.2204 C.ar    
   7 N7             1.0895     3.4843    -0.0546 N.3     
   8 S8             3.8215     2.1059     0.0391 S.o2    
   9 N9             3.4651     3.7371     0.1059 N.am    
  10 C10            2.1688     4.0618     0.7359 C.3     
  11 Cl11           0.9025    -2.3454    -0.9974 Cl      
  12 O12            4.2289     1.7180     1.3440 O.2     
  13 O13            4.6098     1.9024    -1.1256 O.2     
  14 C14            4.3667     4.7649    -0.4203 C.3     
  15 C15           -0.2197     3.9481     0.4237 C.3     
  16 C16           -0.1578     5.4513     0.7020 C.3     
  17 H17           -1.0455     2.0390    -0.3515 H       
  18 H18           -1.1442    -0.3751    -0.7586 H       
  19 H19            3.1097    -0.5935    -0.5536 H       
  20 H20            2.0472     5.1441     0.7818 H       
  21 H21            2.1420     3.6492     1.7445 H       
  22 H22            5.2555     4.2903    -0.8360 H       
  23 H23            3.8574     5.3297    -1.2012 H       
  24 H24            4.6579     5.4395     0.3848 H       
  25 H25           -0.9752     3.7502    -0.3367 H       
  26 H26           -0.4798     3.4192     1.3406 H       
  27 H27            0.5977     5.6492     1.4623 H       
  28 H28            0.1022     5.9802    -0.2149 H       
  29 H29           -1.1293     5.7954     1.0569 H       
@<TRIPOS>BOND
   1    1    2 ar
   2    1    6 ar
   3    1   17 1
   4    2    3 ar
   5    2   18 1
   6    3    4 ar
   7    3   11 1
   8    4    5 ar
   9    4   19 1
  10    5    6 ar
  11    5    8 1
  12    6    7 1
  13    7   10 1
  14    7   15 1
  15    8    9 am
  16    8   12 2
  17    8   13 2
  18    9   10 1
  19    9   14 1
  20   10   20 1
  21   10   21 1
  22   14   22 1
  23   14   23 1
  24   14   24 1
  25   15   16 1
  26   15   25 1
  27   15   26 1
  28   16   27 1
  29   16   28 1
  30   16   29 1

#	End of record

