#	Name: ASD08178172
#	Creating user name:	WinNT
#	Creation time:	15. 06. 2019 21:18

#	Modifying user name:	WinNT
#	Modification time:	15. 06. 2019 21:18

#	Program:	/corina/corina34_cracker 3.40 0067  02.08.2006

@<TRIPOS>MOLECULE
ASD08178172
  56   59    0    0    0
SMALL
NO_CHARGES


@<TRIPOS>ATOM
   1 C1            -0.6533     2.2007    -1.0224 C.2     
   2 N2            -0.6708     0.9489    -1.3688 N.2     
   3 N3            -1.7766     0.3419    -1.3171 N.2     
   4 C4            -2.7983     1.0317    -0.9197 C.2     
   5 S5            -2.2377     2.6666    -0.5671 S.3     
   6 C6            -4.2112     0.5267    -0.7785 C.3     
   7 C7            -4.4167    -0.0253     0.6335 C.3     
   8 C8            -5.8511    -0.5380     0.7769 C.3     
   9 C9            -6.0566    -1.0900     2.1890 C.3     
  10 C10           -7.4695    -1.5950     2.3302 C.2     
  11 N11           -7.8799    -2.7969     2.0769 N.2     
  12 N12           -9.1084    -3.0244     2.2587 N.2     
  13 C13           -9.8475    -2.0429     2.6800 C.2     
  14 S14           -8.8597    -0.6573     2.8774 S.3     
  15 N15          -11.2133    -2.1079     2.9346 N.am    
  16 C16          -11.8798    -3.2640     2.7457 C.2     
  17 O17          -13.2024    -3.3268     2.9922 O.3     
  18 O18          -11.2874    -4.2496     2.3530 O.2     
  19 C19          -13.7925    -4.5468     2.8866 C.ar    
  20 C20          -13.6251    -5.4889     3.8910 C.ar    
  21 N21            0.4672     3.0245    -1.0165 N.am    
  22 C22            1.6652     2.5354    -1.3935 C.2     
  23 C23            2.8793     3.4281    -1.3871 C.3     
  24 O24            1.7661     1.3769    -1.7380 O.2     
  25 C25            4.0814     2.6445    -1.8474 C.ar    
  26 C26            4.4058     2.6019    -3.1904 C.ar    
  27 C27            5.5085     1.8830    -3.6127 C.ar    
  28 C28            6.2870     1.2072    -2.6918 C.ar    
  29 C29            5.9631     1.2505    -1.3486 C.ar    
  30 C30            4.8629     1.9729    -0.9259 C.ar    
  31 C31          -14.5679    -4.8498     1.7769 C.ar    
  32 C32          -15.1665    -6.0904     1.6718 C.ar    
  33 C33          -14.9934    -7.0297     2.6716 C.ar    
  34 C34          -14.2258    -6.7281     3.7813 C.ar    
  35 H35           -4.9089     1.3456    -0.9536 H       
  36 H36           -4.3889    -0.2642    -1.5072 H       
  37 H37           -3.7190    -0.8442     0.8087 H       
  38 H38           -4.2390     0.7656     1.3623 H       
  39 H39           -6.5489     0.2809     0.6018 H       
  40 H40           -6.0288    -1.3289     0.0482 H       
  41 H41           -5.3589    -1.9089     2.3641 H       
  42 H42           -5.8789    -0.2991     2.9177 H       
  43 H43          -11.6862    -1.3211     3.2480 H       
  44 H44          -13.0252    -5.2539     4.7579 H       
  45 H45            0.3865     3.9510    -0.7410 H       
  46 H46            2.7149     4.2699    -2.0598 H       
  47 H47            3.0523     3.7989    -0.3768 H       
  48 H48            3.7976     3.1299    -3.9099 H       
  49 H49            5.7615     1.8492    -4.6621 H       
  50 H50            7.1480     0.6450    -3.0218 H       
  51 H51            6.5711     0.7222    -0.6292 H       
  52 H52            4.6099     2.0068     0.1235 H       
  53 H53          -14.7036    -4.1163     0.9959 H       
  54 H54          -15.7705    -6.3266     0.8082 H       
  55 H55          -15.4626    -7.9988     2.5878 H       
  56 H56          -14.0918    -7.4635     4.5608 H       
@<TRIPOS>BOND
   1    1    2 2
   2    1   21 1
   3    1    5 1
   4    2    3 1
   5    3    4 2
   6    4    5 1
   7    4    6 1
   8    6    7 1
   9    6   35 1
  10    6   36 1
  11    7    8 1
  12    7   37 1
  13    7   38 1
  14    8    9 1
  15    8   39 1
  16    8   40 1
  17    9   10 1
  18    9   41 1
  19    9   42 1
  20   10   11 2
  21   10   14 1
  22   11   12 1
  23   12   13 2
  24   13   14 1
  25   13   15 1
  26   15   16 am
  27   15   43 1
  28   16   17 1
  29   16   18 2
  30   17   19 1
  31   19   20 ar
  32   19   31 ar
  33   20   34 ar
  34   20   44 1
  35   21   22 am
  36   21   45 1
  37   22   23 1
  38   22   24 2
  39   23   25 1
  40   23   46 1
  41   23   47 1
  42   25   26 ar
  43   25   30 ar
  44   26   27 ar
  45   26   48 1
  46   27   28 ar
  47   27   49 1
  48   28   29 ar
  49   28   50 1
  50   29   30 ar
  51   29   51 1
  52   30   52 1
  53   31   32 ar
  54   31   53 1
  55   32   33 ar
  56   32   54 1
  57   33   34 ar
  58   33   55 1
  59   34   56 1

#	End of record

