#	Name: ASD02038017
#	Creating user name:	WinNT
#	Creation time:	15. 06. 2019 20:16

#	Modifying user name:	WinNT
#	Modification time:	15. 06. 2019 20:16

#	Program:	/corina/corina34_cracker 3.40 0067  02.08.2006

@<TRIPOS>MOLECULE
ASD02038017
  60   64    0    0    0
SMALL
NO_CHARGES


@<TRIPOS>ATOM
   1 C1            -0.0017     1.3734    -0.0825 C.ar    
   2 N2             1.1949     2.0989    -0.0992 N.am    
   3 N3             2.3151     4.1445     0.0016 N.am    
   4 C4             1.1661     3.4464    -0.0923 C.2     
   5 C5             5.6877     5.8689    -1.9373 C.3     
   6 O6             6.9908     5.4017    -1.5827 O.3     
   7 C7             8.0093     5.7132    -2.4279 C.ar    
   8 C8             9.2997     5.2909    -2.1438 C.ar    
   9 C9             7.7565     6.4483    -3.5772 C.ar    
  10 C10            8.7899     6.7642    -4.4367 C.ar    
  11 C11           10.0827     6.3465    -4.1501 C.ar    
  12 C12           10.3340     5.6070    -3.0021 C.ar    
  13 N13           11.1334     6.6653    -5.0191 N.am    
  14 C14           12.2908     5.9807    -4.9693 C.2     
  15 C15           12.4742     4.8486    -3.9948 C.3     
  16 C16           11.7380     5.1558    -2.6933 C.3     
  17 O17            0.1035     4.0322    -0.1708 O.2     
  18 O18           13.1965     6.2791    -5.7188 O.2     
  19 C19            2.3115     5.6099    -0.1039 C.3     
  20 C20            3.3093     6.0287    -1.1882 C.3     
  21 C21            4.6801     5.4245    -0.8751 C.3     
  22 C22            4.5786     3.8975    -0.8758 C.3     
  23 C23            3.5944     3.4550     0.2176 C.3     
  24 C24           -0.0859     0.1549    -0.7432 C.ar    
  25 C25           -1.2681    -0.5589    -0.7244 C.ar    
  26 C26           -2.3672    -0.0615    -0.0485 C.ar    
  27 C27           -2.2867     1.1517     0.6100 C.ar    
  28 C28           -1.1056     1.8677     0.5998 C.ar    
  29 C29           -3.6556    -0.8431    -0.0300 C.3     
  30 C30           -4.1981    -1.2787     1.3326 C.3     
  31 C31           -4.8902    -0.1561     0.5569 C.3     
  32 H32            2.0449     1.6321    -0.1158 H       
  33 H33            5.6958     6.9572    -1.9976 H       
  34 H34            5.4034     5.4535    -2.9041 H       
  35 H35            9.4954     4.7154    -1.2511 H       
  36 H36            6.7509     6.7732    -3.7998 H       
  37 H37            8.5927     7.3356    -5.3316 H       
  38 H38           11.0261     7.3841    -5.6614 H       
  39 H39           12.0738     3.9312    -4.4261 H       
  40 H40           13.5364     4.7167    -3.7888 H       
  41 H41           12.2625     5.9469    -2.1575 H       
  42 H42           11.7044     4.2590    -2.0747 H       
  43 H43            1.3131     5.9544    -0.3735 H       
  44 H44            2.6052     6.0458     0.8510 H       
  45 H45            2.9657     5.6681    -2.1577 H       
  46 H46            3.3874     7.1157    -1.2106 H       
  47 H47            5.0121     5.7659     0.1054 H       
  48 H48            4.2230     3.5569    -1.8483 H       
  49 H49            5.5601     3.4675    -0.6758 H       
  50 H50            3.9952     3.7155     1.1972 H       
  51 H51            3.4420     2.3773     0.1577 H       
  52 H52            0.7720    -0.2339    -1.2716 H       
  53 H53           -1.3344    -1.5065    -1.2384 H       
  54 H54           -3.1469     1.5377     1.1367 H       
  55 H55           -1.0433     2.8150     1.1146 H       
  56 H56           -3.8076    -1.5188    -0.8717 H       
  57 H57           -4.7074    -2.2408     1.3874 H       
  58 H58           -3.6232    -0.9999     2.2157 H       
  59 H59           -4.7706     0.8612     0.9297 H       
  60 H60           -5.8549    -0.3796     0.1014 H       
@<TRIPOS>BOND
   1    1   24 ar
   2    1    2 1
   3    1   28 ar
   4    2    4 am
   5    2   32 1
   6    3    4 am
   7    3   19 1
   8    3   23 1
   9    4   17 2
  10    5    6 1
  11    5   21 1
  12    5   33 1
  13    5   34 1
  14    6    7 1
  15    7    8 ar
  16    7    9 ar
  17    8   12 ar
  18    8   35 1
  19    9   10 ar
  20    9   36 1
  21   10   11 ar
  22   10   37 1
  23   11   12 ar
  24   11   13 1
  25   12   16 1
  26   13   14 am
  27   13   38 1
  28   14   15 1
  29   14   18 2
  30   15   16 1
  31   15   39 1
  32   15   40 1
  33   16   41 1
  34   16   42 1
  35   19   20 1
  36   19   43 1
  37   19   44 1
  38   20   21 1
  39   20   45 1
  40   20   46 1
  41   21   22 1
  42   21   47 1
  43   22   23 1
  44   22   48 1
  45   22   49 1
  46   23   50 1
  47   23   51 1
  48   24   25 ar
  49   24   52 1
  50   25   26 ar
  51   25   53 1
  52   26   27 ar
  53   26   29 1
  54   27   28 ar
  55   27   54 1
  56   28   55 1
  57   29   30 1
  58   29   31 1
  59   29   56 1
  60   30   31 1
  61   30   57 1
  62   30   58 1
  63   31   59 1
  64   31   60 1

#	End of record

