#	Name: ASD02440040
#	Creating user name:	WinNT
#	Creation time:	15. 06. 2019 20:21

#	Modifying user name:	WinNT
#	Modification time:	15. 06. 2019 20:21

#	Program:	/corina/corina34_cracker 3.40 0067  02.08.2006

@<TRIPOS>MOLECULE
ASD02440040
  58   63    0    0    0
SMALL
NO_CHARGES


@<TRIPOS>ATOM
   1 O1            -0.0162     1.3457     0.0094 O.3     
   2 C2             1.2316    -0.6854    -0.0136 C.ar    
   3 C3             2.4734     0.1063    -0.0218 C.2     
   4 C4             2.3472     1.5157    -0.0128 C.2     
   5 C5             1.1089     2.0781     0.0026 C.2     
   6 C6             0.0021    -0.0041     0.0020 C.ar    
   7 C7            -1.1786    -0.7297     0.0101 C.ar    
   8 C8            -1.1415    -2.1158     0.0031 C.ar    
   9 C9             0.0732    -2.7921    -0.0120 C.ar    
  10 C10            1.2618    -2.0852    -0.0206 C.ar    
  11 C11            0.9979     3.5491     0.0118 C.ar    
  12 C12            2.1520     4.3380     0.0050 C.ar    
  13 C13            2.0512     5.7129     0.0136 C.ar    
  14 C14            0.8049     6.3217     0.0290 C.ar    
  15 C15           -0.3579     5.5405     0.0359 C.ar    
  16 C16           -0.2599     4.1550     0.0215 C.ar    
  17 C17           -1.6899     6.1911     0.0523 C.ar    
  18 C18           -2.3080     6.4919     1.2687 C.ar    
  19 C19           -3.5694     7.1079     1.2657 C.ar    
  20 C20           -4.2022     7.4174     0.0546 C.ar    
  21 C21           -3.5793     7.1137    -1.1431 C.ar    
  22 C22           -2.3291     6.5106    -1.1490 C.ar    
  23 C23           -4.2033     7.4165     2.5592 C.2     
  24 O24           -1.7076     6.1973     2.4403 O.3     
  25 C25           -2.2743     6.4726     3.6257 C.2     
  26 C26           -3.4926     7.0684     3.7321 C.2     
  27 C27           -1.5482     6.1164     4.8593 C.ar    
  28 C28           -0.2941     5.5041     4.7824 C.ar    
  29 C29            0.3804     5.1732     5.9368 C.ar    
  30 C30           -0.1844     5.4470     7.1767 C.ar    
  31 C31           -1.4311     6.0557     7.2577 C.ar    
  32 C32           -2.1098     6.3956     6.1085 C.ar    
  33 O33            0.4834     5.1183     8.3121 O.3     
  34 O34           -5.2986     7.9517     2.6169 O.2     
  35 O35           -5.4217     8.0125     0.0560 O.3     
  36 O36           -1.7256     6.2231    -2.3301 O.3     
  37 O37            0.7120     7.6760     0.0378 O.3     
  38 O38            3.5686    -0.4321    -0.0353 O.2     
  39 O39           -2.3025    -2.8193     0.0116 O.3     
  40 O40            2.4485    -2.7434    -0.0358 O.3     
  41 H41            3.2281     2.1406    -0.0179 H       
  42 H42           -2.1281    -0.2153     0.0221 H       
  43 H43            0.0885    -3.8719    -0.0166 H       
  44 H44            3.1249     3.8693    -0.0066 H       
  45 H45            2.9457     6.3181     0.0086 H       
  46 H46           -1.1535     3.5485     0.0219 H       
  47 H47           -4.0659     7.3513    -2.0775 H       
  48 H48           -3.9145     7.2740     4.7048 H       
  49 H49            0.1452     5.2904     3.8193 H       
  50 H50            1.3494     4.7000     5.8783 H       
  51 H51           -1.8664     6.2666     8.2234 H       
  52 H52           -3.0765     6.8727     6.1723 H       
  53 H53            1.0648     5.8168     8.6425 H       
  54 H54           -5.3878     8.9789     0.0569 H       
  55 H55           -1.9384     5.3461    -2.6773 H       
  56 H56            0.6767     8.0736    -0.8430 H       
  57 H57           -2.6478    -3.0189    -0.8693 H       
  58 H58            2.7835    -2.9299    -0.9235 H       
@<TRIPOS>BOND
   1    1    6 1
   2    1    5 1
   3    2    3 1
   4    2    6 ar
   5    2   10 ar
   6    3    4 1
   7    3   38 2
   8    4    5 2
   9    4   41 1
  10    5   11 1
  11    6    7 ar
  12    7    8 ar
  13    7   42 1
  14    8    9 ar
  15    8   39 1
  16    9   10 ar
  17    9   43 1
  18   10   40 1
  19   11   12 ar
  20   11   16 ar
  21   12   13 ar
  22   12   44 1
  23   13   14 ar
  24   13   45 1
  25   14   15 ar
  26   14   37 1
  27   15   16 ar
  28   15   17 1
  29   16   46 1
  30   17   18 ar
  31   17   22 ar
  32   18   19 ar
  33   18   24 1
  34   19   20 ar
  35   19   23 1
  36   20   21 ar
  37   20   35 1
  38   21   22 ar
  39   21   47 1
  40   22   36 1
  41   23   26 1
  42   23   34 2
  43   24   25 1
  44   25   26 2
  45   25   27 1
  46   26   48 1
  47   27   28 ar
  48   27   32 ar
  49   28   29 ar
  50   28   49 1
  51   29   30 ar
  52   29   50 1
  53   30   31 ar
  54   30   33 1
  55   31   32 ar
  56   31   51 1
  57   32   52 1
  58   33   53 1
  59   35   54 1
  60   36   55 1
  61   37   56 1
  62   39   57 1
  63   40   58 1

#	End of record

