#	Name: ASD03320221
#	Creating user name:	WinNT
#	Creation time:	15. 06. 2019 20:36

#	Modifying user name:	WinNT
#	Modification time:	15. 06. 2019 20:36

#	Program:	/corina/corina34_cracker 3.40 0067  02.08.2006

@<TRIPOS>MOLECULE
ASD03320221
  38   40    0    0    0
SMALL
NO_CHARGES


@<TRIPOS>ATOM
   1 C1            -0.0073     1.3430    -0.1946 C.ar    
   2 C2             0.0219    -0.0350     0.0266 C.ar    
   3 N3            -1.0905    -0.7399     0.0439 N.ar    
   4 C4            -2.2724    -0.1854    -0.1447 C.ar    
   5 C5            -2.3920     1.1869    -0.3732 C.ar    
   6 C6            -1.2408     1.9724    -0.3940 C.ar    
   7 C7             1.2456     2.1264    -0.2118 C.2     
   8 O8             1.2098     3.3261    -0.4054 O.2     
   9 N9             2.4279     1.5108    -0.0130 N.am    
  10 C10            3.6217     2.2342    -0.1262 C.ar    
  11 C11           -3.7262     1.8011    -0.5853 C.ar    
  12 C12            3.6730     3.5590     0.2867 C.ar    
  13 C13            4.8505     4.2715     0.1752 C.ar    
  14 C14            5.9821     3.6641    -0.3492 C.ar    
  15 C15            5.9315     2.3408    -0.7624 C.ar    
  16 C16            4.7562     1.6253    -0.6462 C.ar    
  17 O17            7.1413     4.3663    -0.4587 O.3     
  18 C18            8.2672     3.6784    -1.0075 C.3     
  19 F19            7.9644     3.2482    -2.3038 F       
  20 F20            9.3671     4.5419    -1.0477 F       
  21 F21            8.5723     2.5715    -0.2082 F       
  22 Cl22          -3.6982    -1.1751    -0.1089 Cl      
  23 C23           -4.6186     1.2569    -1.5118 C.ar    
  24 C24           -5.8529     1.8680    -1.6728 C.ar    
  25 C25           -6.1571     2.9876    -0.9163 C.ar    
  26 N26           -5.2918     3.4774    -0.0497 N.ar    
  27 C27           -4.1107     2.9265     0.1410 C.ar    
  28 F28           -6.7481     1.3772    -2.5576 F       
  29 H29            0.9689    -0.5294     0.1854 H       
  30 H30           -1.2987     3.0368    -0.5678 H       
  31 H31            2.4521     0.5668     0.2085 H       
  32 H32            2.7920     4.0321     0.6947 H       
  33 H33            4.8905     5.3020     0.4960 H       
  34 H34            6.8128     1.8687    -1.1709 H       
  35 H35            4.7170     0.5951    -0.9679 H       
  36 H36           -4.3539     0.3828    -2.0883 H       
  37 H37           -7.1172     3.4670    -1.0382 H       
  38 H38           -3.4297     3.3570     0.8602 H       
@<TRIPOS>BOND
   1    1    2 ar
   2    1    7 1
   3    1    6 ar
   4    2    3 ar
   5    2   29 1
   6    3    4 ar
   7    4    5 ar
   8    4   22 1
   9    5    6 ar
  10    5   11 1
  11    6   30 1
  12    7    8 2
  13    7    9 am
  14    9   10 1
  15    9   31 1
  16   10   12 ar
  17   10   16 ar
  18   11   23 ar
  19   11   27 ar
  20   12   13 ar
  21   12   32 1
  22   13   14 ar
  23   13   33 1
  24   14   15 ar
  25   14   17 1
  26   15   16 ar
  27   15   34 1
  28   16   35 1
  29   17   18 1
  30   18   19 1
  31   18   20 1
  32   18   21 1
  33   23   24 ar
  34   23   36 1
  35   24   25 ar
  36   24   28 1
  37   25   26 ar
  38   25   37 1
  39   26   27 ar
  40   27   38 1

#	End of record

