#	Name: ASD01883027
#	Creating user name:	WinNT
#	Creation time:	15. 06. 2019 19:45

#	Modifying user name:	WinNT
#	Modification time:	15. 06. 2019 19:45

#	Program:	/corina/corina34_cracker 3.40 0067  02.08.2006

@<TRIPOS>MOLECULE
ASD01883027
  49   52    0    0    0
SMALL
NO_CHARGES


@<TRIPOS>ATOM
   1 N1             0.0430     1.0370     1.2887 N.am    
   2 C2             0.0414    -0.2383     0.8584 C.2     
   3 C3            -1.1870    -0.9082     0.6382 C.2     
   4 C4            -2.3868    -0.2141     0.8780 C.2     
   5 C5            -2.3183     1.1198     1.3278 C.2     
   6 C6            -1.1157     1.7049     1.5250 C.2     
   7 O7             1.0962    -0.8161     0.6581 O.2     
   8 C8            -1.2071    -2.2648     0.1800 C.1     
   9 N9            -1.2231    -3.3409    -0.1834 N.1     
  10 C10            1.3213     1.7168     1.5126 C.3     
  11 C11            1.7604     2.4147     0.2238 C.3     
  12 C12           -5.3916    -1.6840    -0.8331 C.ar    
  13 C13           -3.6921    -0.8699     0.6624 C.ar    
  14 C14           -4.4529    -1.2929     1.7552 C.ar    
  15 C15           -5.6695    -1.9046     1.5501 C.ar    
  16 C16           -6.1425    -2.1026     0.2579 C.ar    
  17 O17           -7.3425    -2.7065     0.0617 O.3     
  18 C18            3.0193     3.2820     0.2837 C.3     
  19 C19            3.0540     1.9320    -0.4355 C.3     
  20 C20           -8.4657    -1.9792     0.2854 C.ar    
  21 C21           -9.7101    -2.5913     0.2002 C.ar    
  22 C22          -10.8479    -1.8382     0.4307 C.ar    
  23 C23          -10.7002    -0.4929     0.7397 C.ar    
  24 C24           -9.4323     0.0494     0.8074 C.ar    
  25 N25           -8.3655    -0.6955     0.5878 N.ar    
  26 C26          -12.2163    -2.4641     0.3476 C.3     
  27 C27           -9.2644     1.5092     1.1419 C.3     
  28 C28           -4.1711    -1.0701    -0.6376 C.ar    
  29 F29           -3.4402    -0.6633    -1.6986 F       
  30 H30           -3.2261     1.6729     1.5187 H       
  31 H31           -1.0755     2.7274     1.8702 H       
  32 H32            1.2056     2.4564     2.3049 H       
  33 H33            2.0752     0.9860     1.8050 H       
  34 H34            0.9535     2.7433    -0.4313 H       
  35 H35           -5.7610    -1.8435    -1.8354 H       
  36 H36           -4.0870    -1.1407     2.7599 H       
  37 H37           -6.2574    -2.2315     2.3950 H       
  38 H38            3.0409     4.1811    -0.3322 H       
  39 H39            3.5348     3.3555     1.2413 H       
  40 H40            3.5922     1.1174     0.0490 H       
  41 H41            3.0983     1.9429    -1.5245 H       
  42 H42           -9.7883    -3.6406    -0.0430 H       
  43 H43          -11.5678     0.1231     0.9249 H       
  44 H44          -12.4993    -2.8501     1.3268 H       
  45 H45          -12.9403    -1.7139     0.0295 H       
  46 H46          -12.1989    -3.2811    -0.3738 H       
  47 H47           -9.1770     1.6267     2.2220 H       
  48 H48           -8.3639     1.8909     0.6609 H       
  49 H49          -10.1309     2.0658     0.7848 H       
@<TRIPOS>BOND
   1    1    2 am
   2    1   10 1
   3    1    6 1
   4    2    3 1
   5    2    7 2
   6    3    4 2
   7    3    8 1
   8    4    5 1
   9    4   13 1
  10    5    6 2
  11    5   30 1
  12    6   31 1
  13    8    9 3
  14   10   11 1
  15   10   32 1
  16   10   33 1
  17   11   18 1
  18   11   19 1
  19   11   34 1
  20   12   28 ar
  21   12   16 ar
  22   12   35 1
  23   13   14 ar
  24   13   28 ar
  25   14   15 ar
  26   14   36 1
  27   15   16 ar
  28   15   37 1
  29   16   17 1
  30   17   20 1
  31   18   19 1
  32   18   38 1
  33   18   39 1
  34   19   40 1
  35   19   41 1
  36   20   21 ar
  37   20   25 ar
  38   21   22 ar
  39   21   42 1
  40   22   23 ar
  41   22   26 1
  42   23   24 ar
  43   23   43 1
  44   24   25 ar
  45   24   27 1
  46   26   44 1
  47   26   45 1
  48   26   46 1
  49   27   47 1
  50   27   48 1
  51   27   49 1
  52   28   29 1

#	End of record

