#	Name: ASD00170308
#	Creating user name:	WinNT
#	Creation time:	15. 06. 2019 18:31

#	Modifying user name:	WinNT
#	Modification time:	15. 06. 2019 18:31

#	Program:	/corina/corina34_cracker 3.40 0067  02.08.2006

@<TRIPOS>MOLECULE
ASD00170308
  36   38    0    0    0
SMALL
NO_CHARGES


@<TRIPOS>ATOM
   1 S1             0.1568     1.6237     0.6736 S.3     
   2 N2            -0.1174     0.3143    -0.3764 N.pl3   
   3 C3             1.1099    -0.1389    -0.7264 C.2     
   4 N4             2.1487     0.4592    -0.2376 N.2     
   5 C5             1.9241     1.4946     0.5882 C.2     
   6 N6             2.8177     2.2472     1.1987 N.2     
   7 C7            -1.3533    -0.1900    -0.7917 C.ar    
   8 C8             1.2596    -1.2887    -1.6439 C.ar    
   9 C9             4.2469     1.9890     1.0067 C.3     
  10 C10           -2.2258     0.6154    -1.5134 C.ar    
  11 C11           -3.4459     0.1162    -1.9234 C.ar    
  12 C12           -3.8012    -1.1889    -1.6146 C.ar    
  13 C13           -2.9308    -1.9940    -0.8940 C.ar    
  14 C14           -1.7078    -1.4987    -0.4879 C.ar    
  15 C15            0.2913    -1.5393    -2.6173 C.ar    
  16 C16            0.4372    -2.6136    -3.4705 C.ar    
  17 C17            1.5402    -3.4419    -3.3625 C.ar    
  18 C18            2.5035    -3.1992    -2.3995 C.ar    
  19 C19            2.3727    -2.1247    -1.5441 C.ar    
  20 O20           -5.0034    -1.6792    -2.0181 O.3     
  21 C21           -5.3042    -3.0310    -1.6656 C.3     
  22 H22            4.8269     2.7071     1.5864 H       
  23 H23            4.4816     0.9783     1.3406 H       
  24 H24            4.4956     2.0895    -0.0498 H       
  25 H25           -1.9497     1.6316    -1.7532 H       
  26 H26           -4.1242     0.7420    -2.4844 H       
  27 H27           -3.2085    -3.0096    -0.6539 H       
  28 H28           -1.0303    -2.1256     0.0727 H       
  29 H29           -0.5705    -0.8940    -2.7021 H       
  30 H30           -0.3114    -2.8087    -4.2242 H       
  31 H31            1.6495    -4.2817    -4.0326 H       
  32 H32            3.3619    -3.8497    -2.3201 H       
  33 H33            3.1253    -1.9364    -0.7927 H       
  34 H34           -4.5565    -3.6947    -2.0999 H       
  35 H35           -5.2951    -3.1341    -0.5805 H       
  36 H36           -6.2903    -3.2953    -2.0475 H       
@<TRIPOS>BOND
   1    1    2 1
   2    1    5 1
   3    2    3 1
   4    2    7 1
   5    3    4 2
   6    3    8 1
   7    4    5 1
   8    5    6 2
   9    6    9 1
  10    7   10 ar
  11    7   14 ar
  12    8   15 ar
  13    8   19 ar
  14    9   22 1
  15    9   23 1
  16    9   24 1
  17   10   11 ar
  18   10   25 1
  19   11   12 ar
  20   11   26 1
  21   12   13 ar
  22   12   20 1
  23   13   14 ar
  24   13   27 1
  25   14   28 1
  26   15   16 ar
  27   15   29 1
  28   16   17 ar
  29   16   30 1
  30   17   18 ar
  31   17   31 1
  32   18   19 ar
  33   18   32 1
  34   19   33 1
  35   20   21 1
  36   21   34 1
  37   21   35 1
  38   21   36 1

#	End of record

