#	Name: ASD01884188
#	Creating user name:	WinNT
#	Creation time:	15. 06. 2019 19:47

#	Modifying user name:	WinNT
#	Modification time:	15. 06. 2019 19:47

#	Program:	/corina/corina34_cracker 3.40 0067  02.08.2006

@<TRIPOS>MOLECULE
ASD01884188
  35   38    0    0    0
SMALL
NO_CHARGES


@<TRIPOS>ATOM
   1 C1            -0.0180     1.4762     0.0102 C.ar    
   2 C2             0.0021    -0.0041     0.0020 C.ar    
   3 C3             0.9915    -0.6940    -0.7019 C.ar    
   4 C4             1.0153    -2.0657    -0.7133 C.ar    
   5 C5             0.0473    -2.8107    -0.0192 C.ar    
   6 C6            -0.9364    -2.1069     0.6806 C.ar    
   7 C7            -0.9634    -0.7272     0.7019 C.ar    
   8 N8            -0.0639    -4.1852     0.0659 N.am    
   9 C9            -1.0645    -4.7054     0.7828 C.2     
  10 S10           -1.9748    -3.3292     1.4275 S.3     
  11 C11            0.8963    -5.0556    -0.6171 C.3     
  12 C12            2.0696    -5.3539     0.3185 C.3     
  13 C13            3.1277    -6.3456    -0.1692 C.3     
  14 O14           -1.3025    -5.8862     0.9573 O.2     
  15 C15            3.4528    -4.8521    -0.1008 C.3     
  16 F16            3.5479    -4.1557    -1.3104 F       
  17 F17            4.3193    -4.4253     0.9113 F       
  18 C18            1.1929     2.1930     0.0024 C.ar    
  19 C19            1.1475     3.5918     0.0099 C.ar    
  20 C20           -0.0906     4.2095     0.0246 C.ar    
  21 C21           -1.2392     3.4363     0.0315 C.ar    
  22 N22           -1.1771     2.1204     0.0192 N.ar    
  23 C23            2.4481     1.5040    -0.0123 C.1     
  24 N24            3.4439     0.9574    -0.0240 N.1     
  25 H25            1.7455    -0.1419    -1.2433 H       
  26 H26            1.7890    -2.5801    -1.2639 H       
  27 H27           -1.7353    -0.2091     1.2515 H       
  28 H28            0.4068    -5.9891    -0.8950 H       
  29 H29            1.2644    -4.5574    -1.5140 H       
  30 H30            1.8344    -5.3518     1.3829 H       
  31 H31            3.5889    -6.9956     0.5743 H       
  32 H32            2.9879    -6.7855    -1.1566 H       
  33 H33            2.0566     4.1748     0.0047 H       
  34 H34           -0.1605     5.2872     0.0311 H       
  35 H35           -2.2042     3.9211     0.0433 H       
@<TRIPOS>BOND
   1    1    2 1
   2    1   18 ar
   3    1   22 ar
   4    2    3 ar
   5    2    7 ar
   6    3    4 ar
   7    3   25 1
   8    4    5 ar
   9    4   26 1
  10    5    6 ar
  11    5    8 1
  12    6    7 ar
  13    6   10 1
  14    7   27 1
  15    8    9 am
  16    8   11 1
  17    9   10 1
  18    9   14 2
  19   11   12 1
  20   11   28 1
  21   11   29 1
  22   12   13 1
  23   12   15 1
  24   12   30 1
  25   13   15 1
  26   13   31 1
  27   13   32 1
  28   15   16 1
  29   15   17 1
  30   18   19 ar
  31   18   23 1
  32   19   20 ar
  33   19   33 1
  34   20   21 ar
  35   20   34 1
  36   21   22 ar
  37   21   35 1
  38   23   24 3

#	End of record

