#	Name: ASD03090656
#	Creating user name:	WinNT
#	Creation time:	15. 06. 2019 20:29

#	Modifying user name:	WinNT
#	Modification time:	15. 06. 2019 20:29

#	Program:	/corina/corina34_cracker 3.40 0067  02.08.2006

@<TRIPOS>MOLECULE
ASD03090656
  38   39    0    0    0
SMALL
NO_CHARGES


@<TRIPOS>ATOM
   1 N1            -0.1849     1.5493     0.2420 N.am    
   2 C2             0.2376     0.2887     0.4632 C.2     
   3 O3             1.4059     0.0761     0.7248 O.2     
   4 N4            -0.6349    -0.7363     0.3945 N.am    
   5 C5            -0.1784    -2.0533     0.5179 C.ar    
   6 C6            -0.9552    -3.0007     1.1721 C.ar    
   7 C7            -0.5018    -4.2995     1.2922 C.ar    
   8 C8             0.7246    -4.6572     0.7623 C.ar    
   9 C9             1.5003    -3.7164     0.1106 C.ar    
  10 C10            1.0496    -2.4170    -0.0183 C.ar    
  11 C11           -1.3440    -5.3282     2.0018 C.3     
  12 F12           -2.1886    -5.9559     1.0799 F       
  13 F13           -0.5118    -6.2824     2.5968 F       
  14 F14           -2.1137    -4.7012     2.9876 F       
  15 C15            0.6951     2.6249     0.4224 C.ar    
  16 C16            0.5178     3.7963    -0.3019 C.ar    
  17 C17            1.3852     4.8558    -0.1237 C.ar    
  18 C18            2.4336     4.7501     0.7787 C.ar    
  19 C19            2.6113     3.5804     1.5024 C.ar    
  20 C20            1.7410     2.5219     1.3293 C.ar    
  21 O21            3.2877     5.7937     0.9534 O.3     
  22 C22           -0.6207     3.9111    -1.2825 C.3     
  23 C23           -1.8874     4.3491    -0.5444 C.3     
  24 H24           -1.0968     1.7117    -0.0459 H       
  25 H25           -1.5794    -0.5610     0.2595 H       
  26 H26           -1.9127    -2.7218     1.5867 H       
  27 H27            1.0773    -5.6735     0.8582 H       
  28 H28            2.4575    -3.9988    -0.3021 H       
  29 H29            1.6540    -1.6836    -0.5315 H       
  30 H30            1.2476     5.7668    -0.6872 H       
  31 H31            3.4277     3.4987     2.2047 H       
  32 H32            1.8766     1.6129     1.8964 H       
  33 H33            3.0157     6.4132     1.6442 H       
  34 H34           -0.3708     4.6492    -2.0446 H       
  35 H35           -0.7918     2.9441    -1.7554 H       
  36 H36           -2.7108     4.4321    -1.2536 H       
  37 H37           -2.1373     3.6110     0.2178 H       
  38 H38           -1.7163     5.3161    -0.0714 H       
@<TRIPOS>BOND
   1    1    2 am
   2    1   15 1
   3    1   24 1
   4    2    3 2
   5    2    4 am
   6    4    5 1
   7    4   25 1
   8    5    6 ar
   9    5   10 ar
  10    6    7 ar
  11    6   26 1
  12    7    8 ar
  13    7   11 1
  14    8    9 ar
  15    8   27 1
  16    9   10 ar
  17    9   28 1
  18   10   29 1
  19   11   12 1
  20   11   13 1
  21   11   14 1
  22   15   16 ar
  23   15   20 ar
  24   16   17 ar
  25   16   22 1
  26   17   18 ar
  27   17   30 1
  28   18   19 ar
  29   18   21 1
  30   19   20 ar
  31   19   31 1
  32   20   32 1
  33   21   33 1
  34   22   23 1
  35   22   34 1
  36   22   35 1
  37   23   36 1
  38   23   37 1
  39   23   38 1

#	End of record

