#	Name: ASD05250047
#	Creating user name:	WinNT
#	Creation time:	15. 06. 2019 20:58

#	Modifying user name:	WinNT
#	Modification time:	15. 06. 2019 20:58

#	Program:	/corina/corina34_cracker 3.40 0067  02.08.2006

@<TRIPOS>MOLECULE
ASD05250047
  54   57    0    0    0
SMALL
NO_CHARGES


@<TRIPOS>ATOM
   1 C1             1.3995     2.1206     3.2993 C.ar    
   2 C2             1.1065     0.7763     3.1720 C.ar    
   3 C3             1.9848    -0.0756     2.5220 C.ar    
   4 C4             3.1604     0.4320     1.9991 C.ar    
   5 C5             3.4523     1.8092     2.0836 C.ar    
   6 C6             2.5652     2.6502     2.7598 C.ar    
   7 C7             4.1797    -0.4395     1.3498 C.2     
   8 C8             4.8515     0.1485     0.1374 C.3     
   9 C9             5.3928     1.5159     0.5119 C.2     
  10 C10            4.6698     2.3211     1.4320 C.2     
  11 C11            5.8181    -0.7562    -0.6023 C.3     
  12 C12            7.2834    -0.2912    -0.5220 C.3     
  13 C13            7.2999     1.1572    -1.0506 C.3     
  14 C14            6.5351     1.9734    -0.0375 C.2     
  15 C15            8.1055    -1.1800    -1.4544 C.3     
  16 C16            9.4512    -0.6083    -1.8085 C.2     
  17 C17            9.7538     0.7134    -1.5972 C.2     
  18 C18            8.7442     1.6016    -1.0081 C.2     
  19 O19            2.8277     3.9734     2.8958 O.3     
  20 O20            5.0481     3.4487     1.6946 O.2     
  21 O21            6.9847     3.1983     0.3141 O.3     
  22 O22            6.7423     1.2611    -2.3642 O.3     
  23 O23            9.0957     2.6532    -0.5216 O.2     
  24 N24            8.3410    -2.4769    -0.7965 N.3     
  25 C25            8.7675    -3.4912    -1.7697 C.3     
  26 C26            9.3204    -2.3455     0.2905 C.3     
  27 C27           11.0791     1.2416    -1.9539 C.2     
  28 O28           11.9009     1.4602    -1.0842 O.2     
  29 N29           11.3832     1.4835    -3.2444 N.am    
  30 O30           10.3792    -1.4166    -2.3458 O.3     
  31 C31            4.4369    -1.6156     1.8936 C.2     
  32 O32            5.7105    -2.1239    -0.2648 O.3     
  33 H33            0.7116     2.7702     3.8212 H       
  34 H34            0.1871     0.3848     3.5801 H       
  35 H35            1.7433    -1.1232     2.4263 H       
  36 H36            4.0351     0.3619    -0.5706 H       
  37 H37            5.5456    -0.6873    -1.6786 H       
  38 H38            7.6494    -0.3384     0.4984 H       
  39 H39            7.5446    -1.3545    -2.3710 H       
  40 H40            2.4798     4.5193     2.1774 H       
  41 H41            6.7243     3.9399    -0.2492 H       
  42 H42            6.7400     2.1600    -2.7206 H       
  43 H43            9.7275    -3.2028    -2.1980 H       
  44 H44            8.8673    -4.4548    -1.2700 H       
  45 H45            8.0242    -3.5687    -2.5632 H       
  46 H46            8.9471    -1.6398     1.0326 H       
  47 H47            9.4756    -3.3173     0.7591 H       
  48 H48           10.2651    -1.9820    -0.1136 H       
  49 H49           10.7024     1.3892    -3.9290 H       
  50 H50           12.2827     1.7519    -3.4887 H       
  51 H51           11.2514    -1.0337    -2.5124 H       
  52 H52            3.8273    -1.9792     2.7075 H       
  53 H53            5.2569    -2.2136     1.5241 H       
  54 H54            4.8401    -2.5056    -0.4429 H       
@<TRIPOS>BOND
   1    1    2 ar
   2    1    6 ar
   3    1   33 1
   4    2    3 ar
   5    2   34 1
   6    3    4 ar
   7    3   35 1
   8    4    5 ar
   9    4    7 1
  10    5    6 ar
  11    5   10 1
  12    6   19 1
  13    7    8 1
  14    7   31 2
  15    8    9 1
  16    8   11 1
  17    8   36 1
  18    9   10 1
  19    9   14 2
  20   10   20 2
  21   11   12 1
  22   11   32 1
  23   11   37 1
  24   12   13 1
  25   12   15 1
  26   12   38 1
  27   13   14 1
  28   13   22 1
  29   13   18 1
  30   14   21 1
  31   15   16 1
  32   15   24 1
  33   15   39 1
  34   16   17 2
  35   16   30 1
  36   17   18 1
  37   17   27 1
  38   18   23 2
  39   19   40 1
  40   21   41 1
  41   22   42 1
  42   24   25 1
  43   24   26 1
  44   25   43 1
  45   25   44 1
  46   25   45 1
  47   26   46 1
  48   26   47 1
  49   26   48 1
  50   27   28 2
  51   27   29 am
  52   29   49 1
  53   29   50 1
  54   30   51 1
  55   31   52 1
  56   31   53 1
  57   32   54 1

#	End of record

