#	Name: ASD01200490
#	Creating user name:	WinNT
#	Creation time:	15. 06. 2019 19:09

#	Modifying user name:	WinNT
#	Modification time:	15. 06. 2019 19:09

#	Program:	/corina/corina34_cracker 3.40 0067  02.08.2006

@<TRIPOS>MOLECULE
ASD01200490
  28   29    0    0    0
SMALL
NO_CHARGES


@<TRIPOS>ATOM
   1 N1             2.2306     1.3387     0.5646 N.ar    
   2 C2             2.2415     0.0208     0.5646 C.ar    
   3 C3             1.2056    -0.6960    -0.0207 C.ar    
   4 C4             0.1516    -0.0017    -0.6089 C.ar    
   5 C5             0.1813     1.3832    -0.5853 C.ar    
   6 C6             1.2474     2.0255     0.0160 C.ar    
   7 N7             1.2212    -2.0949    -0.0195 N.am    
   8 C8             0.0667    -2.7816     0.0900 C.2     
   9 O9            -0.9773    -2.1888     0.2859 O.2     
  10 C10           -1.0532    -5.0107     0.0716 C.2     
  11 C11            0.0691    -4.2485    -0.0273 C.2     
  12 C12            1.2633    -5.0269    -0.2599 C.2     
  13 C13            1.0286    -6.3317    -0.3310 C.2     
  14 S14           -0.6810    -6.6637    -0.1139 S.3     
  15 C15            2.0836    -7.3819    -0.5662 C.3     
  16 C16           -2.4371    -4.4678     0.3182 C.3     
  17 H17            3.0642    -0.5070     1.0238 H       
  18 H18           -0.6685    -0.5297    -1.0725 H       
  19 H19           -0.6191     1.9544    -1.0319 H       
  20 H20            1.2755     3.1050     0.0372 H       
  21 H21            2.0630    -2.5706    -0.0975 H       
  22 H22            2.2463    -4.5921    -0.3655 H       
  23 H23            2.4831    -7.7164     0.3912 H       
  24 H24            1.6424    -8.2288    -1.0917 H       
  25 H25            2.8883    -6.9599    -1.1683 H       
  26 H26           -2.9180    -4.2517    -0.6359 H       
  27 H27           -3.0256    -5.2064     0.8625 H       
  28 H28           -2.3689    -3.5525     0.9062 H       
@<TRIPOS>BOND
   1    1    2 ar
   2    1    6 ar
   3    2    3 ar
   4    2   17 1
   5    3    4 ar
   6    3    7 1
   7    4    5 ar
   8    4   18 1
   9    5    6 ar
  10    5   19 1
  11    6   20 1
  12    7    8 am
  13    7   21 1
  14    8    9 2
  15    8   11 1
  16   10   11 2
  17   10   14 1
  18   10   16 1
  19   11   12 1
  20   12   13 2
  21   12   22 1
  22   13   14 1
  23   13   15 1
  24   15   23 1
  25   15   24 1
  26   15   25 1
  27   16   26 1
  28   16   27 1
  29   16   28 1

#	End of record

