#	Name: ASD01810953
#	Creating user name:	WinNT
#	Creation time:	15. 06. 2019 19:25

#	Modifying user name:	WinNT
#	Modification time:	15. 06. 2019 19:25

#	Program:	/corina/corina34_cracker 3.40 0067  02.08.2006

@<TRIPOS>MOLECULE
ASD01810953
  35   36    0    0    0
SMALL
NO_CHARGES


@<TRIPOS>ATOM
   1 C1             0.2896     1.4589     0.1250 C.2     
   2 C2             0.1510    -0.0105     0.0586 C.ar    
   3 C3             1.2171    -0.7950    -0.3891 C.ar    
   4 C4             1.0886    -2.1678    -0.4509 C.ar    
   5 C5            -0.0928    -2.7748    -0.0713 C.ar    
   6 C6            -1.1652    -2.0029     0.3776 C.ar    
   7 C7            -1.0415    -0.6181     0.4478 C.ar    
   8 O8             1.3638     1.9786    -0.1019 O.2     
   9 O9            -0.7768     2.2228     0.4318 O.3     
  10 S10           -3.8316    -1.6753     1.2085 S.3     
  11 C11           -5.0223    -2.9810     1.6001 C.3     
  12 C12           -2.4308    -2.6561     0.7834 C.2     
  13 N13           -2.5086    -3.9566     0.8261 N.2     
  14 C14           -0.2241    -4.2744    -0.1427 C.3     
  15 C15            2.5094    -0.1410    -0.8055 C.3     
  16 C16            3.7419    -0.3941     0.0650 C.3     
  17 C17            3.6302    -1.0507    -1.3125 C.3     
  18 C18           -0.5672     3.6588     0.4789 C.3     
  19 H19            1.9152    -2.7701    -0.7979 H       
  20 H20           -1.8671    -0.0169     0.7988 H       
  21 H21           -5.9717    -2.5316     1.8913 H       
  22 H22           -5.1723    -3.6109     0.7232 H       
  23 H23           -4.6401    -3.5870     2.4216 H       
  24 H24           -3.3376    -4.3845     1.0919 H       
  25 H25           -0.0383    -4.7027     0.8422 H       
  26 H26           -1.2309    -4.5359    -0.4685 H       
  27 H27            0.5018    -4.6692    -0.8535 H       
  28 H28            2.4117     0.8421    -1.2659 H       
  29 H29            4.4552     0.4224     0.1770 H       
  30 H30            3.6181    -1.0337     0.9389 H       
  31 H31            3.4330    -2.1222    -1.3448 H       
  32 H32            4.2701    -0.6662    -2.1067 H       
  33 H33           -1.5033     4.1544     0.7364 H       
  34 H34            0.1860     3.8916     1.2316 H       
  35 H35           -0.2271     4.0086    -0.4958 H       
@<TRIPOS>BOND
   1    1    2 1
   2    1    8 2
   3    1    9 1
   4    2    3 ar
   5    2    7 ar
   6    3    4 ar
   7    3   15 1
   8    4    5 ar
   9    4   19 1
  10    5    6 ar
  11    5   14 1
  12    6    7 ar
  13    6   12 1
  14    7   20 1
  15    9   18 1
  16   10   11 1
  17   10   12 1
  18   11   21 1
  19   11   22 1
  20   11   23 1
  21   12   13 2
  22   13   24 1
  23   14   25 1
  24   14   26 1
  25   14   27 1
  26   15   16 1
  27   15   17 1
  28   15   28 1
  29   16   17 1
  30   16   29 1
  31   16   30 1
  32   17   31 1
  33   17   32 1
  34   18   33 1
  35   18   34 1
  36   18   35 1

#	End of record

