#	Name: ASD02198446
#	Creating user name:	WinNT
#	Creation time:	15. 06. 2019 20:19

#	Modifying user name:	WinNT
#	Modification time:	15. 06. 2019 20:19

#	Program:	/corina/corina34_cracker 3.40 0067  02.08.2006

@<TRIPOS>MOLECULE
ASD02198446
  46   48    0    0    0
SMALL
NO_CHARGES


@<TRIPOS>ATOM
   1 O1             0.0021    -0.0041     0.0020 O.2     
   2 S2            -0.0172     1.4168     0.0098 S.o2    
   3 O3             1.1617     2.2101     0.0028 O.2     
   4 C4            -0.9567     1.9094    -1.3970 C.ar    
   5 N5            -0.8748     1.8654     1.3536 N.am    
   6 C6            -2.1730     1.2472     1.6342 C.3     
   7 C7            -2.5752     1.5401     3.0810 C.3     
   8 S8            -4.1791     0.7763     3.4277 S.3     
   9 C9            -4.3905     1.2585     5.1092 C.ar    
  10 C10           -5.5442     0.8800     5.8385 C.ar    
  11 C11           -5.6670     1.2919     7.1870 C.ar    
  12 N12           -4.7018     2.0270     7.7517 N.ar    
  13 C13           -3.6280     2.3844     7.0859 C.ar    
  14 C14           -3.4297     2.0158     5.7628 C.ar    
  15 C15           -6.5581     0.1114     5.2521 C.ar    
  16 C16           -7.6536    -0.2325     5.9867 C.ar    
  17 C17           -7.7779     0.1711     7.3132 C.ar    
  18 C18           -6.8102     0.9181     7.9133 C.ar    
  19 C19           -2.5779     3.2127     7.7803 C.3     
  20 F20           -2.9203     3.3652     9.1282 F       
  21 F21           -1.3386     2.5709     7.6837 F       
  22 F22           -2.5000     4.4709     7.1737 F       
  23 C23           -0.7689     3.1637    -1.9477 C.ar    
  24 C24           -1.5043     3.5522    -3.0507 C.ar    
  25 C25           -2.4319     2.6828    -3.6059 C.ar    
  26 C26           -2.6185     1.4248    -3.0515 C.ar    
  27 C27           -1.8766     1.0389    -1.9519 C.ar    
  28 O28           -3.1568     3.0629    -4.6907 O.3     
  29 C29           -4.0935     2.1163    -5.2091 C.3     
  30 H30           -0.5175     2.5375     1.9549 H       
  31 H31           -2.9239     1.6564     0.9584 H       
  32 H32           -2.1013     0.1694     1.4881 H       
  33 H33           -1.8243     1.1310     3.7569 H       
  34 H34           -2.6469     2.6179     3.2271 H       
  35 H35           -2.5357     2.3249     5.2416 H       
  36 H36           -6.4723    -0.2066     4.2236 H       
  37 H37           -8.4348    -0.8250     5.5340 H       
  38 H38           -8.6552    -0.1131     7.8754 H       
  39 H39           -6.9218     1.2233     8.9433 H       
  40 H40           -0.0469     3.8403    -1.5149 H       
  41 H41           -1.3574     4.5322    -3.4802 H       
  42 H42           -3.3400     0.7462    -3.4818 H       
  43 H43           -2.0212     0.0596    -1.5202 H       
  44 H44           -3.5661     1.2116    -5.5116 H       
  45 H45           -4.8251     1.8702    -4.4395 H       
  46 H46           -4.6037     2.5451    -6.0716 H       
@<TRIPOS>BOND
   1    1    2 2
   2    2    3 2
   3    2    4 1
   4    2    5 am
   5    4   23 ar
   6    4   27 ar
   7    5    6 1
   8    5   30 1
   9    6    7 1
  10    6   31 1
  11    6   32 1
  12    7    8 1
  13    7   33 1
  14    7   34 1
  15    8    9 1
  16    9   10 ar
  17    9   14 ar
  18   10   11 ar
  19   10   15 ar
  20   11   12 ar
  21   11   18 ar
  22   12   13 ar
  23   13   14 ar
  24   13   19 1
  25   14   35 1
  26   15   16 ar
  27   15   36 1
  28   16   17 ar
  29   16   37 1
  30   17   18 ar
  31   17   38 1
  32   18   39 1
  33   19   20 1
  34   19   21 1
  35   19   22 1
  36   23   24 ar
  37   23   40 1
  38   24   25 ar
  39   24   41 1
  40   25   26 ar
  41   25   28 1
  42   26   27 ar
  43   26   42 1
  44   27   43 1
  45   28   29 1
  46   29   44 1
  47   29   45 1
  48   29   46 1

#	End of record

