#	Name: ASD01411088
#	Creating user name:	WinNT
#	Creation time:	15. 06. 2019 19:19

#	Modifying user name:	WinNT
#	Modification time:	15. 06. 2019 19:19

#	Program:	/corina/corina34_cracker 3.40 0067  02.08.2006

@<TRIPOS>MOLECULE
ASD01411088
  43   46    0    0    0
SMALL
NO_CHARGES


@<TRIPOS>ATOM
   1 C1            -0.0715     1.5490     0.4625 C.2     
   2 C2            -0.1012     0.1222     0.6888 C.ar    
   3 C3             1.2225     1.8970     0.2720 C.2     
   4 C4            -1.2056     2.5426     0.4320 C.3     
   5 C5             1.2479    -0.3123     0.6153 C.ar    
   6 C6            -1.1408    -0.7809     0.9387 C.ar    
   7 C7             1.6531     3.3196     0.0023 C.3     
   8 N8             2.0177     0.7885     0.3628 N.pl3   
   9 C9            -0.6024     3.9499     0.5476 C.3     
  10 C10            1.5735    -1.6562     0.7906 C.ar    
  11 C11           -0.7880    -2.1083     1.1086 C.ar    
  12 Cl12          -2.7944    -0.2606     1.0317 Cl      
  13 O13            0.4925     4.0763    -0.3641 O.3     
  14 C14            2.2817     3.9165     1.2630 C.3     
  15 C15            2.6686     3.3436    -1.1419 C.3     
  16 C16            0.5287    -2.5317     1.0364 C.ar    
  17 Cl17           3.2170    -2.2088     0.7039 Cl      
  18 C18            2.0366     2.7754    -2.3864 C.2     
  19 H19            2.9825     0.7839     0.2628 H       
  20 O20            0.8915     2.3908    -2.3609 O.2     
  21 O21            2.7459     2.6966    -3.5233 O.3     
  22 H22            2.2978     2.3250    -4.2954 H       
  23 C23            3.5372     3.1129     1.6836 C.3     
  24 C24            4.3684     4.1152     2.5109 C.3     
  25 C25            3.9367     5.5217     2.0602 C.3     
  26 C26            2.8582     5.3250     0.9749 C.3     
  27 H27           -1.7510     2.4510    -0.5073 H       
  28 H28           -1.8787     2.3598     1.2696 H       
  29 H29           -1.3636     4.6923     0.3081 H       
  30 H30           -0.2459     4.1100     1.5652 H       
  31 H31           -1.5623    -2.8356     1.3035 H       
  32 H32            1.5557     3.9519     2.0753 H       
  33 H33            2.9805     4.3710    -1.3294 H       
  34 H34            3.5372     2.7441    -0.8693 H       
  35 H35            0.7483    -3.5798     1.1766 H       
  36 H36            3.2545     2.2558     2.2948 H       
  37 H37            4.0947     2.7887     0.8049 H       
  38 H38            4.1625     3.9839     3.5731 H       
  39 H39            5.4309     3.9702     2.3153 H       
  40 H40            3.5212     6.0729     2.9038 H       
  41 H41            4.7896     6.0593     1.6460 H       
  42 H42            3.3060     5.3581    -0.0183 H       
  43 H43            2.0798     6.0823     1.0688 H       
@<TRIPOS>BOND
   1    1    2 1
   2    1    3 2
   3    1    4 1
   4    2    5 ar
   5    2    6 ar
   6    3    7 1
   7    3    8 1
   8    4    9 1
   9    4   27 1
  10    4   28 1
  11    5   10 ar
  12    5    8 1
  13    6   11 ar
  14    6   12 1
  15    7   14 1
  16    7   15 1
  17    7   13 1
  18    8   19 1
  19    9   13 1
  20    9   29 1
  21    9   30 1
  22   10   16 ar
  23   10   17 1
  24   11   16 ar
  25   11   31 1
  26   14   23 1
  27   14   26 1
  28   14   32 1
  29   15   18 1
  30   15   33 1
  31   15   34 1
  32   16   35 1
  33   18   20 2
  34   18   21 1
  35   21   22 1
  36   23   24 1
  37   23   36 1
  38   23   37 1
  39   24   25 1
  40   24   38 1
  41   24   39 1
  42   25   26 1
  43   25   40 1
  44   25   41 1
  45   26   42 1
  46   26   43 1

#	End of record

