#	Name: ASD01884335
#	Creating user name:	WinNT
#	Creation time:	15. 06. 2019 19:48

#	Modifying user name:	WinNT
#	Modification time:	15. 06. 2019 19:48

#	Program:	/corina/corina34_cracker 3.40 0067  02.08.2006

@<TRIPOS>MOLECULE
ASD01884335
  47   49    0    0    0
SMALL
NO_CHARGES


@<TRIPOS>ATOM
   1 C1             0.0407     1.3470    -0.1273 C.ar    
   2 C2             0.0923    -0.0301    -0.1296 C.ar    
   3 C3             1.3194    -0.6815     0.0038 C.ar    
   4 C4             2.4908     0.0644     0.1392 C.ar    
   5 C5             2.4324     1.4424     0.1408 C.ar    
   6 C6             1.2082     2.0875     0.0077 C.ar    
   7 C7             1.3779    -2.1610     0.0022 C.2     
   8 C8             2.0275    -2.8403    -1.0187 C.2     
   9 C9             0.7781    -2.9053     1.0437 C.2     
  10 C10            0.8414    -4.2534     1.0268 C.2     
  11 N11            1.4752    -4.9115     0.0201 N.am    
  12 C12            2.0638    -4.2420    -0.9880 C.2     
  13 O13            2.6269    -4.8564    -1.8805 O.2     
  14 O14            1.1536     3.4445     0.0095 O.3     
  15 C15            1.3403     4.0921    -1.1705 C.ar    
  16 C16            1.6495     3.3800    -2.3250 C.ar    
  17 C17            1.8307     4.0845    -3.5044 C.ar    
  18 C18            1.6995     5.4604    -3.4957 C.ar    
  19 N19            1.4054     6.1055    -2.3836 N.ar    
  20 C20            1.2195     5.4727    -1.2424 C.ar    
  21 Cl21           2.7835    -1.9679    -2.3152 Cl      
  22 C22            1.5232    -6.3757     0.0360 C.3     
  23 C23            0.3058    -6.9339    -0.7038 C.3     
  24 C24            0.8853     6.2578    -0.0002 C.3     
  25 C25            0.3559    -8.4630    -0.6872 C.3     
  26 C26           -0.8614    -9.0212    -1.4270 C.3     
  27 Cl27           3.8889     2.3719     0.3092 Cl      
  28 H28           -0.9083     1.8512    -0.2350 H       
  29 H29           -0.8160    -0.6048    -0.2342 H       
  30 H30            3.4419    -0.4367     0.2430 H       
  31 H31            0.2713    -2.3969     1.8505 H       
  32 H32            0.3819    -4.8176     1.8249 H       
  33 H33            1.7463     2.3046    -2.3025 H       
  34 H34            2.0721     3.5645    -4.4197 H       
  35 H35            1.8399     6.0147    -4.4118 H       
  36 H36            2.4346    -6.7147    -0.4565 H       
  37 H37            1.5148    -6.7283     1.0673 H       
  38 H38           -0.6055    -6.5949    -0.2113 H       
  39 H39            0.3143    -6.5813    -1.7352 H       
  40 H40           -0.1967     6.3575     0.0865 H       
  41 H41            1.2734     5.7362     0.8747 H       
  42 H42            1.3375     7.2476    -0.0633 H       
  43 H43            1.2673    -8.8020    -1.1797 H       
  44 H44            0.3475    -8.8156     0.3441 H       
  45 H45           -1.7728    -8.6822    -0.9346 H       
  46 H46           -0.8530    -8.6686    -2.4584 H       
  47 H47           -0.8257   -10.1105    -1.4152 H       
@<TRIPOS>BOND
   1    1    2 ar
   2    1    6 ar
   3    1   28 1
   4    2    3 ar
   5    2   29 1
   6    3    4 ar
   7    3    7 1
   8    4    5 ar
   9    4   30 1
  10    5    6 ar
  11    5   27 1
  12    6   14 1
  13    7    8 2
  14    7    9 1
  15    8   21 1
  16    8   12 1
  17    9   10 2
  18    9   31 1
  19   10   11 1
  20   10   32 1
  21   11   12 am
  22   11   22 1
  23   12   13 2
  24   14   15 1
  25   15   16 ar
  26   15   20 ar
  27   16   17 ar
  28   16   33 1
  29   17   18 ar
  30   17   34 1
  31   18   19 ar
  32   18   35 1
  33   19   20 ar
  34   20   24 1
  35   22   23 1
  36   22   36 1
  37   22   37 1
  38   23   25 1
  39   23   38 1
  40   23   39 1
  41   24   40 1
  42   24   41 1
  43   24   42 1
  44   25   26 1
  45   25   43 1
  46   25   44 1
  47   26   45 1
  48   26   46 1
  49   26   47 1

#	End of record

