#	Name: ASD04590270
#	Creating user name:	WinNT
#	Creation time:	15. 06. 2019 20:50

#	Modifying user name:	WinNT
#	Modification time:	15. 06. 2019 20:50

#	Program:	/corina/corina34_cracker 3.40 0067  02.08.2006

@<TRIPOS>MOLECULE
ASD04590270
  33   36    0    0    0
SMALL
NO_CHARGES


@<TRIPOS>ATOM
   1 C1            -0.0167     1.3832     0.0096 C.ar    
   2 C2             0.0021    -0.0041     0.0020 C.ar    
   3 C3             1.1969    -0.6869    -0.0131 C.ar    
   4 C4             2.4020     0.0223    -0.0208 C.ar    
   5 C5             2.3769     1.4283    -0.0131 C.ar    
   6 C6             1.1624     2.0986     0.0022 C.ar    
   7 N7             3.7040    -0.3552    -0.0358 N.2     
   8 C8             4.4709     0.7083    -0.0377 C.2     
   9 N9             3.6969     1.8375    -0.0240 N.pl3   
  10 C10            5.9482     0.6906    -0.0517 C.2     
  11 C11            6.7657    -0.4631    -0.0656 C.2     
  12 C12            8.0579    -0.0539    -0.0764 C.2     
  13 N13            8.0646     1.3051    -0.0696 N.pl3   
  14 N14            6.7360     1.7480    -0.0591 N.2     
  15 N15            6.3189    -1.7943    -0.0672 N.am    
  16 C16            7.2109    -2.8045    -0.0813 C.2     
  17 C17            6.7442    -4.1947    -0.0830 C.2     
  18 O18            8.4038    -2.5630    -0.0926 O.2     
  19 O19            5.4571    -4.5989    -0.0719 O.3     
  20 C20            7.5362    -5.3069    -0.1020 C.2     
  21 C21            6.6752    -6.4155    -0.0967 C.2     
  22 C22            5.4115    -5.9375    -0.0784 C.2     
  23 H23           -0.9614     1.9066     0.0170 H       
  24 H24           -0.9283    -0.5525     0.0084 H       
  25 H25            1.2037    -1.7669    -0.0186 H       
  26 H26            1.1403     3.1784     0.0079 H       
  27 H27            4.0155     2.7537    -0.0225 H       
  28 H28            8.9277    -0.6941    -0.0877 H       
  29 H29            8.8529     1.8703    -0.0746 H       
  30 H30            5.3682    -1.9868    -0.0582 H       
  31 H31            8.6159    -5.3293    -0.1179 H       
  32 H32            6.9678    -7.4551    -0.1083 H       
  33 H33            4.5127    -6.5362    -0.0699 H       
@<TRIPOS>BOND
   1    1    2 ar
   2    1    6 ar
   3    1   23 1
   4    2    3 ar
   5    2   24 1
   6    3    4 ar
   7    3   25 1
   8    4    5 ar
   9    4    7 1
  10    5    6 ar
  11    5    9 1
  12    6   26 1
  13    7    8 2
  14    8    9 1
  15    8   10 1
  16    9   27 1
  17   10   11 1
  18   10   14 2
  19   11   12 2
  20   11   15 1
  21   12   13 1
  22   12   28 1
  23   13   14 1
  24   13   29 1
  25   15   16 am
  26   15   30 1
  27   16   17 1
  28   16   18 2
  29   17   19 1
  30   17   20 2
  31   19   22 1
  32   20   21 1
  33   20   31 1
  34   21   22 2
  35   21   32 1
  36   22   33 1

#	End of record

