#	Name: ASD00111072
#	Creating user name:	WinNT
#	Creation time:	15. 06. 2019 18:30

#	Modifying user name:	WinNT
#	Modification time:	15. 06. 2019 18:30

#	Program:	/corina/corina34_cracker 3.40 0067  02.08.2006

@<TRIPOS>MOLECULE
ASD00111072
  42   43    0    0    0
SMALL
NO_CHARGES


@<TRIPOS>ATOM
   1 N1             0.2935     1.5681     0.0729 N.am    
   2 C2             0.1648     0.1165    -0.0105 C.3     
   3 C3             0.6296    -0.5206     1.3037 C.3     
   4 C4             2.1399    -0.6024     1.2946 C.ar    
   5 C5             2.8958     0.5387     1.4080 C.ar    
   6 C6             2.2250     1.8876     1.5431 C.3     
   7 C7             1.5779     2.2497     0.2005 C.3     
   8 C8             4.2769     0.4643     1.4007 C.ar    
   9 C9             4.8987    -0.7700     1.2778 C.ar    
  10 C10            4.1330    -1.9219     1.1628 C.ar    
  11 C11            2.7530    -1.8373     1.1719 C.ar    
  12 C12            0.1692     0.3395     2.4823 C.3     
  13 O13            6.2554    -0.8508     1.2697 O.3     
  14 C14            6.9788     0.3815     1.2709 C.3     
  15 C15            7.1361     0.8791     2.7092 C.3     
  16 C16            8.3612     0.1621     0.6531 C.3     
  17 Br17           4.9767    -3.6058     0.9944 Br      
  18 C18           -0.8271     2.3153     0.0240 C.2     
  19 O19           -1.9092     1.7789    -0.0867 O.2     
  20 C20           -0.7355     3.8172     0.1070 C.3     
  21 F21           -2.0199     4.3673     0.0356 F       
  22 F22           -0.1388     4.1818     1.3187 F       
  23 F23            0.0370     4.2967    -0.9562 F       
  24 H24           -0.8778    -0.1451    -0.1914 H       
  25 H25            0.7787    -0.2554    -0.8307 H       
  26 H26            0.2096    -1.5225     1.3930 H       
  27 H27            1.4592     1.8393     2.3173 H       
  28 H28            2.9677     2.6407     1.8065 H       
  29 H29            2.2342     1.9419    -0.6134 H       
  30 H30            1.4226     3.3276     0.1521 H       
  31 H31            4.8688     1.3632     1.4899 H       
  32 H32            2.1551    -2.7323     1.0827 H       
  33 H33           -0.7925    -0.0245     2.8440 H       
  34 H34            0.9049     0.2807     3.2843 H       
  35 H35            0.0670     1.3752     2.1582 H       
  36 H36            6.4336     1.1234     0.6874 H       
  37 H37            7.6879     1.8192     2.7101 H       
  38 H38            6.1513     1.0355     3.1493 H       
  39 H39            7.6813     0.1373     3.2927 H       
  40 H40            8.2491    -0.1924    -0.3715 H       
  41 H41            8.9129     1.1021     0.6540 H       
  42 H42            8.9063    -0.5798     1.2366 H       
@<TRIPOS>BOND
   1    1    2 1
   2    1    7 1
   3    1   18 am
   4    2    3 1
   5    2   24 1
   6    2   25 1
   7    3    4 1
   8    3   12 1
   9    3   26 1
  10    4    5 ar
  11    4   11 ar
  12    5    6 1
  13    5    8 ar
  14    6    7 1
  15    6   27 1
  16    6   28 1
  17    7   29 1
  18    7   30 1
  19    8    9 ar
  20    8   31 1
  21    9   10 ar
  22    9   13 1
  23   10   11 ar
  24   10   17 1
  25   11   32 1
  26   12   33 1
  27   12   34 1
  28   12   35 1
  29   13   14 1
  30   14   15 1
  31   14   16 1
  32   14   36 1
  33   15   37 1
  34   15   38 1
  35   15   39 1
  36   16   40 1
  37   16   41 1
  38   16   42 1
  39   18   19 2
  40   18   20 1
  41   20   21 1
  42   20   22 1
  43   20   23 1

#	End of record

