#	Name: ASD01911314
#	Creating user name:	WinNT
#	Creation time:	15. 06. 2019 19:57

#	Modifying user name:	WinNT
#	Modification time:	15. 06. 2019 19:57

#	Program:	/corina/corina34_cracker 3.40 0067  02.08.2006

@<TRIPOS>MOLECULE
ASD01911314
  30   32    0    0    0
SMALL
NO_CHARGES


@<TRIPOS>ATOM
   1 C1            -0.0167     1.3796     0.0096 C.ar    
   2 C2             0.0021    -0.0041     0.0020 C.ar    
   3 C3             1.2058    -0.6865    -0.0132 C.ar    
   4 C4             2.3967     0.0092    -0.0204 C.ar    
   5 C5             2.3857     1.4065    -0.0128 C.ar    
   6 C6             1.1662     2.0887     0.0021 C.ar    
   7 C7             3.6180     2.1358    -0.0198 C.1     
   8 C8             4.6283     2.7337    -0.0255 C.1     
   9 C9             5.8607     3.4630    -0.0324 C.ar    
  10 C10            5.8437     4.8650    -0.0247 C.ar    
  11 C11            7.0118     5.5708    -0.0312 C.ar    
  12 C12            8.2312     4.9034    -0.0456 C.ar    
  13 C13            8.2677     3.4977    -0.0530 C.ar    
  14 C14            7.0725     2.7784    -0.0410 C.ar    
  15 N15            9.5481     5.3174    -0.0553 N.pl3   
  16 C16           10.3244     4.2003    -0.0680 C.2     
  17 N17            9.5769     3.1356    -0.0666 N.2     
  18 C18           10.0221     6.7036    -0.0531 C.3     
  19 H19           -0.9600     1.9055     0.0170 H       
  20 H20           -0.9273    -0.5541     0.0083 H       
  21 H21            1.2128    -1.7664    -0.0191 H       
  22 H22            3.3355    -0.5247    -0.0316 H       
  23 H23            1.1501     3.1686     0.0077 H       
  24 H24            4.8999     5.3899    -0.0139 H       
  25 H25            6.9888     6.6505    -0.0256 H       
  26 H26            7.0873     1.6985    -0.0465 H       
  27 H27           11.4043     4.1978    -0.0777 H       
  28 H28           10.1487     7.0426     0.9751 H       
  29 H29           10.9771     6.7619    -0.5751 H       
  30 H30            9.2930     7.3377    -0.5575 H       
@<TRIPOS>BOND
   1    1    2 ar
   2    1    6 ar
   3    1   19 1
   4    2    3 ar
   5    2   20 1
   6    3    4 ar
   7    3   21 1
   8    4    5 ar
   9    4   22 1
  10    5    6 ar
  11    5    7 1
  12    6   23 1
  13    7    8 3
  14    8    9 1
  15    9   10 ar
  16    9   14 ar
  17   10   11 ar
  18   10   24 1
  19   11   12 ar
  20   11   25 1
  21   12   13 ar
  22   12   15 1
  23   13   14 ar
  24   13   17 1
  25   14   26 1
  26   15   16 1
  27   15   18 1
  28   16   17 2
  29   16   27 1
  30   18   28 1
  31   18   29 1
  32   18   30 1

#	End of record

