#	Name: ASD01410011
#	Creating user name:	WinNT
#	Creation time:	15. 06. 2019 19:16

#	Modifying user name:	WinNT
#	Modification time:	15. 06. 2019 19:16

#	Program:	/corina/corina34_cracker 3.40 0067  02.08.2006

@<TRIPOS>MOLECULE
ASD01410011
  73   77    0    0    0
SMALL
NO_CHARGES


@<TRIPOS>ATOM
   1 C1             0.1496     1.5677     0.0255 C.3     
   2 C2             0.0081     0.0415     0.0330 C.3     
   3 O3             0.7999    -0.4964    -1.0326 O.3     
   4 C4             2.1071    -0.1560    -1.0364 C.2     
   5 C5             2.5200     1.0747    -0.4734 C.2     
   6 C6             1.6154     1.9237     0.0461 C.2     
   7 C7             0.5020    -0.5135     1.3705 C.3     
   8 C8            -0.3440     0.0440     2.5421 C.3     
   9 C9            -0.1739    -1.0023     3.6629 C.3     
  10 C10            0.2017    -2.3264     2.9748 C.3     
  11 C11            0.2467    -2.0385     1.4599 C.3     
  12 C12           -1.4592    -0.3392    -0.1747 C.3     
  13 C13           -1.9449     0.2147    -1.5156 C.3     
  14 C14           -3.3901    -0.1603    -1.7202 C.ar    
  15 C15           -4.3920     0.6802    -1.2729 C.ar    
  16 C16           -5.7182     0.3371    -1.4606 C.ar    
  17 C17           -6.0426    -0.8469    -2.0952 C.ar    
  18 C18           -5.0400    -1.6888    -2.5432 C.ar    
  19 C19           -3.7134    -1.3422    -2.3602 C.ar    
  20 Cl20          -5.4469    -3.1765    -3.3401 Cl      
  21 C21           -7.4881    -1.2212    -2.2989 C.3     
  22 O22            2.0184     3.0914     0.5856 O.3     
  23 C23            3.9828     1.4365    -0.4558 C.3     
  24 O24            2.9298    -0.9082    -1.5238 O.2     
  25 C25            4.6376     0.8227     0.7548 C.2     
  26 N26            5.1972    -0.3789     0.7942 N.2     
  27 C27            5.6793    -0.6101     2.0101 C.2     
  28 N28            5.4109     0.4947     2.7683 N.pl3   
  29 N29            4.7458     1.3979     1.9288 N.2     
  30 N30            6.3208    -1.6559     2.5446 N.2     
  31 C31            6.7031    -1.6414     3.8011 C.2     
  32 C32            6.4436    -0.5252     4.6061 C.2     
  33 C33            5.7939     0.5409     4.0722 C.2     
  34 C34            5.5008     1.7570     4.9126 C.3     
  35 C35            7.4241    -2.8317     4.3794 C.3     
  36 C36           -7.7709    -1.3683    -3.7953 C.3     
  37 C37           -7.7758    -2.5477    -1.5927 C.3     
  38 C38           -8.3512    -0.1692    -1.7375 C.1     
  39 N39           -9.0173     0.6427    -1.3043 N.1     
  40 H40           -0.3115     1.9725    -0.8754 H       
  41 H41           -0.3394     1.9839     0.9062 H       
  42 H42            1.5584    -0.2867     1.5147 H       
  43 H43            0.0399     1.0124     2.8629 H       
  44 H44           -1.3914     0.1250     2.2516 H       
  45 H45            0.6215    -0.6959     4.3423 H       
  46 H46           -1.1092    -1.1183     4.2105 H       
  47 H47            1.1793    -2.6625     3.3202 H       
  48 H48           -0.5514    -3.0850     3.1885 H       
  49 H49           -0.7054    -2.2939     0.9946 H       
  50 H50            1.0616    -2.5899     0.9909 H       
  51 H51           -1.5565    -1.4248    -0.1732 H       
  52 H52           -2.0611     0.0806     0.6313 H       
  53 H53           -1.8475     1.3003    -1.5171 H       
  54 H54           -1.3430    -0.2052    -2.3216 H       
  55 H55           -4.1389     1.6052    -0.7762 H       
  56 H56           -6.5006     0.9942    -1.1109 H       
  57 H57           -2.9304    -1.9989    -2.7097 H       
  58 H58            1.6159     3.8984     0.2364 H       
  59 H59            4.4616     1.0580    -1.3589 H       
  60 H60            4.0885     2.5206    -0.4156 H       
  61 H61            6.7566    -0.5125     5.6397 H       
  62 H62            5.8830     1.6021     5.9216 H       
  63 H63            5.9835     2.6288     4.4710 H       
  64 H64            4.4237     1.9196     4.9531 H       
  65 H65            7.5351    -3.5974     3.6117 H       
  66 H66            8.4089    -2.5243     4.7311 H       
  67 H67            6.8496    -3.2343     5.2137 H       
  68 H68           -7.1318    -2.1474    -4.2110 H       
  69 H69           -8.8164    -1.6391    -3.9426 H       
  70 H70           -7.5660    -0.4234    -4.2984 H       
  71 H71           -7.5744    -2.4429    -0.5266 H       
  72 H72           -8.8213    -2.8184    -1.7400 H       
  73 H73           -7.1367    -3.3267    -2.0083 H       
@<TRIPOS>BOND
   1    1    2 1
   2    1    6 1
   3    1   40 1
   4    1   41 1
   5    2    3 1
   6    2    7 1
   7    2   12 1
   8    3    4 1
   9    4    5 1
  10    4   24 2
  11    5    6 2
  12    5   23 1
  13    6   22 1
  14    7    8 1
  15    7   11 1
  16    7   42 1
  17    8    9 1
  18    8   43 1
  19    8   44 1
  20    9   10 1
  21    9   45 1
  22    9   46 1
  23   10   11 1
  24   10   47 1
  25   10   48 1
  26   11   49 1
  27   11   50 1
  28   12   13 1
  29   12   51 1
  30   12   52 1
  31   13   14 1
  32   13   53 1
  33   13   54 1
  34   14   15 ar
  35   14   19 ar
  36   15   16 ar
  37   15   55 1
  38   16   17 ar
  39   16   56 1
  40   17   18 ar
  41   17   21 1
  42   18   19 ar
  43   18   20 1
  44   19   57 1
  45   21   36 1
  46   21   37 1
  47   21   38 1
  48   22   58 1
  49   23   25 1
  50   23   59 1
  51   23   60 1
  52   25   26 1
  53   25   29 2
  54   26   27 2
  55   27   28 1
  56   27   30 1
  57   28   29 1
  58   28   33 1
  59   30   31 2
  60   31   32 1
  61   31   35 1
  62   32   33 2
  63   32   61 1
  64   33   34 1
  65   34   62 1
  66   34   63 1
  67   34   64 1
  68   35   65 1
  69   35   66 1
  70   35   67 1
  71   36   68 1
  72   36   69 1
  73   36   70 1
  74   37   71 1
  75   37   72 1
  76   37   73 1
  77   38   39 3

#	End of record

