#	Name: ASD08178102
#	Creating user name:	WinNT
#	Creation time:	15. 06. 2019 21:18

#	Modifying user name:	WinNT
#	Modification time:	15. 06. 2019 21:18

#	Program:	/corina/corina34_cracker 3.40 0067  02.08.2006

@<TRIPOS>MOLECULE
ASD08178102
  72   75    0    0    0
SMALL
NO_CHARGES


@<TRIPOS>ATOM
   1 C1            -0.0184     1.5028     0.0103 C.2     
   2 C2             0.0021    -0.0041     0.0020 C.3     
   3 C3             0.0221    -0.5218     1.4416 C.3     
   4 C4             0.0429    -2.0516     1.4332 C.3     
   5 C5             0.0630    -2.5693     2.8728 C.3     
   6 C6             0.0834    -4.0761     2.8645 C.2     
   7 N7             1.1396    -4.8258     2.8513 N.2     
   8 N8             0.9467    -6.0734     2.8463 N.2     
   9 C9            -0.2824    -6.4936     2.8547 C.2     
  10 S10           -1.3267    -5.1359     2.8788 S.3     
  11 N11           -0.6838    -7.8252     2.8506 N.am    
  12 N12            1.0171     2.2809     0.0046 N.2     
  13 C13            0.2391    -8.8073     2.8374 C.2     
  14 O14            1.4197    -8.5298     2.8290 O.2     
  15 C15           -0.1960   -10.2501     2.8329 C.3     
  16 C16            1.0193   -11.1412     2.8177 C.ar    
  17 N17            0.7904     3.5228     0.0134 N.2     
  18 C18           -0.4495     3.9094     0.0274 C.2     
  19 S19           -1.4568     2.5237     0.0218 S.3     
  20 C20            2.6192   -12.4460     1.6049 C.ar    
  21 C21            1.6510   -11.4739     4.0072 C.ar    
  22 C22            2.7693   -12.2948     3.9899 C.ar    
  23 C23            3.2509   -12.7788     2.7890 C.ar    
  24 C24            1.5017   -11.6319     1.6199 C.ar    
  25 N25           -0.8870     5.2295     0.0390 N.am    
  26 C26            0.0089     6.2364     0.0358 C.2     
  27 O27            1.1967     5.9912     0.0228 O.2     
  28 C28           -0.4651     7.6668     0.0485 C.3     
  29 C29            0.7256     8.5906     0.0419 C.ar    
  30 C30            1.2196     9.0901     1.2314 C.ar    
  31 C31            2.3116     9.9382     1.2260 C.ar    
  32 C32            2.9122    10.2881     0.0308 C.ar    
  33 C33            2.4223     9.7909    -1.1614 C.ar    
  34 C34            1.3299     8.9357    -1.1582 C.ar    
  35 O35            0.8463     8.4449    -2.3296 O.3     
  36 C36            1.5116     8.8514    -3.5272 C.3     
  37 C37            0.8308     8.2028    -4.7341 C.3     
  38 O38            1.1756   -10.9962     5.1873 O.3     
  39 C39            1.8763   -11.3800     6.3721 C.3     
  40 C40            1.1995   -10.7505     7.5913 C.3     
  41 H41           -0.8875    -0.3767    -0.5057 H       
  42 H42            0.8922    -0.3525    -0.5218 H       
  43 H43            0.9118    -0.1491     1.9494 H       
  44 H44           -0.8680    -0.1733     1.9655 H       
  45 H45           -0.8467    -2.4242     0.9255 H       
  46 H46            0.9330    -2.4000     0.9094 H       
  47 H47            0.9526    -2.1967     3.3806 H       
  48 H48           -0.8271    -2.2209     3.3967 H       
  49 H49           -1.6281    -8.0470     2.8573 H       
  50 H50           -0.7854   -10.4546     3.7267 H       
  51 H51           -0.8003   -10.4446     1.9469 H       
  52 H52            2.9948   -12.8287     0.6675 H       
  53 H53            3.2631   -12.5550     4.9145 H       
  54 H54            4.1214   -13.4179     2.7750 H       
  55 H55            1.0098   -11.3737     0.6938 H       
  56 H56           -1.8369     5.4256     0.0495 H       
  57 H57           -1.0758     7.8550    -0.8345 H       
  58 H58           -1.0583     7.8451     0.9454 H       
  59 H59            0.7522     8.8183     2.1663 H       
  60 H60            2.6959    10.3282     2.1569 H       
  61 H61            3.7649    10.9509     0.0291 H       
  62 H62            2.8916    10.0648    -2.0947 H       
  63 H63            1.4606     9.9362    -3.6209 H       
  64 H64            2.5551     8.5388    -3.4872 H       
  65 H65           -0.2127     8.5154    -4.7741 H       
  66 H66            1.3382     8.5128    -5.6476 H       
  67 H67            0.8818     7.1180    -4.6405 H       
  68 H68            1.8605   -12.4657     6.4679 H       
  69 H69            2.9086   -11.0356     6.3113 H       
  70 H70            1.2153    -9.6648     7.4955 H       
  71 H71            0.1671   -11.0949     7.6521 H       
  72 H72            1.7340   -11.0432     8.4951 H       
@<TRIPOS>BOND
   1    1    2 1
   2    1   12 2
   3    1   19 1
   4    2    3 1
   5    2   41 1
   6    2   42 1
   7    3    4 1
   8    3   43 1
   9    3   44 1
  10    4    5 1
  11    4   45 1
  12    4   46 1
  13    5    6 1
  14    5   47 1
  15    5   48 1
  16    6    7 2
  17    6   10 1
  18    7    8 1
  19    8    9 2
  20    9   10 1
  21    9   11 1
  22   11   13 am
  23   11   49 1
  24   12   17 1
  25   13   14 2
  26   13   15 1
  27   15   16 1
  28   15   50 1
  29   15   51 1
  30   16   21 ar
  31   16   24 ar
  32   17   18 2
  33   18   19 1
  34   18   25 1
  35   20   24 ar
  36   20   23 ar
  37   20   52 1
  38   21   22 ar
  39   21   38 1
  40   22   23 ar
  41   22   53 1
  42   23   54 1
  43   24   55 1
  44   25   26 am
  45   25   56 1
  46   26   27 2
  47   26   28 1
  48   28   29 1
  49   28   57 1
  50   28   58 1
  51   29   30 ar
  52   29   34 ar
  53   30   31 ar
  54   30   59 1
  55   31   32 ar
  56   31   60 1
  57   32   33 ar
  58   32   61 1
  59   33   34 ar
  60   33   62 1
  61   34   35 1
  62   35   36 1
  63   36   37 1
  64   36   63 1
  65   36   64 1
  66   37   65 1
  67   37   66 1
  68   37   67 1
  69   38   39 1
  70   39   40 1
  71   39   68 1
  72   39   69 1
  73   40   70 1
  74   40   71 1
  75   40   72 1

#	End of record

