#	Name: ASD01148910
#	Creating user name:	WinNT
#	Creation time:	15. 06. 2019 19:03

#	Modifying user name:	WinNT
#	Modification time:	15. 06. 2019 19:03

#	Program:	/corina/corina34_cracker 3.40 0067  02.08.2006

@<TRIPOS>MOLECULE
ASD01148910
  38   40    0    0    0
SMALL
NO_CHARGES


@<TRIPOS>ATOM
   1 C1            -0.0661     1.2884    -0.0282 C.ar    
   2 C2            -0.0199    -0.0925     0.0263 C.ar    
   3 C3             1.1975    -0.7449     0.0216 C.ar    
   4 C4             2.3756    -0.0126    -0.0385 C.ar    
   5 C5             2.3259     1.3738    -0.0936 C.ar    
   6 C6             1.1055     2.0204    -0.0880 C.ar    
   7 S7            -1.6213     2.1167    -0.0287 S.o2    
   8 O8            -1.4000     3.3854    -0.6293 O.2     
   9 O9            -2.5738     1.1816    -0.5161 O.2     
  10 N10           -2.0207     2.4106     1.5513 N.am    
  11 N11            3.6123    -0.6716    -0.0431 N.pl3   
  12 C12            4.4997    -0.7045    -1.0909 C.2     
  13 C13            5.5769    -1.4434    -0.7033 C.2     
  14 C14            5.3403    -1.8715     0.6138 C.2     
  15 C15            4.1402    -1.3838     0.9957 C.2     
  16 C16            3.4917    -1.5931     2.3398 C.3     
  17 C17            4.3182    -0.0539    -2.4058 C.ar    
  18 C18            5.3413     0.7270    -2.9491 C.ar    
  19 C19            5.1655     1.3314    -4.1776 C.ar    
  20 C20            3.9781     1.1650    -4.8704 C.ar    
  21 C21            2.9610     0.3921    -4.3365 C.ar    
  22 C22            3.1266    -0.2219    -3.1121 C.ar    
  23 Cl23           3.7638     1.9290    -6.4144 Cl      
  24 Cl24           6.8299     0.9373    -2.0810 Cl      
  25 H25           -0.9366    -0.6615     0.0731 H       
  26 H26            1.2330    -1.8234     0.0649 H       
  27 H27            3.2407     1.9461    -0.1401 H       
  28 H28            1.0662     3.0989    -0.1309 H       
  29 H29           -1.4242     2.1295     2.2627 H       
  30 H30           -2.8511     2.8639     1.7654 H       
  31 H31            6.4512    -1.6604    -1.2989 H       
  32 H32            6.0017    -2.4780     1.2147 H       
  33 H33            2.8799    -2.4947     2.3116 H       
  34 H34            4.2629    -1.7010     3.1025 H       
  35 H35            2.8632    -0.7348     2.5775 H       
  36 H36            5.9554     1.9354    -4.5992 H       
  37 H37            2.0371     0.2665    -4.8816 H       
  38 H38            2.3337    -0.8278    -2.6991 H       
@<TRIPOS>BOND
   1    1    2 ar
   2    1    6 ar
   3    1    7 1
   4    2    3 ar
   5    2   25 1
   6    3    4 ar
   7    3   26 1
   8    4    5 ar
   9    4   11 1
  10    5    6 ar
  11    5   27 1
  12    6   28 1
  13    7    8 2
  14    7    9 2
  15    7   10 am
  16   10   29 1
  17   10   30 1
  18   11   12 1
  19   11   15 1
  20   12   13 2
  21   12   17 1
  22   13   14 1
  23   13   31 1
  24   14   15 2
  25   14   32 1
  26   15   16 1
  27   16   33 1
  28   16   34 1
  29   16   35 1
  30   17   18 ar
  31   17   22 ar
  32   18   19 ar
  33   18   24 1
  34   19   20 ar
  35   19   36 1
  36   20   21 ar
  37   20   23 1
  38   21   22 ar
  39   21   37 1
  40   22   38 1

#	End of record

