#	Name: ASD01816593
#	Creating user name:	WinNT
#	Creation time:	15. 06. 2019 19:35

#	Modifying user name:	WinNT
#	Modification time:	15. 06. 2019 19:35

#	Program:	/corina/corina34_cracker 3.40 0067  02.08.2006

@<TRIPOS>MOLECULE
ASD01816593
  85   92    0    0    0
SMALL
NO_CHARGES


@<TRIPOS>ATOM
   1 C1            -0.0165     1.3805     0.0441 C.ar    
   2 C2             0.0022    -0.0043     0.0360 C.ar    
   3 C3            -1.1753    -0.7254     0.0315 C.ar    
   4 C4            -2.3995    -0.0671     0.0355 C.ar    
   5 C5            -2.4231     1.3373     0.0442 C.ar    
   6 C6            -1.2279     2.0602     0.0541 C.ar    
   7 N7            -3.5815    -0.7892     0.0306 N.pl3   
   8 C8            -4.7923    -0.2091     0.0337 C.2     
   9 C9            -4.9389     1.1557     0.0421 C.2     
  10 C10           -3.7325     2.0145     0.0484 C.2     
  11 C11           -6.0662     2.0829     0.0478 C.2     
  12 N12           -5.5330     3.3237     0.0564 N.am    
  13 N13           -4.1377     3.2524     0.0566 N.2     
  14 C14           -6.2709     4.5085     0.0640 C.ar    
  15 O15           -7.2518     1.7948     0.0450 O.2     
  16 C16           -3.5072    -2.2523     0.0210 C.3     
  17 C17           -4.0781    -2.8005     1.3303 C.3     
  18 C18           -4.3184    -2.7965    -1.1566 C.3     
  19 C19           -4.2408    -4.3245    -1.1665 C.3     
  20 C20           -4.8117    -4.8727     0.1428 C.3     
  21 C21           -4.0005    -4.3285     1.3204 C.3     
  22 N22           -3.7717    -2.2715    -2.4103 N.pl3   
  23 C23           -4.5838    -2.1724    -3.5358 C.ar    
  24 N24           -5.8491    -2.5539    -3.4675 N.ar    
  25 C25           -4.0592    -1.6669    -4.7237 C.ar    
  26 C26           -4.8793    -1.5743    -5.8352 C.ar    
  27 C27           -6.1994    -1.9912    -5.7210 C.ar    
  28 C28           -6.6532    -2.4764    -4.5116 C.ar    
  29 F29           -2.7688    -1.2724    -4.7896 F       
  30 F30            1.1447     2.0710     0.0479 F       
  31 C31           -5.6093     5.7334     0.0725 C.ar    
  32 C32           -6.3552     6.9013     0.0800 C.ar    
  33 C33           -7.7396     6.8023     0.0785 C.ar    
  34 C34           -8.3285     5.5530     0.0699 C.ar    
  35 N35           -7.5935     4.4577     0.0575 N.ar    
  36 F36           -4.2592     5.7827     0.0740 F       
  37 N37           -1.2507     3.4559     0.0627 N.3     
  38 C38           -0.5789     3.9860     1.2567 C.3     
  39 C39           -0.6234     5.4921     1.2311 C.ar    
  40 C40           -1.6841     6.1611     1.8138 C.ar    
  41 C41           -1.7277     7.5414     1.7920 C.ar    
  42 C42           -0.7051     8.2573     1.1841 C.ar    
  43 C43            0.3585     7.5828     0.5999 C.ar    
  44 C44            0.3993     6.2025     0.6299 C.ar    
  45 N45           -0.7468     9.6583     1.1599 N.pl3   
  46 N46           -1.7543    10.4628     1.7077 N.2     
  47 C47            0.1815    10.4727     0.6088 C.2     
  48 C48           -0.2270    11.7490     0.7966 C.2     
  49 C49           -1.4430    11.7148     1.4880 C.2     
  50 C50           -4.3521    -1.0330    -7.1391 C.3     
  51 C51           -5.6787     8.2479     0.0898 C.3     
  52 H52            0.9480    -0.5257     0.0328 H       
  53 H53           -1.1449    -1.8050     0.0245 H       
  54 H54           -5.6742    -0.8326     0.0291 H       
  55 H55           -2.4672    -2.5626    -0.0800 H       
  56 H56           -3.5002    -2.4128     2.1693 H       
  57 H57           -5.1181    -2.4902     1.4313 H       
  58 H58           -5.3584    -2.4862    -1.0556 H       
  59 H59           -4.8187    -4.7122    -2.0055 H       
  60 H60           -3.2007    -4.6348    -1.2675 H       
  61 H61           -5.8517    -4.5624     0.2438 H       
  62 H62           -4.7564    -5.9613     0.1357 H       
  63 H63           -2.9605    -4.6388     1.2194 H       
  64 H64           -4.4072    -4.7191     2.2531 H       
  65 H65           -2.8437    -1.9931    -2.4557 H       
  66 H66           -6.8653    -1.9318    -6.5692 H       
  67 H67           -7.6788    -2.8018    -4.4193 H       
  68 H68           -8.3501     7.6931     0.0845 H       
  69 H69           -9.4055     5.4718     0.0687 H       
  70 H70           -0.8393     3.8295    -0.7795 H       
  71 H71           -1.0862     3.6227     2.1504 H       
  72 H72            0.4590     3.6533     1.2675 H       
  73 H73           -2.4794     5.6037     2.2862 H       
  74 H74           -2.5565     8.0633     2.2470 H       
  75 H75            1.1552     8.1370     0.1260 H       
  76 H76            1.2266     5.6773     0.1759 H       
  77 H77            1.0866    10.1605     0.1090 H       
  78 H78            0.2948    12.6373     0.4724 H       
  79 H79           -2.0248    12.5738     1.7881 H       
  80 H80           -3.9493    -1.8514    -7.7359 H       
  81 H81           -5.1616    -0.5490    -7.6854 H       
  82 H82           -3.5640    -0.3071    -6.9390 H       
  83 H83           -5.5147     8.5796    -0.9354 H       
  84 H84           -6.3113     8.9685     0.6081 H       
  85 H85           -4.7207     8.1695     0.6040 H       
@<TRIPOS>BOND
   1    1    2 ar
   2    1   30 1
   3    1    6 ar
   4    2    3 ar
   5    2   52 1
   6    3    4 ar
   7    3   53 1
   8    4    5 ar
   9    4    7 1
  10    5    6 ar
  11    5   10 1
  12    6   37 1
  13    7    8 1
  14    7   16 1
  15    8    9 2
  16    8   54 1
  17    9   10 1
  18    9   11 1
  19   10   13 2
  20   11   12 am
  21   11   15 2
  22   12   13 1
  23   12   14 1
  24   14   31 ar
  25   14   35 ar
  26   16   17 1
  27   16   18 1
  28   16   55 1
  29   17   21 1
  30   17   56 1
  31   17   57 1
  32   18   19 1
  33   18   22 1
  34   18   58 1
  35   19   20 1
  36   19   59 1
  37   19   60 1
  38   20   21 1
  39   20   61 1
  40   20   62 1
  41   21   63 1
  42   21   64 1
  43   22   23 1
  44   22   65 1
  45   23   24 ar
  46   23   25 ar
  47   24   28 ar
  48   25   26 ar
  49   25   29 1
  50   26   27 ar
  51   26   50 1
  52   27   28 ar
  53   27   66 1
  54   28   67 1
  55   31   32 ar
  56   31   36 1
  57   32   33 ar
  58   32   51 1
  59   33   34 ar
  60   33   68 1
  61   34   35 ar
  62   34   69 1
  63   37   38 1
  64   37   70 1
  65   38   39 1
  66   38   71 1
  67   38   72 1
  68   39   40 ar
  69   39   44 ar
  70   40   41 ar
  71   40   73 1
  72   41   42 ar
  73   41   74 1
  74   42   43 ar
  75   42   45 1
  76   43   44 ar
  77   43   75 1
  78   44   76 1
  79   45   46 1
  80   45   47 1
  81   46   49 2
  82   47   48 2
  83   47   77 1
  84   48   49 1
  85   48   78 1
  86   49   79 1
  87   50   80 1
  88   50   81 1
  89   50   82 1
  90   51   83 1
  91   51   84 1
  92   51   85 1

#	End of record

