#	Name: ASD00060032
#	Creating user name:	WinNT
#	Creation time:	15. 06. 2019 18:29

#	Modifying user name:	WinNT
#	Modification time:	15. 06. 2019 18:29

#	Program:	/corina/corina34_cracker 3.40 0067  02.08.2006

@<TRIPOS>MOLECULE
ASD00060032
  40   41    0    0    0
SMALL
NO_CHARGES


@<TRIPOS>ATOM
   1 C1            -3.5570    -2.3599     5.9067 C.ar    
   2 C2            -4.6888    -3.1553     5.9493 C.ar    
   3 C3            -5.4527    -3.3349     4.8155 C.ar    
   4 C4            -5.0814    -2.7104     3.6205 C.ar    
   5 C5            -3.9366    -1.9079     3.5858 C.ar    
   6 C6            -3.1858    -1.7343     4.7292 C.ar    
   7 C7            -5.8909    -2.8972     2.4058 C.2     
   8 C8            -5.4872    -2.2225     1.1201 C.3     
   9 O9            -6.8826    -3.5940     2.4393 O.2     
  10 C10           -8.9800    -2.6416     0.6737 C.ar    
  11 C11           -7.8602    -1.8489     0.5050 C.ar    
  12 C12           -6.5604    -2.4663     0.0573 C.3     
  13 C13          -10.1723    -2.0752     1.0844 C.ar    
  14 C14          -10.2446    -0.7161     1.3264 C.ar    
  15 C15           -9.1249     0.0767     1.1573 C.ar    
  16 C16           -7.9327    -0.4897     0.7466 C.ar    
  17 C17           -6.1229    -1.8317    -1.2643 C.3     
  18 C18           -4.7561    -2.3440    -1.6393 C.2     
  19 O19           -4.6007    -3.5218    -1.9135 O.co2   
  20 O20           -8.2790    -1.8685    -2.2363 O.co2   
  21 C21           -7.1087    -2.1926    -2.3455 C.2     
  22 O22           -6.7360    -2.8087    -3.3294 O.co2   
  23 O23           -3.8059    -1.5807    -1.6686 O.co2   
  24 C24           -2.7278    -2.1690     7.1505 C.3     
  25 F25           -1.7441    -3.1619     7.2122 F       
  26 F26           -2.1183    -0.9102     7.1160 F       
  27 F27           -3.5512    -2.2577     8.2781 F       
  28 H28           -4.9743    -3.6368     6.8729 H       
  29 H29           -6.3353    -3.9564     4.8501 H       
  30 H30           -3.6432    -1.4226     2.6666 H       
  31 H31           -2.3017    -1.1146     4.7041 H       
  32 H32           -5.3808    -1.1511     1.2899 H       
  33 H33           -4.5369    -2.6322     0.7776 H       
  34 H34           -8.9246    -3.7027     0.4803 H       
  35 H35           -6.6967    -3.5388    -0.0821 H       
  36 H36          -11.0473    -2.6944     1.2159 H       
  37 H37          -11.1763    -0.2735     1.6466 H       
  38 H38           -9.1816     1.1386     1.3457 H       
  39 H39           -7.0577     0.1296     0.6149 H       
  40 H40           -6.0867    -0.7481    -1.1526 H       
@<TRIPOS>BOND
   1    1    2 ar
   2    1   24 1
   3    1    6 ar
   4    2    3 ar
   5    2   28 1
   6    3    4 ar
   7    3   29 1
   8    4    5 ar
   9    4    7 1
  10    5    6 ar
  11    5   30 1
  12    6   31 1
  13    7    8 1
  14    7    9 2
  15    8   12 1
  16    8   32 1
  17    8   33 1
  18   10   11 ar
  19   10   13 ar
  20   10   34 1
  21   11   12 1
  22   11   16 ar
  23   12   17 1
  24   12   35 1
  25   13   14 ar
  26   13   36 1
  27   14   15 ar
  28   14   37 1
  29   15   16 ar
  30   15   38 1
  31   16   39 1
  32   17   18 1
  33   17   21 1
  34   17   40 1
  35   18   19 ar
  36   18   23 ar
  37   20   21 ar
  38   21   22 ar
  39   24   25 1
  40   24   26 1
  41   24   27 1

#	End of record

