#	Name: ASD01478101
#	Creating user name:	WinNT
#	Creation time:	15. 06. 2019 19:21

#	Modifying user name:	WinNT
#	Modification time:	15. 06. 2019 19:21

#	Program:	/corina/corina34_cracker 3.40 0067  02.08.2006

@<TRIPOS>MOLECULE
ASD01478101
  54   57    0    0    0
SMALL
NO_CHARGES


@<TRIPOS>ATOM
   1 C1             0.2263     2.5941     0.2189 C.3     
   2 C2             0.1306     1.0503     0.3548 C.3     
   3 C3             1.4852     0.4840    -0.0970 C.3     
   4 C4             2.3425     1.6863    -0.5415 C.3     
   5 C5             1.7461     2.8847     0.2355 C.3     
   6 C6            -0.8158     1.9828     2.1936 C.3     
   7 O7            -0.3511     3.1092     1.4312 O.3     
   8 O8            -0.0100     0.8587     1.7812 O.3     
   9 O9             3.7104     1.4864    -0.1795 O.3     
  10 Si10           4.7565     1.6585    -1.4189 Si      
  11 C11            6.5055     1.4847    -0.7862 C.ar    
  12 C12            7.3951     0.6484    -1.4344 C.ar    
  13 C13            8.6893     0.5197    -0.9662 C.ar    
  14 C14            9.0941     1.2276     0.1500 C.ar    
  15 C15            8.2048     2.0646     0.7976 C.ar    
  16 C16            6.9118     2.1966     0.3268 C.ar    
  17 C17            4.4245     0.3415    -2.7014 C.ar    
  18 C18            5.1782    -0.8172    -2.7133 C.ar    
  19 C19            4.9325    -1.7918    -3.6624 C.ar    
  20 C20            3.9329    -1.6078    -4.5993 C.ar    
  21 C21            3.1786    -0.4494    -4.5868 C.ar    
  22 C22            3.4214     0.5232    -3.6350 C.ar    
  23 C23            4.5383     3.3419    -2.1866 C.3     
  24 C24            4.4037     4.3924    -1.0824 C.3     
  25 C25            5.7550     3.6680    -3.0551 C.3     
  26 C26            3.2771     3.3479    -3.0527 C.3     
  27 H27           -0.2624     2.9691    -0.6804 H       
  28 H28           -0.7016     0.6330    -0.2121 H       
  29 H29            1.9687    -0.0327     0.7321 H       
  30 H30            1.3430    -0.2017    -0.9322 H       
  31 H31            2.2503     1.8443    -1.6160 H       
  32 H32            1.9643     3.8221    -0.2761 H       
  33 H33            2.1227     2.9063     1.2581 H       
  34 H34           -0.6810     2.1699     3.2590 H       
  35 H35           -1.8665     1.7908     1.9762 H       
  36 H36            7.0788     0.0953    -2.3065 H       
  37 H37            9.3841    -0.1342    -1.4722 H       
  38 H38           10.1051     1.1265     0.5162 H       
  39 H39            8.5210     2.6174     1.6699 H       
  40 H40            6.2181     2.8533     0.8307 H       
  41 H41            5.9592    -0.9610    -1.9814 H       
  42 H42            5.5218    -2.6968    -3.6722 H       
  43 H43            3.7414    -2.3689    -5.3412 H       
  44 H44            2.3978    -0.3055    -5.3190 H       
  45 H45            2.8297     1.4266    -3.6230 H       
  46 H46            5.1460     4.2020    -0.3073 H       
  47 H47            4.5644     5.3848    -1.5035 H       
  48 H48            3.4047     4.3387    -0.6497 H       
  49 H49            5.8509     2.9196    -3.8417 H       
  50 H50            5.6273     4.6529    -3.5042 H       
  51 H51            6.6535     3.6637    -2.4381 H       
  52 H52            2.4144     3.0857    -2.4402 H       
  53 H53            3.1327     4.3412    -3.4775 H       
  54 H54            3.3856     2.6208    -3.8575 H       
@<TRIPOS>BOND
   1    1    2 1
   2    1    5 1
   3    1    7 1
   4    1   27 1
   5    2    3 1
   6    2    8 1
   7    2   28 1
   8    3    4 1
   9    3   29 1
  10    3   30 1
  11    4    5 1
  12    4    9 1
  13    4   31 1
  14    5   32 1
  15    5   33 1
  16    6    7 1
  17    6    8 1
  18    6   34 1
  19    6   35 1
  20    9   10 1
  21   10   11 1
  22   10   17 1
  23   10   23 1
  24   11   12 ar
  25   11   16 ar
  26   12   13 ar
  27   12   36 1
  28   13   14 ar
  29   13   37 1
  30   14   15 ar
  31   14   38 1
  32   15   16 ar
  33   15   39 1
  34   16   40 1
  35   17   18 ar
  36   17   22 ar
  37   18   19 ar
  38   18   41 1
  39   19   20 ar
  40   19   42 1
  41   20   21 ar
  42   20   43 1
  43   21   22 ar
  44   21   44 1
  45   22   45 1
  46   23   24 1
  47   23   26 1
  48   23   25 1
  49   24   46 1
  50   24   47 1
  51   24   48 1
  52   25   49 1
  53   25   50 1
  54   25   51 1
  55   26   52 1
  56   26   53 1
  57   26   54 1

#	End of record

