#	Name: ASD01148831
#	Creating user name:	WinNT
#	Creation time:	15. 06. 2019 19:03

#	Modifying user name:	WinNT
#	Modification time:	15. 06. 2019 19:03

#	Program:	/corina/corina34_cracker 3.40 0067  02.08.2006

@<TRIPOS>MOLECULE
ASD01148831
  47   49    0    0    0
SMALL
NO_CHARGES


@<TRIPOS>ATOM
   1 N1            -0.0155     1.3412     0.0826 N.pl3   
   2 C2             0.0020     0.0055    -0.1104 C.2     
   3 C3             1.3175    -0.4068    -0.1563 C.2     
   4 C4             2.1209     0.7506     0.0196 C.2     
   5 C5             1.2772     1.8041     0.1631 C.2     
   6 C6             1.7970    -1.7842    -0.3505 C.2     
   7 O7             1.0000    -2.6912    -0.4901 O.2     
   8 O8             3.1202    -2.0402    -0.3737 O.3     
   9 C9            -1.2074    -0.8826    -0.2511 C.3     
  10 C10            1.6798     3.2120     0.3703 C.ar    
  11 C11            0.7825     4.1219     0.9311 C.ar    
  12 C12            1.1639     5.4337     1.1223 C.ar    
  13 C13            2.4341     5.8483     0.7590 C.ar    
  14 C14            3.3287     4.9500     0.2022 C.ar    
  15 C15            2.9604     3.6344     0.0110 C.ar    
  16 Cl16           2.9067     7.5009     1.0022 Cl      
  17 C17           -1.1680     2.1320     0.1796 C.ar    
  18 C18           -2.0096     2.0037     1.2767 C.ar    
  19 C19           -3.1446     2.7849     1.3697 C.ar    
  20 C20           -3.4435     3.6943     0.3715 C.ar    
  21 C21           -2.6078     3.8241    -0.7223 C.ar    
  22 C22           -1.4680     3.0496    -0.8181 C.ar    
  23 S23           -4.2133     2.6224     2.7611 S.o2    
  24 O24           -5.4899     3.0856     2.3428 O.2     
  25 O25           -3.9928     1.3206     3.2866 O.2     
  26 N26           -3.6837     3.6876     3.9131 N.am    
  27 C27            3.5209    -3.4220    -0.5694 C.3     
  28 C28            5.0480    -3.5154    -0.5669 C.3     
  29 H29            3.2002     0.7860     0.0360 H       
  30 H30           -1.4887    -0.9496    -1.3020 H       
  31 H31           -0.9731    -1.8779     0.1265 H       
  32 H32           -2.0350    -0.4626     0.3205 H       
  33 H33           -0.2086     3.7997     1.2144 H       
  34 H34            0.4702     6.1389     1.5559 H       
  35 H35            4.3181     5.2790    -0.0792 H       
  36 H36            3.6605     2.9336    -0.4193 H       
  37 H37           -1.7769     1.2934     2.0563 H       
  38 H38           -4.3317     4.3041     0.4464 H       
  39 H39           -2.8442     4.5346    -1.5005 H       
  40 H40           -0.8132     3.1546    -1.6706 H       
  41 H41           -2.9119     4.2482     3.7371 H       
  42 H42           -4.1453     3.7510     4.7638 H       
  43 H43            3.1181    -4.0349     0.2371 H       
  44 H44            3.1366    -3.7800    -1.5245 H       
  45 H45            5.4508    -2.9026    -1.3733 H       
  46 H46            5.4324    -3.1574     0.3882 H       
  47 H47            5.3489    -4.5527    -0.7138 H       
@<TRIPOS>BOND
   1    1    2 1
   2    1    5 1
   3    1   17 1
   4    2    3 2
   5    2    9 1
   6    3    4 1
   7    3    6 1
   8    4    5 2
   9    4   29 1
  10    5   10 1
  11    6    7 2
  12    6    8 1
  13    8   27 1
  14    9   30 1
  15    9   31 1
  16    9   32 1
  17   10   11 ar
  18   10   15 ar
  19   11   12 ar
  20   11   33 1
  21   12   13 ar
  22   12   34 1
  23   13   14 ar
  24   13   16 1
  25   14   15 ar
  26   14   35 1
  27   15   36 1
  28   17   18 ar
  29   17   22 ar
  30   18   19 ar
  31   18   37 1
  32   19   20 ar
  33   19   23 1
  34   20   21 ar
  35   20   38 1
  36   21   22 ar
  37   21   39 1
  38   22   40 1
  39   23   24 2
  40   23   25 2
  41   23   26 am
  42   26   41 1
  43   26   42 1
  44   27   28 1
  45   27   43 1
  46   27   44 1
  47   28   45 1
  48   28   46 1
  49   28   47 1

#	End of record

