#	Name: ASD01880376
#	Creating user name:	WinNT
#	Creation time:	15. 06. 2019 19:40

#	Modifying user name:	WinNT
#	Modification time:	15. 06. 2019 19:40

#	Program:	/corina/corina34_cracker 3.40 0067  02.08.2006

@<TRIPOS>MOLECULE
ASD01880376
  42   43    0    0    0
SMALL
NO_CHARGES


@<TRIPOS>ATOM
   1 C1            -0.8223     1.7229    -0.1020 C.ar    
   2 N2            -0.6943     0.4103    -0.1688 N.ar    
   3 C3             0.4926    -0.1586    -0.3159 C.ar    
   4 C4             1.6473     0.6693    -0.4026 C.ar    
   5 C5             1.4511     2.0551    -0.3257 C.ar    
   6 N6             0.2098     2.5316    -0.1768 N.ar    
   7 C7             2.9932     0.3210    -0.5572 C.2     
   8 C8             3.8524     1.3468    -0.6051 C.2     
   9 S9             3.0015     2.8748    -0.4541 S.3     
  10 C10            5.3057     1.2122    -0.7626 C.2     
  11 N11            0.6081    -1.5322    -0.3834 N.pl3   
  12 C12           -0.5879    -2.3732    -0.2924 C.3     
  13 C13           -0.1849    -3.8457    -0.3940 C.3     
  14 C14           -2.4967    -7.1218    -3.4921 C.3     
  15 C15           -1.1448    -6.4566    -3.4632 C.2     
  16 C16           -0.7924    -5.7131    -2.4199 C.2     
  17 C17           -1.7220    -5.5393    -1.2929 C.2     
  18 C18           -1.4153    -4.7109    -0.3004 C.2     
  19 N19            6.0677     2.3082    -0.9488 N.am    
  20 O20            5.8224     0.1112    -0.7252 O.2     
  21 C21            7.5279     2.1912    -0.9640 C.3     
  22 C22            5.4358     3.6166    -1.1359 C.3     
  23 H23           -1.8093     2.1458     0.0136 H       
  24 H24            3.3175    -0.7064    -0.6325 H       
  25 H25            1.4813    -1.9408    -0.4912 H       
  26 H26           -1.0840    -2.1974     0.6621 H       
  27 H27           -1.2689    -2.1259    -1.1068 H       
  28 H28            0.3112    -4.0216    -1.3485 H       
  29 H29            0.4960    -4.0931     0.4204 H       
  30 H30           -2.5863    -7.7998    -2.6433 H       
  31 H31           -3.2766    -6.3625    -3.4344 H       
  32 H32           -2.6051    -7.6843    -4.4194 H       
  33 H33           -0.4624    -6.5842    -4.2905 H       
  34 H34            0.1764    -5.2364    -2.3992 H       
  35 H35           -2.6538    -6.0850    -1.2724 H       
  36 H36           -2.0477    -4.6575     0.5734 H       
  37 H37            7.8303     1.5205    -1.7683 H       
  38 H38            7.9696     3.1745    -1.1255 H       
  39 H39            7.8704     1.7914    -0.0095 H       
  40 H40            5.2085     4.0528    -0.1631 H       
  41 H41            6.1149     4.2738    -1.6790 H       
  42 H42            4.5137     3.4967    -1.7047 H       
@<TRIPOS>BOND
   1    1    2 ar
   2    1    6 ar
   3    1   23 1
   4    2    3 ar
   5    3    4 ar
   6    3   11 1
   7    4    5 ar
   8    4    7 1
   9    5    6 ar
  10    5    9 1
  11    7    8 2
  12    7   24 1
  13    8    9 1
  14    8   10 1
  15   10   19 am
  16   10   20 2
  17   11   12 1
  18   11   25 1
  19   12   13 1
  20   12   26 1
  21   12   27 1
  22   13   18 1
  23   13   28 1
  24   13   29 1
  25   14   15 1
  26   14   30 1
  27   14   31 1
  28   14   32 1
  29   15   16 2
  30   15   33 1
  31   16   17 1
  32   16   34 1
  33   17   18 2
  34   17   35 1
  35   18   36 1
  36   19   21 1
  37   19   22 1
  38   21   37 1
  39   21   38 1
  40   21   39 1
  41   22   40 1
  42   22   41 1
  43   22   42 1

#	End of record

