#	Name: ASD03092557
#	Creating user name:	WinNT
#	Creation time:	15. 06. 2019 20:32

#	Modifying user name:	WinNT
#	Modification time:	15. 06. 2019 20:32

#	Program:	/corina/corina34_cracker 3.40 0067  02.08.2006

@<TRIPOS>MOLECULE
ASD03092557
  44   47    0    0    0
SMALL
NO_CHARGES


@<TRIPOS>ATOM
   1 N1            -0.0169     1.3951     0.0097 N.pl3   
   2 N2             0.0021    -0.0041     0.0020 N.2     
   3 C3             1.2418    -0.4097    -0.0120 C.2     
   4 C4             2.0751     0.7313    -0.0138 C.2     
   5 C5             1.2504     1.8383    -0.0000 C.2     
   6 C6             3.5493     0.7384    -0.0274 C.2     
   7 O7             4.1523     1.7944    -0.0271 O.2     
   8 N8             4.2287    -0.4256    -0.0402 N.am    
   9 O9            -0.7702     3.8077     1.2907 O.3     
  10 C10           -1.6628     2.6929     1.4144 C.3     
  11 C11           -1.2173     2.2349     0.0202 C.3     
  12 C12           -0.9460     3.7368    -0.1302 C.3     
  13 C13            5.6936    -0.4186    -0.0537 C.3     
  14 C14            6.1897    -0.2824    -1.4947 C.3     
  15 N15            7.8087    -5.0913     2.2741 N.pl3   
  16 C16            8.8497    -4.5512     2.9791 C.2     
  17 C17            8.8840    -3.2216     2.7980 C.2     
  18 C18            7.7743    -2.8824     1.9040 C.ar    
  19 C19            7.2978    -1.6888     1.3580 C.ar    
  20 C20            6.2076    -1.7072     0.5348 C.ar    
  21 C21            5.5691    -2.9033     0.2365 C.ar    
  22 C22            6.0221    -4.0922     0.7646 C.ar    
  23 C23            7.1307    -4.0970     1.6053 C.ar    
  24 C24            9.8144    -5.3333     3.8328 C.3     
  25 H25            1.5732    -1.4376    -0.0201 H       
  26 H26            1.5666     2.8709     0.0025 H       
  27 H27            3.7477    -1.2679    -0.0405 H       
  28 H28           -1.3824     2.0000     2.2077 H       
  29 H29           -2.7128     2.9822     1.4599 H       
  30 H30           -2.0209     1.8535    -0.6098 H       
  31 H31           -1.8088     4.2987    -0.4881 H       
  32 H32           -0.0376     3.9586    -0.6903 H       
  33 H33            6.0584     0.4217     0.5371 H       
  34 H34            5.8179     0.6497    -1.9204 H       
  35 H35            7.2796    -0.2771    -1.5047 H       
  36 H36            5.8249    -1.1226    -2.0855 H       
  37 H37            7.5844    -6.0346     2.2464 H       
  38 H38            9.5949    -2.5326     3.2296 H       
  39 H39            7.7889    -0.7544     1.5862 H       
  40 H40            4.7084    -2.9017    -0.4158 H       
  41 H41            5.5184    -5.0175     0.5269 H       
  42 H42           10.6634    -5.6484     3.2262 H       
  43 H43           10.1660    -4.7057     4.6518 H       
  44 H44            9.3115    -6.2114     4.2381 H       
@<TRIPOS>BOND
   1    1    2 1
   2    1    5 1
   3    1   11 1
   4    2    3 2
   5    3    4 1
   6    3   25 1
   7    4    5 2
   8    4    6 1
   9    5   26 1
  10    6    7 2
  11    6    8 am
  12    8   13 1
  13    8   27 1
  14    9   10 1
  15    9   12 1
  16   10   11 1
  17   10   28 1
  18   10   29 1
  19   11   12 1
  20   11   30 1
  21   12   31 1
  22   12   32 1
  23   13   14 1
  24   13   20 1
  25   13   33 1
  26   14   34 1
  27   14   35 1
  28   14   36 1
  29   15   16 1
  30   15   23 1
  31   15   37 1
  32   16   17 2
  33   16   24 1
  34   17   18 1
  35   17   38 1
  36   18   19 ar
  37   18   23 ar
  38   19   20 ar
  39   19   39 1
  40   20   21 ar
  41   21   22 ar
  42   21   40 1
  43   22   23 ar
  44   22   41 1
  45   24   42 1
  46   24   43 1
  47   24   44 1

#	End of record

