#	Name: ASD01028156
#	Creating user name:	WinNT
#	Creation time:	15. 06. 2019 18:56

#	Modifying user name:	WinNT
#	Modification time:	15. 06. 2019 18:56

#	Program:	/corina/corina34_cracker 3.40 0067  02.08.2006

@<TRIPOS>MOLECULE
ASD01028156
  62   65    0    0    0
SMALL
NO_CHARGES


@<TRIPOS>ATOM
   1 C1             2.0641    -2.1396     1.4544 C.ar    
   2 C2             1.0762    -1.5588     0.6403 C.ar    
   3 C3             1.4203    -0.4623    -0.1583 C.ar    
   4 C4             2.7226     0.0028    -0.1107 C.ar    
   5 C5             3.6394    -0.6216     0.7159 C.ar    
   6 N6             3.2957    -1.6539     1.4613 N.ar    
   7 C7            -0.2967    -2.0951     0.6278 C.2     
   8 O8            -0.5599    -3.1071     1.2487 O.2     
   9 N9            -1.2604    -1.4640    -0.0718 N.am    
  10 C10           -2.5364    -2.0277    -0.1698 C.ar    
  11 C11           -3.6542    -1.2083    -0.2470 C.ar    
  12 C12           -4.9170    -1.7707    -0.3440 C.ar    
  13 C13           -5.0615    -3.1511    -0.3637 C.ar    
  14 C14           -3.9478    -3.9653    -0.2868 C.ar    
  15 C15           -2.6866    -3.4084    -0.1958 C.ar    
  16 C16           -4.1085    -5.4635    -0.3084 C.3     
  17 F17           -5.4661    -5.7854    -0.4108 F       
  18 F18           -3.4202    -5.9906    -1.4065 F       
  19 F19           -3.5885    -6.0055     0.8718 F       
  20 O20           -6.0134    -0.9712    -0.4193 O.3     
  21 C21           -5.7903     0.4400    -0.3931 C.3     
  22 N22           -6.9215     2.6238    -0.3566 N.3     
  23 C23           -7.1315     1.1702    -0.4869 C.3     
  24 C24           -8.0487     0.7348     0.6752 C.3     
  25 C25           -8.7662     2.0534     1.0671 C.3     
  26 C26           -7.6451     3.0984     0.8422 C.3     
  27 C27           -5.4903     2.9431    -0.2684 C.3     
  28 N28            1.7465    -3.2202     2.2565 N.pl3   
  29 C29            2.7976    -3.9044     3.0137 C.3     
  30 C30            2.1926    -5.0380     3.8010 C.ar    
  31 C31            2.0993    -6.2973     3.2381 C.ar    
  32 C32            1.5451    -7.3377     3.9593 C.ar    
  33 C33            1.0832    -7.1186     5.2461 C.ar    
  34 C34            1.1772    -5.8570     5.8088 C.ar    
  35 C35            1.7366    -4.8193     5.0876 C.ar    
  36 F36            0.5409    -8.1349     5.9519 F       
  37 H37            0.6874     0.0090    -0.7964 H       
  38 H38            3.0212     0.8469    -0.7147 H       
  39 H39            4.6553    -0.2569     0.7516 H       
  40 H40           -1.0689    -0.6187    -0.5074 H       
  41 H41           -3.5400    -0.1344    -0.2312 H       
  42 H42           -6.0457    -3.5893    -0.4389 H       
  43 H43           -1.8174    -4.0470    -0.1406 H       
  44 H44           -5.2929     0.7120     0.5379 H       
  45 H45           -5.1620     0.7243    -1.2372 H       
  46 H46           -7.6108     0.9489    -1.4405 H       
  47 H47           -8.7693    -0.0108     0.3389 H       
  48 H48           -7.4595     0.3541     1.5094 H       
  49 H49           -9.6159     2.2452     0.4118 H       
  50 H50           -9.0773     2.0331     2.1115 H       
  51 H51           -6.9760     3.1282     1.7022 H       
  52 H52           -8.0752     4.0833     0.6606 H       
  53 H53           -4.9731     2.5363    -1.1373 H       
  54 H54           -5.3603     4.0250    -0.2417 H       
  55 H55           -5.0755     2.5048     0.6394 H       
  56 H56            0.8278    -3.5252     2.3178 H       
  57 H57            3.5441    -4.2986     2.3242 H       
  58 H58            3.2707    -3.1992     3.6971 H       
  59 H59            2.4593    -6.4679     2.2343 H       
  60 H60            1.4720    -8.3213     3.5193 H       
  61 H61            0.8172    -5.6849     6.8124 H       
  62 H62            1.8137    -3.8361     5.5278 H       
@<TRIPOS>BOND
   1    1    2 ar
   2    1    6 ar
   3    1   28 1
   4    2    3 ar
   5    2    7 1
   6    3    4 ar
   7    3   37 1
   8    4    5 ar
   9    4   38 1
  10    5    6 ar
  11    5   39 1
  12    7    8 2
  13    7    9 am
  14    9   10 1
  15    9   40 1
  16   10   11 ar
  17   10   15 ar
  18   11   12 ar
  19   11   41 1
  20   12   13 ar
  21   12   20 1
  22   13   14 ar
  23   13   42 1
  24   14   15 ar
  25   14   16 1
  26   15   43 1
  27   16   17 1
  28   16   18 1
  29   16   19 1
  30   20   21 1
  31   21   23 1
  32   21   44 1
  33   21   45 1
  34   22   23 1
  35   22   26 1
  36   22   27 1
  37   23   24 1
  38   23   46 1
  39   24   25 1
  40   24   47 1
  41   24   48 1
  42   25   26 1
  43   25   49 1
  44   25   50 1
  45   26   51 1
  46   26   52 1
  47   27   53 1
  48   27   54 1
  49   27   55 1
  50   28   29 1
  51   28   56 1
  52   29   30 1
  53   29   57 1
  54   29   58 1
  55   30   31 ar
  56   30   35 ar
  57   31   32 ar
  58   31   59 1
  59   32   33 ar
  60   32   60 1
  61   33   34 ar
  62   33   36 1
  63   34   35 ar
  64   34   61 1
  65   35   62 1

#	End of record

