#	Name: ASD05730150
#	Creating user name:	WinNT
#	Creation time:	15. 06. 2019 21:02

#	Modifying user name:	WinNT
#	Modification time:	15. 06. 2019 21:02

#	Program:	/corina/corina34_cracker 3.40 0067  02.08.2006

@<TRIPOS>MOLECULE
ASD05730150
  74   78    0    0    0
SMALL
NO_CHARGES


@<TRIPOS>ATOM
   1 C1             0.0153     1.5028     0.0505 C.3     
   2 C2             0.0267    -0.0041     0.0316 C.ar    
   3 C3            -1.1610    -0.7043     0.1380 C.ar    
   4 C4            -1.1542    -2.0853     0.1205 C.ar    
   5 C5             0.0475    -2.7708    -0.0041 C.ar    
   6 C6             1.2387    -2.0643    -0.1107 C.ar    
   7 C7             1.2242    -0.6834    -0.0979 C.ar    
   8 N8             0.0580    -4.1686    -0.0216 N.pl3   
   9 C9             0.9763    -4.8428    -0.8036 C.ar    
  10 N10            1.0405    -6.1627    -0.7173 N.ar    
  11 C11            1.9103    -6.8455    -1.4531 C.ar    
  12 C12            2.7629    -6.1366    -2.3270 C.ar    
  13 C13            2.6558    -4.7389    -2.3819 C.ar    
  14 N14            1.7587    -4.1436    -1.6183 N.ar    
  15 N15            1.9839    -8.2130    -1.3698 N.am    
  16 C16            2.8682    -8.9004    -2.1180 C.2     
  17 C17            3.7671    -8.1957    -3.0346 C.2     
  18 C18            3.7002    -6.8313    -3.1252 C.2     
  19 C19            1.0920    -8.9329    -0.4573 C.3     
  20 O20            2.9208   -10.1143    -2.0315 O.2     
  21 C21            4.7394    -8.9527    -3.8573 C.ar    
  22 O22            1.1851     1.9808     0.7201 O.3     
  23 C23           -0.1994    -9.3004    -1.1908 C.3     
  24 C24            1.2820     3.4070     0.7623 C.3     
  25 C25            6.0925    -8.9490    -3.5221 C.ar    
  26 C26            0.0039     2.0320    -1.3860 C.3     
  27 N27            0.0708     3.5004    -1.3623 N.3     
  28 C28            1.2835     3.9555    -0.6671 C.3     
  29 N29           -1.0913   -10.0202    -0.2783 N.am    
  30 S30           -2.2640    -9.1983     0.5532 S.o2    
  31 C31           -3.7121    -9.2482    -0.5382 C.3     
  32 C32           -0.9457   -11.4672    -0.1015 C.3     
  33 C33            4.3034    -9.6778    -4.9686 C.ar    
  34 C34            5.2161   -10.3814    -5.7313 C.ar    
  35 C35            6.5579   -10.3679    -5.3952 C.ar    
  36 C36            6.9938    -9.6560    -4.2922 C.ar    
  37 F37            2.9930    -9.6916    -5.2969 F       
  38 S38            7.7160   -11.2674    -6.3722 S.o2    
  39 C39            8.2537   -10.0857    -7.6391 C.3     
  40 O40            8.7804   -11.5566    -5.4763 O.2     
  41 O41            6.9467   -12.3094    -6.9566 O.2     
  42 O42           -2.4876    -9.9861     1.7146 O.2     
  43 O43           -1.7599    -7.8735     0.6525 O.2     
  44 H44           -0.8733     1.8535     0.5753 H       
  45 H45           -2.0950    -0.1708     0.2352 H       
  46 H46           -2.0821    -2.6316     0.2040 H       
  47 H47            2.1747    -2.5943    -0.2074 H       
  48 H48            2.1500    -0.1335    -0.1811 H       
  49 H49           -0.5793    -4.6652     0.5151 H       
  50 H50            3.2910    -4.1625    -3.0382 H       
  51 H51            4.3548    -6.2937    -3.7953 H       
  52 H52            1.5839    -9.8415    -0.1101 H       
  53 H53            0.8567    -8.2980     0.3969 H       
  54 H54           -0.6912    -8.3917    -1.5380 H       
  55 H55            0.0359    -9.9353    -2.0450 H       
  56 H56            0.4302     3.8137     1.3073 H       
  57 H57            2.2064     3.6944     1.2634 H       
  58 H58            6.4351    -8.3936    -2.6616 H       
  59 H59            0.8644     1.6372    -1.9262 H       
  60 H60           -0.9140     1.7174    -1.8826 H       
  61 H61            0.0256     3.8796    -2.2963 H       
  62 H62            1.2996     5.0451    -0.6388 H       
  63 H63            2.1644     3.5915    -1.1957 H       
  64 H64           -3.9938   -10.2852    -0.7209 H       
  65 H65           -4.5423    -8.7242    -0.0646 H       
  66 H66           -3.4703    -8.7653    -1.4850 H       
  67 H67           -0.2500   -11.6655     0.7138 H       
  68 H68           -1.9161   -11.9039     0.1347 H       
  69 H69           -0.5627   -11.9090    -1.0214 H       
  70 H70            4.8813   -10.9431    -6.5908 H       
  71 H71            8.0428    -9.6496    -4.0354 H       
  72 H72            8.7115    -9.2211    -7.1586 H       
  73 H73            8.9803   -10.5633    -8.2964 H       
  74 H74            7.3922    -9.7627    -8.2237 H       
@<TRIPOS>BOND
   1    1    2 1
   2    1   22 1
   3    1   26 1
   4    1   44 1
   5    2    3 ar
   6    2    7 ar
   7    3    4 ar
   8    3   45 1
   9    4    5 ar
  10    4   46 1
  11    5    6 ar
  12    5    8 1
  13    6    7 ar
  14    6   47 1
  15    7   48 1
  16    8    9 1
  17    8   49 1
  18    9   10 ar
  19    9   14 ar
  20   10   11 ar
  21   11   12 ar
  22   11   15 1
  23   12   13 ar
  24   12   18 1
  25   13   14 ar
  26   13   50 1
  27   15   16 am
  28   15   19 1
  29   16   17 1
  30   16   20 2
  31   17   18 2
  32   17   21 1
  33   18   51 1
  34   19   23 1
  35   19   52 1
  36   19   53 1
  37   21   25 ar
  38   21   33 ar
  39   22   24 1
  40   23   29 1
  41   23   54 1
  42   23   55 1
  43   24   28 1
  44   24   56 1
  45   24   57 1
  46   25   36 ar
  47   25   58 1
  48   26   27 1
  49   26   59 1
  50   26   60 1
  51   27   28 1
  52   27   61 1
  53   28   62 1
  54   28   63 1
  55   29   30 am
  56   29   32 1
  57   30   31 1
  58   30   42 2
  59   30   43 2
  60   31   64 1
  61   31   65 1
  62   31   66 1
  63   32   67 1
  64   32   68 1
  65   32   69 1
  66   33   34 ar
  67   33   37 1
  68   34   35 ar
  69   34   70 1
  70   35   36 ar
  71   35   38 1
  72   36   71 1
  73   38   39 1
  74   38   40 2
  75   38   41 2
  76   39   72 1
  77   39   73 1
  78   39   74 1

#	End of record

