#	Name: ASD02508084
#	Creating user name:	WinNT
#	Creation time:	15. 06. 2019 20:23

#	Modifying user name:	WinNT
#	Modification time:	15. 06. 2019 20:23

#	Program:	/corina/corina34_cracker 3.40 0067  02.08.2006

@<TRIPOS>MOLECULE
ASD02508084
  36   38    0    0    0
SMALL
NO_CHARGES


@<TRIPOS>ATOM
   1 C1             0.0334     1.0756    -0.6208 C.ar    
   2 C2             0.1063    -0.2941    -0.4214 C.ar    
   3 C3             1.1985     1.8413    -0.6580 C.ar    
   4 C4             2.4307     1.2286    -0.4947 C.ar    
   5 C5             2.4992    -0.1424    -0.2952 C.ar    
   6 C6             1.3354    -0.9020    -0.2594 C.ar    
   7 N7            -1.0305     1.9595    -0.8176 N.am    
   8 C8            -0.5094     3.1944    -0.9588 C.2     
   9 O9             0.8280     3.1289    -0.8647 O.3     
  10 N10            3.7424    -0.7623    -0.1302 N.am    
  11 S11            4.9592     0.0231     0.6729 S.o2    
  12 C12            5.4435     1.3925    -0.3246 C.ar    
  13 C13            5.9853     1.1771    -1.5795 C.ar    
  14 O14           -1.1511     4.2101    -1.1467 O.2     
  15 O15            4.3769     0.5691     1.8485 O.2     
  16 O16            6.0657    -0.8681     0.6954 O.2     
  17 C17           -2.4521     1.6083    -0.8628 C.3     
  18 C18            1.4153    -2.3911    -0.0423 C.3     
  19 C19            5.2769     2.6817     0.1440 C.ar    
  20 C20            5.6568     3.7571    -0.6395 C.ar    
  21 C21            6.2037     3.5416    -1.8917 C.ar    
  22 C22            6.3660     2.2521    -2.3624 C.ar    
  23 Cl23           6.1880    -0.4424    -2.1711 Cl      
  24 Cl24           5.4465     5.3768    -0.0513 Cl      
  25 H25           -0.7972    -0.8851    -0.3926 H       
  26 H26            3.3357     1.8172    -0.5231 H       
  27 H27            3.8917    -1.6521    -0.4863 H       
  28 H28           -2.8726     1.6656     0.1412 H       
  29 H29           -2.9776     2.3040    -1.5171 H       
  30 H30           -2.5638     0.5941    -1.2462 H       
  31 H31            1.3715    -2.6055     1.0255 H       
  32 H32            0.5791    -2.8770    -0.5451 H       
  33 H33            2.3532    -2.7679    -0.4503 H       
  34 H34            4.8499     2.8499     1.1216 H       
  35 H35            6.5000     4.3810    -2.5034 H       
  36 H36            6.7930     2.0839    -3.3400 H       
@<TRIPOS>BOND
   1    1    2 ar
   2    1    3 ar
   3    1    7 1
   4    2    6 ar
   5    2   25 1
   6    3    4 ar
   7    3    9 1
   8    4    5 ar
   9    4   26 1
  10    5    6 ar
  11    5   10 1
  12    6   18 1
  13    7    8 am
  14    7   17 1
  15    8    9 1
  16    8   14 2
  17   10   11 am
  18   10   27 1
  19   11   12 1
  20   11   15 2
  21   11   16 2
  22   12   13 ar
  23   12   19 ar
  24   13   23 1
  25   13   22 ar
  26   17   28 1
  27   17   29 1
  28   17   30 1
  29   18   31 1
  30   18   32 1
  31   18   33 1
  32   19   20 ar
  33   19   34 1
  34   20   21 ar
  35   20   24 1
  36   21   22 ar
  37   21   35 1
  38   22   36 1

#	End of record

