#	Name: ASD08830249
#	Creating user name:	WinNT
#	Creation time:	15. 06. 2019 21:20

#	Modifying user name:	WinNT
#	Modification time:	15. 06. 2019 21:20

#	Program:	/corina/corina34_cracker 3.40 0067  02.08.2006

@<TRIPOS>MOLECULE
ASD08830249
  56   60    0    0    0
SMALL
NO_CHARGES


@<TRIPOS>ATOM
   1 C1            -0.1097     0.8916    -0.3973 C.ar    
   2 C2            -0.0700    -0.3963     0.0971 C.ar    
   3 C3             1.1257    -1.1151     0.0768 C.ar    
   4 C4             2.2775    -0.5287    -0.4441 C.ar    
   5 C5             2.2281     0.7657    -0.9391 C.ar    
   6 C6             1.0326     1.4737    -0.9142 C.ar    
   7 C7             1.1708    -2.4970     0.6078 C.ar    
   8 C8             0.3866    -2.8689     1.7188 C.ar    
   9 C9             0.4690    -4.1986     2.1823 C.ar    
  10 N10            1.2789    -5.0484     1.5572 N.ar    
  11 C11            1.9964    -4.6558     0.5179 C.ar    
  12 N12            1.9471    -3.4168     0.0448 N.ar    
  13 C13           -0.5332    -2.1976     2.5525 C.2     
  14 N14           -0.9734    -3.0388     3.4442 N.2     
  15 N15           -0.3763    -4.2906     3.2489 N.pl3   
  16 N16            2.8269    -5.5737    -0.1033 N.pl3   
  17 C17            2.8087    -6.9165     0.2949 C.ar    
  18 C18            1.6220    -7.4982     0.7199 C.ar    
  19 C19            3.9767    -7.6673     0.2590 C.ar    
  20 C20            3.9584    -8.9922     0.6520 C.ar    
  21 C21            2.7701    -9.5726     1.0830 C.ar    
  22 C22            1.6030    -8.8227     1.1128 C.ar    
  23 N23            2.7504   -10.9157     1.4817 N.3     
  24 C24            2.3164   -11.0438     2.8804 C.3     
  25 C25            2.2520   -12.5268     3.2553 C.3     
  26 O26            3.5301   -13.1268     3.0279 O.3     
  27 C27            3.9834   -13.0210     1.6756 C.3     
  28 C28            4.0654   -11.5430     1.2847 C.3     
  29 N29            3.3814     1.3589    -1.4626 N.am    
  30 C30            4.2720     0.6130    -2.1460 C.2     
  31 C31            5.5343     1.2120    -2.6049 C.2     
  32 C32            6.4132     0.4759    -3.2794 C.2     
  33 O33            4.0318    -0.5555    -2.3832 O.2     
  34 F34            5.0939    -9.7233     0.6170 F       
  35 H35           -1.0372     1.4447    -0.3844 H       
  36 H36           -0.9646    -0.8477     0.5001 H       
  37 H37            3.2058    -1.0805    -0.4619 H       
  38 H38            0.9956     2.4816    -1.3004 H       
  39 H39           -0.8230    -1.1608     2.4659 H       
  40 H40           -0.5363    -5.0860     3.7806 H       
  41 H41            3.4212    -5.2867    -0.8141 H       
  42 H42            0.7133    -6.9151     0.7437 H       
  43 H43            4.8989    -7.2160    -0.0761 H       
  44 H44            0.6803    -9.2733     1.4475 H       
  45 H45            3.0280   -10.5347     3.5304 H       
  46 H46            1.3298   -10.5955     2.9979 H       
  47 H47            1.9859   -12.6249     4.3078 H       
  48 H48            1.5016   -13.0251     2.6415 H       
  49 H49            4.9695   -13.4765     1.5856 H       
  50 H50            3.2833   -13.5336     1.0159 H       
  51 H51            4.3555   -11.4591     0.2374 H       
  52 H52            4.8049   -11.0418     1.9092 H       
  53 H53            3.5404     2.3070    -1.3338 H       
  54 H54            5.7476     2.2496    -2.3944 H       
  55 H55            7.3402     0.9158    -3.6165 H       
  56 H56            6.1999    -0.5617    -3.4900 H       
@<TRIPOS>BOND
   1    1    2 ar
   2    1    6 ar
   3    1   35 1
   4    2    3 ar
   5    2   36 1
   6    3    4 ar
   7    3    7 1
   8    4    5 ar
   9    4   37 1
  10    5    6 ar
  11    5   29 1
  12    6   38 1
  13    7    8 ar
  14    7   12 ar
  15    8    9 ar
  16    8   13 1
  17    9   10 ar
  18    9   15 1
  19   10   11 ar
  20   11   12 ar
  21   11   16 1
  22   13   14 2
  23   13   39 1
  24   14   15 1
  25   15   40 1
  26   16   17 1
  27   16   41 1
  28   17   18 ar
  29   17   19 ar
  30   18   22 ar
  31   18   42 1
  32   19   20 ar
  33   19   43 1
  34   20   21 ar
  35   20   34 1
  36   21   22 ar
  37   21   23 1
  38   22   44 1
  39   23   24 1
  40   23   28 1
  41   24   25 1
  42   24   45 1
  43   24   46 1
  44   25   26 1
  45   25   47 1
  46   25   48 1
  47   26   27 1
  48   27   28 1
  49   27   49 1
  50   27   50 1
  51   28   51 1
  52   28   52 1
  53   29   30 am
  54   29   53 1
  55   30   31 1
  56   30   33 2
  57   31   32 2
  58   31   54 1
  59   32   55 1
  60   32   56 1

#	End of record

