#	Name: ASD08780018
#	Creating user name:	WinNT
#	Creation time:	15. 06. 2019 21:19

#	Modifying user name:	WinNT
#	Modification time:	15. 06. 2019 21:19

#	Program:	/corina/corina34_cracker 3.40 0067  02.08.2006

@<TRIPOS>MOLECULE
ASD08780018
  33   33    0    0    0
SMALL
NO_CHARGES


@<TRIPOS>ATOM
   1 C1            -0.5632     1.1814     0.4684 C.ar    
   2 C2            -0.2909    -0.1512     0.2208 C.ar    
   3 C3             1.0229    -0.5927     0.1729 C.ar    
   4 C4             2.0651     0.3099     0.3748 C.ar    
   5 C5             1.7838     1.6432     0.6222 C.ar    
   6 C6             0.4711     2.0762     0.6686 C.ar    
   7 S7            -2.2329     1.7419     0.5218 S.o2    
   8 O8            -2.1983     3.1334     0.2360 O.2     
   9 O9            -2.9930     0.8113    -0.2369 O.2     
  10 N10           -2.7481     1.5990     2.0891 N.am    
  11 N11            1.3015    -1.9429    -0.0774 N.am    
  12 C12            0.5948    -2.9042     0.5494 C.2     
  13 S13           -0.5554    -2.4797     1.7443 S.2     
  14 N14            0.7937    -4.1997     0.2355 N.am    
  15 O15            3.3553    -0.1175     0.3293 O.3     
  16 C16            4.3731     0.8818     0.4158 C.3     
  17 C17            4.6516     1.2003     1.8861 C.3     
  18 C18            5.6525     0.3652    -0.2454 C.3     
  19 H19           -1.1010    -0.8482     0.0652 H       
  20 H20            2.5896     2.3449     0.7791 H       
  21 H21            0.2537     3.1163     0.8617 H       
  22 H22           -2.1466     1.2549     2.7679 H       
  23 H23           -3.6513     1.8594     2.3283 H       
  24 H24            2.0030    -2.1857    -0.7018 H       
  25 H25            1.4454    -4.4403    -0.4415 H       
  26 H26            0.2850    -4.8916     0.6866 H       
  27 H27            4.0395     1.7853    -0.0948 H       
  28 H28            4.9852     0.2968     2.3966 H       
  29 H29            5.4280     1.9625     1.9520 H       
  30 H30            3.7402     1.5683     2.3571 H       
  31 H31            5.4540     0.1384    -1.2929 H       
  32 H32            6.4288     1.1275    -0.1795 H       
  33 H33            5.9860    -0.5382     0.2651 H       
@<TRIPOS>BOND
   1    1    2 ar
   2    1    6 ar
   3    1    7 1
   4    2    3 ar
   5    2   19 1
   6    3    4 ar
   7    3   11 1
   8    4    5 ar
   9    4   15 1
  10    5    6 ar
  11    5   20 1
  12    6   21 1
  13    7    8 2
  14    7    9 2
  15    7   10 am
  16   10   22 1
  17   10   23 1
  18   11   12 am
  19   11   24 1
  20   12   13 2
  21   12   14 am
  22   14   25 1
  23   14   26 1
  24   15   16 1
  25   16   17 1
  26   16   18 1
  27   16   27 1
  28   17   28 1
  29   17   29 1
  30   17   30 1
  31   18   31 1
  32   18   32 1
  33   18   33 1

#	End of record

