#	Name: ASD01940391
#	Creating user name:	WinNT
#	Creation time:	15. 06. 2019 20:12

#	Modifying user name:	WinNT
#	Modification time:	15. 06. 2019 20:12

#	Program:	/corina/corina34_cracker 3.40 0067  02.08.2006

@<TRIPOS>MOLECULE
ASD01940391
  47   49    0    0    0
SMALL
NO_CHARGES


@<TRIPOS>ATOM
   1 N1             1.3461     2.7935    -1.9090 N.pl3   
   2 N2             1.7686     1.7419    -2.7309 N.2     
   3 C3             2.5087     0.9191    -2.0456 C.2     
   4 C4             2.6083     1.4006    -0.7189 C.ar    
   5 C5             3.2646     0.9325     0.4338 C.ar    
   6 C6             3.1621     1.6626     1.6233 C.ar    
   7 C7             2.4105     2.8487     1.6579 C.ar    
   8 C8             1.7756     3.3009     0.5432 C.ar    
   9 C9             1.8620     2.5912    -0.6577 C.ar    
  10 C10            3.8417     1.1872     2.8386 C.2     
  11 O11            4.3911     0.1019     2.8432 O.2     
  12 N12            3.8556     1.9542     3.9467 N.am    
  13 O13            4.4589     1.4725     5.1337 O.3     
  14 C14            4.3018     2.3394     6.2588 C.3     
  15 C15            5.0715     1.7705     7.4525 C.3     
  16 O16            6.4710     1.7779     7.1640 O.3     
  17 C17            7.2949     1.2374     8.0966 C.2     
  18 C18            8.6009     1.3072     7.9412 C.2     
  19 N19            4.0029    -0.2371     0.3922 N.pl3   
  20 C20            3.4194    -1.4484     0.7871 C.ar    
  21 C21            4.1240    -2.6395     0.6434 C.ar    
  22 C22            3.5481    -3.8334     1.0336 C.ar    
  23 C23            2.2658    -3.8435     1.5691 C.ar    
  24 C24            1.5634    -2.6536     1.7121 C.ar    
  25 C25            2.1409    -1.4594     1.3270 C.ar    
  26 S26            1.5306    -5.3656     2.0663 S.3     
  27 C27           -0.1725    -4.8851     2.4651 C.3     
  28 F28            5.3704    -2.6287     0.1223 F       
  29 H29            0.7878     3.5388    -2.1806 H       
  30 H30            2.9694     0.0193    -2.4259 H       
  31 H31            2.3356     3.4072     2.5792 H       
  32 H32            1.2010     4.2143     0.5865 H       
  33 H33            3.4524     2.8363     3.9311 H       
  34 H34            4.6908     3.3275     6.0132 H       
  35 H35            3.2445     2.4178     6.5122 H       
  36 H36            4.8789     2.3821     8.3339 H       
  37 H37            4.7448     0.7479     7.6414 H       
  38 H38            6.8799     0.7499     8.9663 H       
  39 H39            9.2568     0.8769     8.6836 H       
  40 H40            9.0160     1.7947     7.0715 H       
  41 H41            4.9243    -0.2185     0.0896 H       
  42 H42            4.0942    -4.7585     0.9221 H       
  43 H43            0.5669    -2.6618     2.1283 H       
  44 H44            1.5958    -0.5343     1.4427 H       
  45 H45           -0.1659    -4.1791     3.2955 H       
  46 H46           -0.6315    -4.4173     1.5941 H       
  47 H47           -0.7436    -5.7703     2.7453 H       
@<TRIPOS>BOND
   1    1    2 1
   2    1    9 1
   3    1   29 1
   4    2    3 2
   5    3    4 1
   6    3   30 1
   7    4    5 ar
   8    4    9 ar
   9    5    6 ar
  10    5   19 1
  11    6    7 ar
  12    6   10 1
  13    7    8 ar
  14    7   31 1
  15    8    9 ar
  16    8   32 1
  17   10   11 2
  18   10   12 am
  19   12   13 1
  20   12   33 1
  21   13   14 1
  22   14   15 1
  23   14   34 1
  24   14   35 1
  25   15   16 1
  26   15   36 1
  27   15   37 1
  28   16   17 1
  29   17   18 2
  30   17   38 1
  31   18   39 1
  32   18   40 1
  33   19   20 1
  34   19   41 1
  35   20   21 ar
  36   20   25 ar
  37   21   22 ar
  38   21   28 1
  39   22   23 ar
  40   22   42 1
  41   23   24 ar
  42   23   26 1
  43   24   25 ar
  44   24   43 1
  45   25   44 1
  46   26   27 1
  47   27   45 1
  48   27   46 1
  49   27   47 1

#	End of record

