#	Name: ASD05380128
#	Creating user name:	WinNT
#	Creation time:	15. 06. 2019 20:59

#	Modifying user name:	WinNT
#	Modification time:	15. 06. 2019 20:59

#	Program:	/corina/corina34_cracker 3.40 0067  02.08.2006

@<TRIPOS>MOLECULE
ASD05380128
  64   69    0    0    0
SMALL
NO_CHARGES


@<TRIPOS>ATOM
   1 C1            -0.2695     1.7429    -0.3086 C.ar    
   2 C2            -0.0033     0.3796    -0.5677 C.ar    
   3 C3             0.6323     2.7209    -0.7221 C.ar    
   4 C4             1.7822     2.3480    -1.3837 C.ar    
   5 C5             2.0469     1.0093    -1.6399 C.ar    
   6 C6             1.1685     0.0272    -1.2396 C.ar    
   7 N7            -0.8956    -0.5552    -0.1553 N.2     
   8 C8            -1.9852    -0.2272     0.4700 C.2     
   9 N9            -2.3219     1.0585     0.7613 N.am    
  10 C10           -1.5090     2.0807     0.4062 C.2     
  11 C11           -3.5178     1.3262     1.4394 C.ar    
  12 C12           -4.6873     1.5519     0.7240 C.ar    
  13 C13           -5.8893     1.8557     2.7728 C.ar    
  14 C14           -2.9249    -1.3262     0.8943 C.3     
  15 N15           -2.9258    -2.3856    -0.1176 N.pl3   
  16 C16           -4.0242    -3.2169    -0.2480 C.ar    
  17 N17           -5.0854    -3.0670     0.5369 N.ar    
  18 O18           -1.7976     3.2357     0.6603 O.2     
  19 C19           -4.0434    -4.2343    -1.2176 C.ar    
  20 C20           -5.1847    -5.0485    -1.3060 C.ar    
  21 N21           -6.2006    -4.8319    -0.4766 N.ar    
  22 C22           -6.1432    -3.8593     0.4187 C.ar    
  23 N23           -3.1723    -4.6631    -2.1639 N.2     
  24 C24           -3.6940    -5.6638    -2.8109 C.2     
  25 N25           -4.9361    -5.9402    -2.3185 N.pl3   
  26 C26           -5.8675     1.8156     1.3918 C.ar    
  27 C27           -4.7243     1.6257     3.4943 C.ar    
  28 C28           -3.5370     1.3606     2.8259 C.ar    
  29 C29           -2.4642    -1.9019     2.2349 C.3     
  30 N30           -4.7468     1.6669     4.8902 N.3     
  31 C31            0.3522     4.1761    -0.4483 C.3     
  32 C32           -6.0973     1.9683     5.3868 C.3     
  33 C33           -3.7733     2.6412     5.4043 C.3     
  34 C34           -3.7887     2.6109     6.9349 C.3     
  35 O35           -5.1156     2.8751     7.3986 O.3     
  36 C36           -6.0894     1.9448     6.9175 C.3     
  37 N37           -7.2243    -3.6617     1.2619 N.pl3   
  38 H38            2.4834     3.1035    -1.7060 H       
  39 H39            2.9530     0.7348    -2.1596 H       
  40 H40            1.3853    -1.0109    -1.4443 H       
  41 H41           -4.6736     1.5216    -0.3555 H       
  42 H42           -6.8135     2.0621     3.2920 H       
  43 H43           -3.9321    -0.9229     0.9989 H       
  44 H44           -2.1564    -2.5043    -0.6963 H       
  45 H45           -3.2148    -6.1969    -3.6188 H       
  46 H46           -5.5335    -6.6392    -2.6273 H       
  47 H47           -6.7750     1.9910     0.8333 H       
  48 H48           -2.6301     1.1810     3.3843 H       
  49 H49           -3.1253    -2.7182     2.5262 H       
  50 H50           -1.4451    -2.2764     2.1386 H       
  51 H51           -2.4941    -1.1213     2.9950 H       
  52 H52            0.6721     4.4235     0.5639 H       
  53 H53            0.8986     4.7919    -1.1628 H       
  54 H54           -0.7166     4.3654    -0.5481 H       
  55 H55           -6.4008     2.9559     5.0395 H       
  56 H56           -6.7972     1.2200     5.0149 H       
  57 H57           -2.7768     2.3842     5.0452 H       
  58 H58           -4.0396     3.6396     5.0573 H       
  59 H59           -3.4705     1.6282     7.2827 H       
  60 H60           -3.1101     3.3716     7.3209 H       
  61 H61           -7.0748     2.2236     7.2909 H       
  62 H62           -5.8381     0.9426     7.2649 H       
  63 H63           -7.1995    -2.9537     1.9245 H       
  64 H64           -8.0061    -4.2313     1.1897 H       
@<TRIPOS>BOND
   1    1    2 ar
   2    1    3 ar
   3    1   10 1
   4    2    7 1
   5    2    6 ar
   6    3    4 ar
   7    3   31 1
   8    4    5 ar
   9    4   38 1
  10    5    6 ar
  11    5   39 1
  12    6   40 1
  13    7    8 2
  14    8    9 1
  15    8   14 1
  16    9   10 am
  17    9   11 1
  18   10   18 2
  19   11   12 ar
  20   11   28 ar
  21   12   26 ar
  22   12   41 1
  23   13   26 ar
  24   13   27 ar
  25   13   42 1
  26   14   15 1
  27   14   29 1
  28   14   43 1
  29   15   16 1
  30   15   44 1
  31   16   17 ar
  32   16   19 ar
  33   17   22 ar
  34   19   20 ar
  35   19   23 1
  36   20   21 ar
  37   20   25 1
  38   21   22 ar
  39   22   37 1
  40   23   24 2
  41   24   25 1
  42   24   45 1
  43   25   46 1
  44   26   47 1
  45   27   30 1
  46   27   28 ar
  47   28   48 1
  48   29   49 1
  49   29   50 1
  50   29   51 1
  51   30   32 1
  52   30   33 1
  53   31   52 1
  54   31   53 1
  55   31   54 1
  56   32   36 1
  57   32   55 1
  58   32   56 1
  59   33   34 1
  60   33   57 1
  61   33   58 1
  62   34   35 1
  63   34   59 1
  64   34   60 1
  65   35   36 1
  66   36   61 1
  67   36   62 1
  68   37   63 1
  69   37   64 1

#	End of record

