#	Name: ASD01810609
#	Creating user name:	WinNT
#	Creation time:	15. 06. 2019 19:24

#	Modifying user name:	WinNT
#	Modification time:	15. 06. 2019 19:24

#	Program:	/corina/corina34_cracker 3.40 0067  02.08.2006

@<TRIPOS>MOLECULE
ASD01810609
  63   66    0    0    0
SMALL
NO_CHARGES


@<TRIPOS>ATOM
   1 N1            -0.0183     1.3812    -0.4583 N.am    
   2 C2             0.1668     0.3061    -1.2497 C.2     
   3 O3             1.2581     0.0945    -1.7423 O.2     
   4 N4            -0.8577    -0.5345    -1.4950 N.am    
   5 C5            -1.5160    -3.9683    -2.9553 C.3     
   6 C6            -1.6825    -2.7836    -2.0001 C.3     
   7 C7            -0.6565    -1.7032    -2.3553 C.3     
   8 C8            -0.8436    -1.2989    -3.8208 C.3     
   9 C9            -0.7094    -2.5410    -4.7058 C.3     
  10 O10           -1.6714    -3.5177    -4.3025 O.3     
  11 C11            1.0683     2.1957    -0.1187 C.ar    
  12 C12            0.8813     3.5595     0.0730 C.ar    
  13 C13            1.9510     4.3680     0.4081 C.ar    
  14 C14            3.2121     3.8266     0.5545 C.ar    
  15 C15            3.4102     2.4581     0.3646 C.ar    
  16 C16            2.3294     1.6412     0.0320 C.ar    
  17 C17           -0.4923     4.1587    -0.0854 C.3     
  18 C18            4.7602     1.8753     0.5204 C.2     
  19 O19            4.9104     0.8518     1.1587 O.2     
  20 N20            5.8241     2.4790    -0.0453 N.am    
  21 C21            7.1560     1.8618     0.0175 C.3     
  22 C22            7.7170     1.7540    -1.4040 C.3     
  23 C23            7.6947     3.1351    -2.0629 C.3     
  24 C24            6.2517     3.6375    -2.1499 C.3     
  25 C25            5.6731     3.7638    -0.7418 C.3     
  26 F26            8.4539     4.0282    -1.2992 F       
  27 C27            8.2775     3.0394    -3.4494 C.ar    
  28 C28            8.6500     4.1904    -4.1208 C.ar    
  29 C29            9.1841     4.1100    -5.3901 C.ar    
  30 C30            9.3488     2.8634    -5.9971 C.ar    
  31 C31            8.9711     1.7058    -5.3136 C.ar    
  32 C32            8.4428     1.8005    -4.0428 C.ar    
  33 C33            9.9021     2.7724    -7.3147 C.1     
  34 N34           10.3411     2.7002    -8.3600 N.1     
  35 H35           -0.9052     1.5929    -0.1274 H       
  36 H36           -1.7283    -0.3657    -1.1020 H       
  37 H37           -0.5233    -4.4004    -2.8289 H       
  38 H38           -2.2716    -4.7222    -2.7347 H       
  39 H39           -2.6889    -2.3762    -2.0971 H       
  40 H40           -1.5207    -3.1168    -0.9750 H       
  41 H41            0.3503    -2.0944    -2.2092 H       
  42 H42           -1.8330    -0.8616    -3.9546 H       
  43 H43           -0.0817    -0.5703    -4.0978 H       
  44 H44           -0.8841    -2.2666    -5.7461 H       
  45 H45            0.2938    -2.9544    -4.6022 H       
  46 H46            1.7996     5.4272     0.5554 H       
  47 H47            4.0456     4.4618     0.8157 H       
  48 H48            2.4758     0.5808    -0.1118 H       
  49 H49           -1.0108     4.1374     0.8731 H       
  50 H50           -0.4017     5.1900    -0.4266 H       
  51 H51           -1.0580     3.5822    -0.8174 H       
  52 H52            7.8168     2.4798     0.6253 H       
  53 H53            7.0773     0.8668     0.4556 H       
  54 H54            8.7424     1.3868    -1.3635 H       
  55 H55            7.1055     1.0638    -1.9851 H       
  56 H56            6.2343     4.6108    -2.6404 H       
  57 H57            5.6540     2.9295    -2.7240 H       
  58 H58            4.6163     4.0235    -0.8044 H       
  59 H59            6.2105     4.5401    -0.1972 H       
  60 H60            8.5220     5.1540    -3.6501 H       
  61 H61            9.4738     5.0093    -5.9134 H       
  62 H62            9.0958     0.7384    -5.7772 H       
  63 H63            8.1541     0.9057    -3.5113 H       
@<TRIPOS>BOND
   1    1    2 am
   2    1   11 1
   3    1   35 1
   4    2    3 2
   5    2    4 am
   6    4    7 1
   7    4   36 1
   8    5    6 1
   9    5   10 1
  10    5   37 1
  11    5   38 1
  12    6    7 1
  13    6   39 1
  14    6   40 1
  15    7    8 1
  16    7   41 1
  17    8    9 1
  18    8   42 1
  19    8   43 1
  20    9   10 1
  21    9   44 1
  22    9   45 1
  23   11   12 ar
  24   11   16 ar
  25   12   13 ar
  26   12   17 1
  27   13   14 ar
  28   13   46 1
  29   14   15 ar
  30   14   47 1
  31   15   16 ar
  32   15   18 1
  33   16   48 1
  34   17   49 1
  35   17   50 1
  36   17   51 1
  37   18   19 2
  38   18   20 am
  39   20   21 1
  40   20   25 1
  41   21   22 1
  42   21   52 1
  43   21   53 1
  44   22   23 1
  45   22   54 1
  46   22   55 1
  47   23   24 1
  48   23   26 1
  49   23   27 1
  50   24   25 1
  51   24   56 1
  52   24   57 1
  53   25   58 1
  54   25   59 1
  55   27   28 ar
  56   27   32 ar
  57   28   29 ar
  58   28   60 1
  59   29   30 ar
  60   29   61 1
  61   30   31 ar
  62   30   33 1
  63   31   32 ar
  64   31   62 1
  65   32   63 1
  66   33   34 3

#	End of record

