#	Name: ASD00990055
#	Creating user name:	WinNT
#	Creation time:	15. 06. 2019 18:54

#	Modifying user name:	WinNT
#	Modification time:	15. 06. 2019 18:54

#	Program:	/corina/corina34_cracker 3.40 0067  02.08.2006

@<TRIPOS>MOLECULE
ASD00990055
  27   26    0    0    0
SMALL
NO_CHARGES


@<TRIPOS>ATOM
   1 C1            -0.0170     1.4007     0.0097 C.ar    
   2 C2             0.0021    -0.0041     0.0020 C.ar    
   3 C3            -1.1924    -0.7115     0.0089 C.ar    
   4 C4            -2.3916    -0.0277     0.0234 C.ar    
   5 C5            -2.4087     1.3619     0.0306 C.ar    
   6 C6            -1.2423     2.0725     0.0200 C.ar    
   7 N7             1.2769     1.8140    -0.0004 N.2     
   8 C8             2.0662     0.7800    -0.0135 C.2     
   9 N9             1.3339    -0.3671    -0.0126 N.pl3   
  10 C10            3.5718     0.8432    -0.0275 C.3     
  11 N11            4.0427     0.9923    -1.4110 N.3     
  12 C12            5.5093     1.0575    -1.4637 C.3     
  13 F13           -3.5556    -0.7136     0.0302 F       
  14 H14           -1.1836    -1.7915     0.0027 H       
  15 H15           -3.3535     1.8850     0.0415 H       
  16 H16           -1.2669     3.1522     0.0257 H       
  17 H17            1.6831    -1.2721    -0.0208 H       
  18 H18            3.9052     1.6961     0.5637 H       
  19 H19            3.9779    -0.0746     0.3976 H       
  20 H20            3.6927     0.2472    -1.9944 H       
  21 H21            5.8562     1.9119    -0.8824 H       
  22 H22            5.9289     0.1412    -1.0485 H       
  23 H23            5.8312     1.1679    -2.4992 H       
  24 Cl24          10.9289     8.1522     5.5637 Cl      
  25 H25           10.9289     9.5222     5.5637 H       
  26 Cl26          15.9289    14.5222    10.5637 Cl      
  27 H27           15.9289    15.8922    10.5637 H       
@<TRIPOS>BOND
   1    1    2 ar
   2    1    7 1
   3    1    6 ar
   4    2    3 ar
   5    2    9 1
   6    3    4 ar
   7    3   14 1
   8    4    5 ar
   9    4   13 1
  10    5    6 ar
  11    5   15 1
  12    6   16 1
  13    7    8 2
  14    8    9 1
  15    8   10 1
  16    9   17 1
  17   10   11 1
  18   10   18 1
  19   10   19 1
  20   11   12 1
  21   11   20 1
  22   12   21 1
  23   12   22 1
  24   12   23 1
  25   24   25 1
  26   26   27 1

#	End of record

