#	Name: ASD01908165
#	Creating user name:	WinNT
#	Creation time:	15. 06. 2019 19:54

#	Modifying user name:	WinNT
#	Modification time:	15. 06. 2019 19:54

#	Program:	/corina/corina34_cracker 3.40 0067  02.08.2006

@<TRIPOS>MOLECULE
ASD01908165
  28   30    0    0    0
SMALL
NO_CHARGES


@<TRIPOS>ATOM
   1 C1            -0.0180     1.4791     0.0102 C.ar    
   2 C2             0.0021    -0.0041     0.0020 C.2     
   3 C3             1.1463    -0.8221     0.0862 C.2     
   4 N4             0.7571    -2.0686     0.0476 N.2     
   5 N5            -0.6384    -2.0962    -0.0619 N.pl3   
   6 C6            -1.0851    -0.8255    -0.0825 C.2     
   7 C7             1.1835     2.1854     0.0025 C.ar    
   8 C8             1.1553     3.5701     0.0102 C.ar    
   9 C9            -0.0740     4.2087     0.0254 C.ar    
  10 C10           -1.2390     3.4443     0.0324 C.ar    
  11 N11           -1.1788     2.1196     0.0192 N.ar    
  12 C12           -2.5596     4.1190     0.0491 C.ar    
  13 C13           -3.7324     3.3628     0.0563 C.ar    
  14 C14           -4.9610     3.9973     0.0718 C.ar    
  15 C15           -5.0286     5.3779     0.0798 C.ar    
  16 C16           -3.8672     6.1339     0.0723 C.ar    
  17 C17           -2.6339     5.5106     0.0635 C.ar    
  18 F18           -3.6677     2.0133     0.0475 F       
  19 F19           -3.9408     7.4828     0.0793 F       
  20 H20            2.1670    -0.4786     0.1679 H       
  21 H21           -1.1891    -2.8933    -0.1105 H       
  22 H22           -2.1161    -0.5131    -0.1591 H       
  23 H23            2.1262     1.6586    -0.0090 H       
  24 H24            2.0726     4.1402     0.0049 H       
  25 H25           -0.1288     5.2873     0.0320 H       
  26 H26           -5.8693     3.4132     0.0773 H       
  27 H27           -5.9902     5.8693     0.0916 H       
  28 H28           -1.7295     6.1007     0.0581 H       
@<TRIPOS>BOND
   1    1    2 1
   2    1    7 ar
   3    1   11 ar
   4    2    3 1
   5    2    6 2
   6    3    4 2
   7    3   20 1
   8    4    5 1
   9    5    6 1
  10    5   21 1
  11    6   22 1
  12    7    8 ar
  13    7   23 1
  14    8    9 ar
  15    8   24 1
  16    9   10 ar
  17    9   25 1
  18   10   11 ar
  19   10   12 1
  20   12   13 ar
  21   12   17 ar
  22   13   14 ar
  23   13   18 1
  24   14   15 ar
  25   14   26 1
  26   15   16 ar
  27   15   27 1
  28   16   17 ar
  29   16   19 1
  30   17   28 1

#	End of record

