#	Name: ASD01901039
#	Creating user name:	WinNT
#	Creation time:	15. 06. 2019 19:53

#	Modifying user name:	WinNT
#	Modification time:	15. 06. 2019 19:53

#	Program:	/corina/corina34_cracker 3.40 0067  02.08.2006

@<TRIPOS>MOLECULE
ASD01901039
  49   51    0    0    0
SMALL
NO_CHARGES


@<TRIPOS>ATOM
   1 C1             1.0855     2.0673    -0.4676 C.ar    
   2 C2             2.2234     2.2573     0.3136 C.ar    
   3 C3             3.3652     1.5254     0.0290 C.ar    
   4 C4             3.3294     0.6284    -1.0274 C.ar    
   5 C5             2.1629     0.4905    -1.7622 C.ar    
   6 N6             1.0932     1.1979    -1.4705 N.ar    
   7 C7            -0.1451     2.8373    -0.1725 C.2     
   8 O8            -0.1592     3.6309     0.7477 O.2     
   9 N9            -1.2489     2.6578    -0.9247 N.am    
  10 C10           -2.4381     3.3122    -0.5884 C.ar    
  11 C11           -2.4072     4.6288    -0.1471 C.ar    
  12 C12           -3.5835     5.2724     0.1837 C.ar    
  13 C13           -4.7911     4.6072     0.0766 C.ar    
  14 C14           -4.8254     3.2963    -0.3624 C.ar    
  15 C15           -3.6532     2.6488    -0.7003 C.ar    
  16 S16           -6.2895     5.4315     0.5008 S.o2    
  17 O17           -7.2614     4.4159     0.7083 O.2     
  18 O18           -5.9510     6.3966     1.4874 O.2     
  19 N19           -6.7775     6.2799    -0.8351 N.am    
  20 C20           -7.2056     5.5988    -1.9769 C.ar    
  21 C21           -8.4622     5.0074    -2.0045 C.ar    
  22 C22           -9.3659     5.0997    -0.8021 C.3     
  23 C23           -8.8825     4.3352    -3.1353 C.ar    
  24 C24           -8.0540     4.2504    -4.2393 C.ar    
  25 C25           -8.5163     3.5165    -5.4716 C.3     
  26 C26           -6.8024     4.8380    -4.2151 C.ar    
  27 C27           -6.3779     5.5163    -3.0895 C.ar    
  28 C28           -5.0163     6.1616    -3.0663 C.3     
  29 H29            2.2158     2.9653     1.1291 H       
  30 H30            4.2626     1.6512     0.6166 H       
  31 H31            4.2025     0.0430    -1.2754 H       
  32 H32            2.1317    -0.2071    -2.5861 H       
  33 H33           -1.2185     2.0747    -1.6992 H       
  34 H34           -1.4643     5.1487    -0.0625 H       
  35 H35           -3.5602     6.2961     0.5269 H       
  36 H36           -5.7701     2.7795    -0.4447 H       
  37 H37           -3.6810     1.6263    -1.0470 H       
  38 H38           -6.7660     7.2497    -0.8246 H       
  39 H39          -10.0709     5.9195    -0.9396 H       
  40 H40           -9.9141     4.1646    -0.6870 H       
  41 H41           -8.7665     5.2816     0.0898 H       
  42 H42           -9.8593     3.8748    -3.1574 H       
  43 H43           -9.0294     4.2109    -6.1370 H       
  44 H44           -7.6546     3.0905    -5.9855 H       
  45 H45           -9.1994     2.7173    -5.1837 H       
  46 H46           -6.1579     4.7700    -5.0790 H       
  47 H47           -4.2691     5.4230    -2.7761 H       
  48 H48           -4.7800     6.5472    -4.0581 H       
  49 H49           -5.0149     6.9814    -2.3480 H       
@<TRIPOS>BOND
   1    1    2 ar
   2    1    6 ar
   3    1    7 1
   4    2    3 ar
   5    2   29 1
   6    3    4 ar
   7    3   30 1
   8    4    5 ar
   9    4   31 1
  10    5    6 ar
  11    5   32 1
  12    7    8 2
  13    7    9 am
  14    9   10 1
  15    9   33 1
  16   10   11 ar
  17   10   15 ar
  18   11   12 ar
  19   11   34 1
  20   12   13 ar
  21   12   35 1
  22   13   14 ar
  23   13   16 1
  24   14   15 ar
  25   14   36 1
  26   15   37 1
  27   16   17 2
  28   16   18 2
  29   16   19 am
  30   19   20 1
  31   19   38 1
  32   20   21 ar
  33   20   27 ar
  34   21   22 1
  35   21   23 ar
  36   22   39 1
  37   22   40 1
  38   22   41 1
  39   23   24 ar
  40   23   42 1
  41   24   25 1
  42   24   26 ar
  43   25   43 1
  44   25   44 1
  45   25   45 1
  46   26   27 ar
  47   26   46 1
  48   27   28 1
  49   28   47 1
  50   28   48 1
  51   28   49 1

#	End of record

