#	Name: ASD01900849
#	Creating user name:	WinNT
#	Creation time:	15. 06. 2019 19:52

#	Modifying user name:	WinNT
#	Modification time:	15. 06. 2019 19:52

#	Program:	/corina/corina34_cracker 3.40 0067  02.08.2006

@<TRIPOS>MOLECULE
ASD01900849
  26   27    0    0    0
SMALL
NO_CHARGES


@<TRIPOS>ATOM
   1 N1            -0.0527     1.3095    -0.0064 N.ar    
   2 C2            -0.0514    -0.0055    -0.0305 C.ar    
   3 C3             1.1191    -0.7197     0.1686 C.ar    
   4 C4             2.3029    -0.0349     0.3955 C.ar    
   5 C5             2.2718     1.3504     0.4151 C.ar    
   6 C6             1.0585     2.0031     0.2075 C.ar    
   7 C7             1.0082     3.4834     0.2258 C.2     
   8 O8             2.0226     4.1235     0.4213 O.2     
   9 N9            -0.1625     4.1205     0.0257 N.am    
  10 C10           -0.2293     5.5128     0.1394 C.ar    
  11 C11            0.8395     6.2941    -0.2724 C.ar    
  12 C12            0.7678     7.6825    -0.1568 C.ar    
  13 C13           -0.3804     8.2759     0.3730 C.ar    
  14 C14           -1.4383     7.4892     0.7798 C.ar    
  15 C15           -1.3694     6.1136     0.6599 C.ar    
  16 C16            1.8676     8.4964    -0.5794 C.1     
  17 N17            2.7400     9.1421    -0.9147 N.1     
  18 H18           -0.9754    -0.5359    -0.2076 H       
  19 H19            1.1093    -1.7995     0.1475 H       
  20 H20            3.2282    -0.5688     0.5538 H       
  21 H21            3.1752     1.9161     0.5894 H       
  22 H22           -0.9587     3.6133    -0.1971 H       
  23 H23            1.7247     5.8293    -0.6809 H       
  24 H24           -0.4398     9.3503     0.4645 H       
  25 H25           -2.3252     7.9499     1.1891 H       
  26 H26           -2.2025     5.5034     0.9760 H       
@<TRIPOS>BOND
   1    1    2 ar
   2    1    6 ar
   3    2    3 ar
   4    2   18 1
   5    3    4 ar
   6    3   19 1
   7    4    5 ar
   8    4   20 1
   9    5    6 ar
  10    5   21 1
  11    6    7 1
  12    7    8 2
  13    7    9 am
  14    9   10 1
  15    9   22 1
  16   10   11 ar
  17   10   15 ar
  18   11   12 ar
  19   11   23 1
  20   12   13 ar
  21   12   16 1
  22   13   14 ar
  23   13   24 1
  24   14   15 ar
  25   14   25 1
  26   15   26 1
  27   16   17 3

#	End of record

