#	Name: ASD05213020
#	Creating user name:	WinNT
#	Creation time:	15. 06. 2019 20:57

#	Modifying user name:	WinNT
#	Modification time:	15. 06. 2019 20:57

#	Program:	/corina/corina34_cracker 3.40 0067  02.08.2006

@<TRIPOS>MOLECULE
ASD05213020
  24   26    0    0    0
SMALL
NO_CHARGES


@<TRIPOS>ATOM
   1 S1            -0.0218     1.7577     0.0117 S.3     
   2 C2             0.0021    -0.0041     0.0020 C.2     
   3 C3             1.7090     2.0873    -0.0030 C.2     
   4 N4             2.6490     1.1750    -0.0174 N.2     
   5 C5             3.8679     1.7754    -0.0256 C.ar    
   6 C6             3.6461     3.1623    -0.0155 C.ar    
   7 N7             2.2712     3.3327    -0.0072 N.pl3   
   8 C8             5.1773     1.2878    -0.0415 C.ar    
   9 C9             6.2359     2.1696    -0.0469 C.ar    
  10 C10            6.0107     3.5402    -0.0368 C.ar    
  11 C11            4.7226     4.0364    -0.0214 C.ar    
  12 S12           -1.3858    -1.0024     0.0099 S.3     
  13 C13           -0.3659    -2.4388    -0.0075 C.2     
  14 C14            0.9078    -2.0421    -0.0176 C.2     
  15 N15            1.0751    -0.7326    -0.0178 N.2     
  16 Cl16           7.8625     1.5634    -0.0660 Cl      
  17 Cl17           7.3573     4.6359    -0.0439 Cl      
  18 N18           -0.8404    -3.8438    -0.0101 N.pl3   
  19 O19           -0.0360    -4.7583    -0.0223 O.2     
  20 O20           -2.0346    -4.0833    -0.0000 O.2     
  21 H21            1.7963     4.1785     0.0003 H       
  22 H22            5.3590     0.2232    -0.0490 H       
  23 H23            4.5536     5.1031    -0.0138 H       
  24 H24            1.7351    -2.7362    -0.0292 H       
@<TRIPOS>BOND
   1    1    2 1
   2    1    3 1
   3    2   12 1
   4    2   15 2
   5    3    4 2
   6    3    7 1
   7    4    5 1
   8    5    6 ar
   9    5    8 ar
  10    6    7 1
  11    6   11 ar
  12    7   21 1
  13    8    9 ar
  14    8   22 1
  15    9   10 ar
  16    9   16 1
  17   10   11 ar
  18   10   17 1
  19   11   23 1
  20   12   13 1
  21   13   14 2
  22   13   18 1
  23   14   15 1
  24   14   24 1
  25   18   19 2
  26   18   20 2

#	End of record

