#	Name: ASD03540168
#	Creating user name:	WinNT
#	Creation time:	15. 06. 2019 20:42

#	Modifying user name:	WinNT
#	Modification time:	15. 06. 2019 20:42

#	Program:	/corina/corina34_cracker 3.40 0067  02.08.2006

@<TRIPOS>MOLECULE
ASD03540168
  56   59    0    0    0
SMALL
NO_CHARGES


@<TRIPOS>ATOM
   1 C1             2.7441    -8.6900    -2.5611 C.2     
   2 C2             2.0550    -7.5576    -1.9091 C.ar    
   3 C3             0.6700    -7.5864    -1.7341 C.ar    
   4 C4             0.0329    -6.5258    -1.1240 C.ar    
   5 C5             0.7631    -5.4351    -0.6862 C.ar    
   6 C6             2.1358    -5.3999    -0.8568 C.ar    
   7 C7             2.7863    -6.4564    -1.4597 C.ar    
   8 O8             2.1058    -9.6489    -2.9465 O.2     
   9 O9             4.0797    -8.6566    -2.7334 O.3     
  10 C10            0.0601    -4.2800    -0.0210 C.3     
  11 C11           -2.3002    -4.3354     0.5393 C.2     
  12 N12           -3.3607    -4.7614     1.2401 N.am    
  13 C13           -3.2260    -5.6927     2.2544 C.2     
  14 C14           -1.9634    -6.1935     2.5486 C.2     
  15 C15           -0.8249    -5.6915     1.7469 C.2     
  16 N16           -1.0579    -4.7846     0.7800 N.am    
  17 C17           -1.9741    -7.1227     3.5913 C.2     
  18 C18           -3.1908    -7.3572     4.1106 C.2     
  19 S19           -4.3983    -6.3902     3.2828 S.3     
  20 C20           -3.4689    -8.2856     5.2089 C.2     
  21 N21           -4.7313    -8.4448     5.6535 N.am    
  22 O22           -2.5600    -8.9135     5.7201 O.2     
  23 C23           -5.0095    -9.3733     6.7519 C.3     
  24 C24           -6.4857    -9.3655     7.0546 C.ar    
  25 C25           -7.3295   -10.2460     6.4038 C.ar    
  26 C26           -8.6836   -10.2388     6.6815 C.ar    
  27 C27           -9.1940    -9.3513     7.6103 C.ar    
  28 C28           -8.3501    -8.4713     8.2618 C.ar    
  29 C29           -6.9953    -8.4815     7.9873 C.ar    
  30 S30          -10.9202    -9.3412     7.9634 S.o2    
  31 O31          -11.2177    -8.0492     8.4747 O.2     
  32 O32          -11.5659    -9.8940     6.8246 O.2     
  33 N33          -11.1725   -10.4057     9.2066 N.am    
  34 O34            0.3043    -6.0928     1.9585 O.2     
  35 O35           -2.4694    -3.5197    -0.3462 O.2     
  36 C36            1.0438    -3.5385     0.8864 C.3     
  37 H37            0.0988    -8.4368    -2.0760 H       
  38 H38           -1.0383    -6.5468    -0.9880 H       
  39 H39            2.6996    -4.5452    -0.5134 H       
  40 H40            3.8584    -6.4298    -1.5879 H       
  41 H41            4.4859    -9.4207    -3.1650 H       
  42 H42           -0.3174    -3.5973    -0.7823 H       
  43 H43           -4.2403    -4.4094     1.0320 H       
  44 H44           -1.0801    -7.6113     3.9498 H       
  45 H45           -5.4556    -7.9444     5.2461 H       
  46 H46           -4.7030   -10.3790     6.4640 H       
  47 H47           -4.4552    -9.0643     7.6381 H       
  48 H48           -6.9307   -10.9395     5.6781 H       
  49 H49           -9.3429   -10.9263     6.1725 H       
  50 H50           -8.7489    -7.7777     8.9872 H       
  51 H51           -6.3355    -7.7965     8.4990 H       
  52 H52          -11.8996   -10.2581     9.8314 H       
  53 H53          -10.5930   -11.1767     9.3101 H       
  54 H54            1.4213    -4.2212     1.6477 H       
  55 H55            1.8756    -3.1630     0.2905 H       
  56 H56            0.5353    -2.7030     1.3676 H       
@<TRIPOS>BOND
   1    1    2 1
   2    1    8 2
   3    1    9 1
   4    2    3 ar
   5    2    7 ar
   6    3    4 ar
   7    3   37 1
   8    4    5 ar
   9    4   38 1
  10    5    6 ar
  11    5   10 1
  12    6    7 ar
  13    6   39 1
  14    7   40 1
  15    9   41 1
  16   10   16 1
  17   10   36 1
  18   10   42 1
  19   11   12 am
  20   11   16 am
  21   11   35 2
  22   12   13 1
  23   12   43 1
  24   13   14 2
  25   13   19 1
  26   14   15 1
  27   14   17 1
  28   15   16 am
  29   15   34 2
  30   17   18 2
  31   17   44 1
  32   18   19 1
  33   18   20 1
  34   20   21 am
  35   20   22 2
  36   21   23 1
  37   21   45 1
  38   23   24 1
  39   23   46 1
  40   23   47 1
  41   24   25 ar
  42   24   29 ar
  43   25   26 ar
  44   25   48 1
  45   26   27 ar
  46   26   49 1
  47   27   28 ar
  48   27   30 1
  49   28   29 ar
  50   28   50 1
  51   29   51 1
  52   30   31 2
  53   30   32 2
  54   30   33 am
  55   33   52 1
  56   33   53 1
  57   36   54 1
  58   36   55 1
  59   36   56 1

#	End of record

