#	Name: ASD06170409
#	Creating user name:	WinNT
#	Creation time:	15. 06. 2019 21:05

#	Modifying user name:	WinNT
#	Modification time:	15. 06. 2019 21:05

#	Program:	/corina/corina34_cracker 3.40 0067  02.08.2006

@<TRIPOS>MOLECULE
ASD06170409
  39   42    0    0    0
SMALL
NO_CHARGES


@<TRIPOS>ATOM
   1 C1            -0.0170     1.4049     0.0098 C.ar    
   2 C2             0.0021    -0.0041     0.0020 C.ar    
   3 C3            -1.1530    -0.7148     0.0087 C.ar    
   4 C4            -2.3921    -0.0468     0.0241 C.ar    
   5 C5            -2.4263     1.3713     0.0326 C.ar    
   6 C6            -1.2231     2.0918     0.0307 C.ar    
   7 C7            -3.5999    -0.7628     0.0308 C.ar    
   8 C8            -4.7840    -0.0898     0.0453 C.ar    
   9 C9            -4.8181     1.3029     0.0532 C.ar    
  10 C10           -3.6682     2.0314     0.0476 C.ar    
  11 C11            1.2493     2.1526     0.0017 C.2     
  12 C12            2.5616     1.4118    -0.0148 C.3     
  13 C13            3.7148     2.4173    -0.0204 C.3     
  14 C14            3.6812     3.2699     1.2301 C.2     
  15 C15            5.0429     1.7004     0.0591 C.ar    
  16 C16            5.6495     2.1303     1.2323 C.ar    
  17 O17            2.7864     4.0147     1.5705 O.2     
  18 O18            1.2376     3.3652     0.0083 O.2     
  19 C19            5.6661     0.7899    -0.7644 C.ar    
  20 C20            6.9130     0.2925    -0.4252 C.ar    
  21 C21            7.5274     0.7133     0.7412 C.ar    
  22 C22            6.9047     1.6257     1.5672 C.ar    
  23 N23            4.8286     3.0459     1.8925 N.am    
  24 Br24           7.7735    -0.9587    -1.5521 Br      
  25 O25            3.6554     3.2388    -1.1882 O.3     
  26 H26            0.9484    -0.5245    -0.0098 H       
  27 H27           -1.1222    -1.7944     0.0019 H       
  28 H28           -1.2348     3.1717     0.0375 H       
  29 H29           -3.5901    -1.8427     0.0241 H       
  30 H30           -5.7107    -0.6444     0.0504 H       
  31 H31           -5.7706     1.8119     0.0644 H       
  32 H32           -3.7093     3.1106     0.0538 H       
  33 H33            2.6339     0.7810     0.8711 H       
  34 H34            2.6169     0.7906    -0.9087 H       
  35 H35            5.1832     0.4644    -1.6740 H       
  36 H36            8.5000     0.3254     1.0060 H       
  37 H37            7.3906     1.9493     2.4758 H       
  38 H38            5.0600     3.4719     2.7326 H       
  39 H39            2.8356     3.7447    -1.2719 H       
@<TRIPOS>BOND
   1    1    2 ar
   2    1   11 1
   3    1    6 ar
   4    2    3 ar
   5    2   26 1
   6    3    4 ar
   7    3   27 1
   8    4    5 ar
   9    4    7 ar
  10    5    6 ar
  11    5   10 ar
  12    6   28 1
  13    7    8 ar
  14    7   29 1
  15    8    9 ar
  16    8   30 1
  17    9   10 ar
  18    9   31 1
  19   10   32 1
  20   11   12 1
  21   11   18 2
  22   12   13 1
  23   12   33 1
  24   12   34 1
  25   13   14 1
  26   13   25 1
  27   13   15 1
  28   14   17 2
  29   14   23 am
  30   15   16 ar
  31   15   19 ar
  32   16   23 1
  33   16   22 ar
  34   19   20 ar
  35   19   35 1
  36   20   21 ar
  37   20   24 1
  38   21   22 ar
  39   21   36 1
  40   22   37 1
  41   23   38 1
  42   25   39 1

#	End of record

