#	Name: ASD01200262
#	Creating user name:	WinNT
#	Creation time:	15. 06. 2019 19:08

#	Modifying user name:	WinNT
#	Modification time:	15. 06. 2019 19:08

#	Program:	/corina/corina34_cracker 3.40 0067  02.08.2006

@<TRIPOS>MOLECULE
ASD01200262
  39   41    0    0    0
SMALL
NO_CHARGES


@<TRIPOS>ATOM
   1 C1            -0.1149     1.5962     0.0081 C.ar    
   2 C2            -0.1175     0.2131    -0.0275 C.ar    
   3 C3             1.0795    -0.4795    -0.0673 C.ar    
   4 C4             2.2771     0.2104    -0.0714 C.ar    
   5 C5             2.2790     1.5924    -0.0359 C.ar    
   6 C6             1.0833     2.2851     0.0038 C.ar    
   7 Cl7           -1.6221    -0.6528    -0.0216 Cl      
   8 C8             3.5852     2.3441    -0.0400 C.3     
   9 S9             4.0775     2.6889    -1.7473 S.3     
  10 C10            5.5890     3.5484    -1.4622 C.2     
  11 N11            6.1205     3.8112    -0.2866 N.2     
  12 C12            7.2686     4.4770    -0.4509 C.2     
  13 N13            7.4834     4.6469    -1.7328 N.2     
  14 N14            6.4095     4.0484    -2.4111 N.pl3   
  15 N15            8.1039     4.9207     0.5779 N.am    
  16 C16            9.2399     5.5841     0.2848 C.2     
  17 C17           10.1234     6.0533     1.3729 C.ar    
  18 O18            9.5379     5.7965    -0.8744 O.2     
  19 C19            9.7248     5.9245     2.7043 C.ar    
  20 C20           11.3628     6.6221     1.0737 C.ar    
  21 C21           12.1827     7.0575     2.0939 C.ar    
  22 C22           11.7793     6.9312     3.4116 C.ar    
  23 C23           10.5546     6.3641     3.7152 C.ar    
  24 C24           11.8041     6.7596    -0.3607 C.3     
  25 H25           -1.0490     2.1376     0.0346 H       
  26 H26            1.0781    -1.5592    -0.0947 H       
  27 H27            3.2115    -0.3302    -0.1021 H       
  28 H28            1.0855     3.3647     0.0316 H       
  29 H29            3.4657     3.2831     0.5004 H       
  30 H30            4.3529     1.7411     0.4448 H       
  31 H31            6.2797     4.0071    -3.3715 H       
  32 H32            7.8661     4.7512     1.5029 H       
  33 H33            8.7689     5.4820     2.9427 H       
  34 H34           13.1417     7.4977     1.8638 H       
  35 H35           12.4252     7.2734     4.2067 H       
  36 H36           10.2457     6.2684     4.7457 H       
  37 H37           11.3728     7.6646    -0.7884 H       
  38 H38           12.8916     6.8208    -0.4019 H       
  39 H39           11.4672     5.8927    -0.9291 H       
@<TRIPOS>BOND
   1    1    2 ar
   2    1    6 ar
   3    1   25 1
   4    2    3 ar
   5    2    7 1
   6    3    4 ar
   7    3   26 1
   8    4    5 ar
   9    4   27 1
  10    5    6 ar
  11    5    8 1
  12    6   28 1
  13    8    9 1
  14    8   29 1
  15    8   30 1
  16    9   10 1
  17   10   11 2
  18   10   14 1
  19   11   12 1
  20   12   13 2
  21   12   15 1
  22   13   14 1
  23   14   31 1
  24   15   16 am
  25   15   32 1
  26   16   17 1
  27   16   18 2
  28   17   19 ar
  29   17   20 ar
  30   19   23 ar
  31   19   33 1
  32   20   21 ar
  33   20   24 1
  34   21   22 ar
  35   21   34 1
  36   22   23 ar
  37   22   35 1
  38   23   36 1
  39   24   37 1
  40   24   38 1
  41   24   39 1

#	End of record

