#	Name: ASD02508041
#	Creating user name:	WinNT
#	Creation time:	15. 06. 2019 20:23

#	Modifying user name:	WinNT
#	Modification time:	15. 06. 2019 20:23

#	Program:	/corina/corina34_cracker 3.40 0067  02.08.2006

@<TRIPOS>MOLECULE
ASD02508041
  39   41    0    0    0
SMALL
NO_CHARGES


@<TRIPOS>ATOM
   1 C1             0.0885     1.3714     0.3808 C.ar    
   2 C2             0.1102    -0.0094     0.4997 C.ar    
   3 C3             1.2722     2.0704     0.1454 C.ar    
   4 C4             2.4680     1.3786     0.0315 C.ar    
   5 C5             2.4819     0.0027     0.1516 C.ar    
   6 C6             1.3066    -0.6902     0.3844 C.ar    
   7 N7            -0.9304     2.3217     0.4405 N.am    
   8 C8            -0.3671     3.5318     0.2537 C.2     
   9 O9             0.9553     3.3865     0.0750 O.3     
  10 S10            4.0030    -0.8748     0.0066 S.o2    
  11 N11            3.8849    -1.8427    -1.3319 N.am    
  12 C12            3.8094    -1.2693    -2.6049 C.ar    
  13 C13            4.5879    -1.7699    -3.6403 C.ar    
  14 C14            2.9516    -0.2021    -2.8371 C.ar    
  15 C15            2.8783     0.3624    -4.0955 C.ar    
  16 C16            3.6589    -0.1352    -5.1252 C.ar    
  17 C17            4.5113    -1.2022    -4.8971 C.ar    
  18 O18            4.9994     0.0951    -0.2863 O.2     
  19 O19            4.0721    -1.7460     1.1270 O.2     
  20 C20           -2.3531     2.0537     0.6649 C.3     
  21 O21           -0.9648     4.5907     0.2439 O.2     
  22 C22           -2.6476     2.0861     2.1659 C.3     
  23 C23            1.3324    -2.1914     0.5141 C.3     
  24 F24            3.5850     0.4180    -6.3556 F       
  25 H25           -0.8058    -0.5516     0.6824 H       
  26 H26            3.3875     1.9148    -0.1511 H       
  27 H27            3.8681    -2.8075    -1.2327 H       
  28 H28            5.2529    -2.6021    -3.4628 H       
  29 H29            2.3420     0.1858    -2.0344 H       
  30 H30            2.2114     1.1924    -4.2766 H       
  31 H31            5.1193    -1.5887    -5.7017 H       
  32 H32           -2.9499     2.8139     0.1610 H       
  33 H33           -2.6049     1.0709     0.2663 H       
  34 H34           -2.0508     1.3259     2.6698 H       
  35 H35           -2.3958     3.0689     2.5644 H       
  36 H36           -3.7061     1.8867     2.3328 H       
  37 H37            1.5829    -2.4632     1.5395 H       
  38 H38            0.3522    -2.5949     0.2603 H       
  39 H39            2.0809    -2.6018    -0.1637 H       
@<TRIPOS>BOND
   1    1    2 ar
   2    1    3 ar
   3    1    7 1
   4    2    6 ar
   5    2   25 1
   6    3    4 ar
   7    3    9 1
   8    4    5 ar
   9    4   26 1
  10    5    6 ar
  11    5   10 1
  12    6   23 1
  13    7    8 am
  14    7   20 1
  15    8    9 1
  16    8   21 2
  17   10   11 am
  18   10   18 2
  19   10   19 2
  20   11   12 1
  21   11   27 1
  22   12   13 ar
  23   12   14 ar
  24   13   17 ar
  25   13   28 1
  26   14   15 ar
  27   14   29 1
  28   15   16 ar
  29   15   30 1
  30   16   17 ar
  31   16   24 1
  32   17   31 1
  33   20   22 1
  34   20   32 1
  35   20   33 1
  36   22   34 1
  37   22   35 1
  38   22   36 1
  39   23   37 1
  40   23   38 1
  41   23   39 1

#	End of record

