#	Name: ASD01350061
#	Creating user name:	WinNT
#	Creation time:	15. 06. 2019 19:16

#	Modifying user name:	WinNT
#	Modification time:	15. 06. 2019 19:16

#	Program:	/corina/corina34_cracker 3.40 0067  02.08.2006

@<TRIPOS>MOLECULE
ASD01350061
  23   24    0    0    0
SMALL
NO_CHARGES


@<TRIPOS>ATOM
   1 Cl1            0.0021    -0.0041     0.0020 Cl      
   2 C2            -0.0215     1.7317     0.0116 C.ar    
   3 C3             1.1693     2.4379     0.0040 C.ar    
   4 C4             1.1559     3.8177     0.0115 C.ar    
   5 C5            -0.0590     4.5004     0.0268 C.ar    
   6 C6            -1.2550     3.7849     0.0344 C.ar    
   7 C7            -1.2310     2.4052     0.0210 C.ar    
   8 C8            -0.0791     5.9835     0.0354 C.ar    
   9 C9             0.6940     6.6880     0.9548 C.ar    
  10 C10            0.6722     8.0692     0.9585 C.ar    
  11 Br11           1.7223     9.0250     2.2072 Br      
  12 C12           -0.1156     8.7558     0.0507 C.ar    
  13 C13           -0.8865     8.0655    -0.8657 C.ar    
  14 C14           -0.8700     6.6804    -0.8833 C.ar    
  15 O15           -1.6275     6.0012    -1.7837 O.3     
  16 H16            2.1103     1.9079    -0.0075 H       
  17 H17            2.0854     4.3677     0.0060 H       
  18 H18           -2.1990     4.3093     0.0465 H       
  19 H19           -2.1572     1.8498     0.0265 H       
  20 H20            1.3097     6.1552     1.6643 H       
  21 H21           -0.1282     9.8357     0.0588 H       
  22 H22           -1.4992     8.6067    -1.5715 H       
  23 H23           -1.1766     5.8199    -2.6197 H       
@<TRIPOS>BOND
   1    1    2 1
   2    2    3 ar
   3    2    7 ar
   4    3    4 ar
   5    3   16 1
   6    4    5 ar
   7    4   17 1
   8    5    6 ar
   9    5    8 1
  10    6    7 ar
  11    6   18 1
  12    7   19 1
  13    8    9 ar
  14    8   14 ar
  15    9   10 ar
  16    9   20 1
  17   10   11 1
  18   10   12 ar
  19   12   13 ar
  20   12   21 1
  21   13   14 ar
  22   13   22 1
  23   14   15 1
  24   15   23 1

#	End of record

