#	Name: ASD03200018
#	Creating user name:	WinNT
#	Creation time:	15. 06. 2019 20:34

#	Modifying user name:	WinNT
#	Modification time:	15. 06. 2019 20:34

#	Program:	/corina/corina34_cracker 3.40 0067  02.08.2006

@<TRIPOS>MOLECULE
ASD03200018
  33   35    0    0    0
SMALL
NO_CHARGES


@<TRIPOS>ATOM
   1 Cl1           -0.1842     0.3410    -1.3724 Cl      
   2 C2            -0.1017     1.8805    -0.5745 C.ar    
   3 C3             1.0837     2.5990    -0.5369 C.ar    
   4 C4             1.1116     3.8214     0.1071 C.ar    
   5 N5             0.0298     4.3093     0.6828 N.ar    
   6 C6            -1.1172     3.6597     0.6707 C.ar    
   7 C7            -1.2270     2.4281     0.0395 C.ar    
   8 N8            -2.4464     1.7417     0.0289 N.am    
   9 C9            -3.6036     2.4219     0.1501 C.2     
  10 C10           -4.8826     1.7152     0.0486 C.2     
  11 O11           -3.5859     3.6237     0.3440 O.2     
  12 C12           -6.0980     2.3528     0.1636 C.2     
  13 S13           -7.3670     1.1444    -0.0201 S.3     
  14 C14           -6.1530    -0.1114    -0.2351 C.2     
  15 N15           -4.9667     0.4017    -0.1683 N.2     
  16 C16           -6.4454    -1.5417    -0.4634 C.ar    
  17 C17           -7.7687    -1.9874    -0.5226 C.ar    
  18 C18           -8.0341    -3.3268    -0.7364 C.ar    
  19 C19           -6.9940    -4.2255    -0.8910 C.ar    
  20 C20           -5.6817    -3.7922    -0.8336 C.ar    
  21 C21           -5.4001    -2.4550    -0.6267 C.ar    
  22 N22           -6.2886     3.7022     0.3840 N.pl3   
  23 F23           -4.1177    -2.0336    -0.5713 F       
  24 F24           -8.7859    -1.1112    -0.3710 F       
  25 H25            1.9748     2.2076    -1.0051 H       
  26 H26            2.0323     4.3850     0.1397 H       
  27 H27           -1.9812     4.0917     1.1536 H       
  28 H28           -2.4588     0.7764    -0.0657 H       
  29 H29           -9.0561    -3.6727    -0.7825 H       
  30 H30           -7.2077    -5.2711    -1.0570 H       
  31 H31           -4.8750    -4.5000    -0.9548 H       
  32 H32           -5.5235     4.2919     0.4723 H       
  33 H33           -7.1875     4.0605     0.4507 H       
@<TRIPOS>BOND
   1    1    2 1
   2    2    3 ar
   3    2    7 ar
   4    3    4 ar
   5    3   25 1
   6    4    5 ar
   7    4   26 1
   8    5    6 ar
   9    6    7 ar
  10    6   27 1
  11    7    8 1
  12    8    9 am
  13    8   28 1
  14    9   10 1
  15    9   11 2
  16   10   12 2
  17   10   15 1
  18   12   13 1
  19   12   22 1
  20   13   14 1
  21   14   15 2
  22   14   16 1
  23   16   17 ar
  24   16   21 ar
  25   17   18 ar
  26   17   24 1
  27   18   19 ar
  28   18   29 1
  29   19   20 ar
  30   19   30 1
  31   20   21 ar
  32   20   31 1
  33   21   23 1
  34   22   32 1
  35   22   33 1

#	End of record

