#	Name: ASD08510005
#	Creating user name:	WinNT
#	Creation time:	15. 06. 2019 21:19

#	Modifying user name:	WinNT
#	Modification time:	15. 06. 2019 21:19

#	Program:	/corina/corina34_cracker 3.40 0067  02.08.2006

@<TRIPOS>MOLECULE
ASD08510005
  33   35    0    0    0
SMALL
NO_CHARGES


@<TRIPOS>ATOM
   1 O1             0.0928     1.1707     0.0789 O.3     
   2 C2             0.4053    -0.2351     0.1877 C.3     
   3 C3             1.6182    -0.2970     1.1424 C.3     
   4 C4             2.2677     1.0991     1.0153 C.3     
   5 C5             1.3704     1.8394    -0.0011 C.3     
   6 N6             1.9245     1.7205    -1.3521 N.pl3   
   7 C7             1.5143     0.8109    -2.2932 C.2     
   8 C8             2.2259     0.9712    -3.4213 C.2     
   9 C9             3.1613     2.0681    -3.1787 C.ar    
  10 C10            2.9227     2.5041    -1.8621 C.ar    
  11 N11            4.8301     3.7077    -3.3643 N.ar    
  12 C12            4.5668     4.0918    -2.1282 C.ar    
  13 N13            3.6489     3.5135    -1.3843 N.ar    
  14 C14            4.1538     2.7131    -3.9318 C.ar    
  15 N15            4.4225     2.3241    -5.2318 N.pl3   
  16 O16            1.1873    -0.5284     2.4851 O.3     
  17 O17            2.2578     1.7726     2.2756 O.3     
  18 C18           -0.7795    -0.9997     0.7816 C.3     
  19 O19           -1.8755    -0.9663    -0.1348 O.3     
  20 I20            2.0327    -0.1379    -5.1881 I       
  21 H21            0.6696    -0.6417    -0.7884 H       
  22 H22            2.3150    -1.0727     0.8248 H       
  23 H23            3.2856     1.0137     0.6349 H       
  24 H24            1.2677     2.8884     0.2768 H       
  25 H25            0.7361     0.0760    -2.1489 H       
  26 H26            5.1401     4.9035    -1.7051 H       
  27 H27            3.9219     1.5969    -5.6337 H       
  28 H28            5.1114     2.7785    -5.7415 H       
  29 H29            0.7189    -1.3653     2.6091 H       
  30 H30            2.7569     1.3185     2.9682 H       
  31 H31           -0.4896    -2.0345     0.9637 H       
  32 H32           -1.0775    -0.5350     1.7215 H       
  33 H33           -2.6631    -1.4326     0.1769 H       
@<TRIPOS>BOND
   1    1    2 1
   2    1    5 1
   3    2    3 1
   4    2   18 1
   5    2   21 1
   6    3    4 1
   7    3   16 1
   8    3   22 1
   9    4    5 1
  10    4   17 1
  11    4   23 1
  12    5    6 1
  13    5   24 1
  14    6    7 1
  15    6   10 1
  16    7    8 2
  17    7   25 1
  18    8    9 1
  19    8   20 1
  20    9   14 ar
  21    9   10 ar
  22   10   13 ar
  23   11   12 ar
  24   11   14 ar
  25   12   13 ar
  26   12   26 1
  27   14   15 1
  28   15   27 1
  29   15   28 1
  30   16   29 1
  31   17   30 1
  32   18   19 1
  33   18   31 1
  34   18   32 1
  35   19   33 1

#	End of record

