#	Name: ASD01916740
#	Creating user name:	WinNT
#	Creation time:	15. 06. 2019 20:07

#	Modifying user name:	WinNT
#	Modification time:	15. 06. 2019 20:07

#	Program:	/corina/corina34_cracker 3.40 0067  02.08.2006

@<TRIPOS>MOLECULE
ASD01916740
  46   49    0    0    0
SMALL
NO_CHARGES


@<TRIPOS>ATOM
   1 C1            -0.0164     1.4059     0.0426 C.ar    
   2 C2             0.0021    -0.0065     0.0350 C.ar    
   3 C3            -1.1906    -0.7261     0.0649 C.ar    
   4 C4            -2.3843    -0.0625     0.0884 C.ar    
   5 C5            -2.4207     1.3373     0.0833 C.ar    
   6 C6            -1.2424     2.0735     0.0607 C.ar    
   7 N7             1.1601     2.0707     0.0429 N.2     
   8 C8             2.3208     1.4640     0.0094 C.2     
   9 N9             2.4232     0.1161    -0.1069 N.am    
  10 C10            1.3132    -0.6669    -0.0197 C.2     
  11 C11           -3.7244     2.0381     0.1020 C.2     
  12 O12            1.4043    -1.8801     0.0126 O.2     
  13 N13           -4.8704     1.3292     0.1239 N.am    
  14 C14            3.5351     2.3425     0.1588 C.3     
  15 C15            4.7956     1.6907    -0.3651 C.3     
  16 C16            4.8986     0.2347     0.0407 C.3     
  17 C17            3.6851    -0.5647    -0.3764 C.3     
  18 C18            6.1418    -0.3749    -0.6105 C.3     
  19 C19            5.0477     0.1529     1.5612 C.3     
  20 C20           -6.0938     1.9854     0.2550 C.ar    
  21 C21           -7.2343     1.5076    -0.3891 C.ar    
  22 C22           -8.4256     2.1854    -0.2335 C.ar    
  23 N23           -8.4933     3.2719     0.5126 N.ar    
  24 C24           -7.4366     3.7553     1.1381 C.ar    
  25 C25           -6.2096     3.1328     1.0384 C.ar    
  26 O26           -3.7613     3.2528     0.0976 O.2     
  27 H27           -1.1713    -1.8059     0.0692 H       
  28 H28           -3.3077    -0.6221     0.1109 H       
  29 H29           -1.2748     3.1530     0.0572 H       
  30 H30           -4.8441     0.3624     0.0485 H       
  31 H31            3.3667     3.2714    -0.3861 H       
  32 H32            3.6725     2.5763     1.2146 H       
  33 H33            4.8016     1.7559    -1.4531 H       
  34 H34            5.6600     2.2284     0.0245 H       
  35 H35            3.6912    -1.5143     0.1587 H       
  36 H36            3.7511    -0.7683    -1.4452 H       
  37 H37            7.0283     0.1642    -0.2763 H       
  38 H38            6.2247    -1.4233    -0.3243 H       
  39 H39            6.0580    -0.2997    -1.6946 H       
  40 H40            4.1782     0.6071     2.0364 H       
  41 H41            5.1226    -0.8917     1.8633 H       
  42 H42            5.9484     0.6851     1.8671 H       
  43 H43           -7.1856     0.6195    -1.0017 H       
  44 H44           -9.3141     1.8226    -0.7288 H       
  45 H45           -7.5346     4.6473     1.7392 H       
  46 H46           -5.3488     3.5337     1.5529 H       
@<TRIPOS>BOND
   1    1    2 ar
   2    1    7 1
   3    1    6 ar
   4    2    3 ar
   5    2   10 1
   6    3    4 ar
   7    3   27 1
   8    4    5 ar
   9    4   28 1
  10    5    6 ar
  11    5   11 1
  12    6   29 1
  13    7    8 2
  14    8    9 1
  15    8   14 1
  16    9   10 am
  17    9   17 1
  18   10   12 2
  19   11   13 am
  20   11   26 2
  21   13   20 1
  22   13   30 1
  23   14   15 1
  24   14   31 1
  25   14   32 1
  26   15   16 1
  27   15   33 1
  28   15   34 1
  29   16   17 1
  30   16   18 1
  31   16   19 1
  32   17   35 1
  33   17   36 1
  34   18   37 1
  35   18   38 1
  36   18   39 1
  37   19   40 1
  38   19   41 1
  39   19   42 1
  40   20   21 ar
  41   20   25 ar
  42   21   22 ar
  43   21   43 1
  44   22   23 ar
  45   22   44 1
  46   23   24 ar
  47   24   25 ar
  48   24   45 1
  49   25   46 1

#	End of record

