#	Name: ASD03331433
#	Creating user name:	WinNT
#	Creation time:	15. 06. 2019 20:39

#	Modifying user name:	WinNT
#	Modification time:	15. 06. 2019 20:39

#	Program:	/corina/corina34_cracker 3.40 0067  02.08.2006

@<TRIPOS>MOLECULE
ASD03331433
  78   82    0    0    0
SMALL
NO_CHARGES


@<TRIPOS>ATOM
   1 N1            -0.5849     1.8544    -1.1434 N.am    
   2 C2            -0.3487     0.4249    -1.3869 C.3     
   3 C3            -0.7947     0.0874    -2.8131 C.3     
   4 C4            -0.0853     1.0186    -3.7989 C.3     
   5 C5            -0.4726     2.4691    -3.5022 C.3     
   6 C6            -0.0230     2.8335    -2.0838 C.3     
   7 C7             1.4064     0.8580    -3.6565 C.2     
   8 O8             2.1049     1.8299    -3.4607 O.2     
   9 N9             1.9641    -0.3656    -3.7466 N.am    
  10 C10           -1.3078     2.2597    -0.0806 C.2     
  11 O11           -1.8519     1.4391     0.6335 O.2     
  12 N12           -2.2968     5.6696     0.7395 N.pl3   
  13 C13           -2.6008     4.3633     0.5421 C.2     
  14 C14           -1.4392     3.6965     0.2162 C.2     
  15 C15           -0.3937     4.6562     0.2206 C.2     
  16 C16           -0.9479     5.8525     0.5438 C.2     
  17 C17           -3.9710     3.7470     0.6587 C.3     
  18 C18           -4.6737     3.8052    -0.6992 C.3     
  19 C19           -6.0648     3.1795    -0.5808 C.3     
  20 N20           -6.7376     3.2352    -1.8810 N.am    
  21 S21           -8.0872     2.3155    -2.1550 S.o2    
  22 O22           -8.4402     2.6036    -3.5010 O.2     
  23 O23           -7.7036     1.0047    -1.7628 O.2     
  24 C24           -9.3294     2.9834    -1.0142 C.3     
  25 C25           -0.2233     7.1359     0.6654 C.ar    
  26 C26            0.9385     7.2149     1.4367 C.ar    
  27 C27            1.6104     8.4158     1.5457 C.ar    
  28 C28            1.1344     9.5400     0.8922 C.ar    
  29 C29           -0.0169     9.4673     0.1268 C.ar    
  30 C30           -0.6942     8.2713     0.0054 C.ar    
  31 Cl31           1.9846    11.0469     1.0338 Cl      
  32 Cl32           1.5357     5.8062     2.2569 Cl      
  33 C33           -3.2119     6.6742     1.0823 C.ar    
  34 C34           -3.1578     7.2652     2.3376 C.ar    
  35 C35           -4.0603     8.2552     2.6729 C.ar    
  36 C36           -5.0181     8.6584     1.7590 C.ar    
  37 C37           -5.0743     8.0707     0.5074 C.ar    
  38 C38           -4.1704     7.0842     0.1653 C.ar    
  39 Cl39          -6.1512     9.9033     2.1835 Cl      
  40 C40           -0.4957     0.6671    -5.2057 C.ar    
  41 C41           -0.0511     1.4332    -6.2670 C.ar    
  42 C42           -0.4272     1.1113    -7.5575 C.ar    
  43 C43           -1.2488     0.0221    -7.7869 C.ar    
  44 C44           -1.6935    -0.7443    -6.7243 C.ar    
  45 C45           -1.3121    -0.4248    -5.4348 C.ar    
  46 Cl46          -1.7221    -0.3825    -9.4074 Cl      
  47 H47            0.7130     0.2056    -1.2745 H       
  48 H48           -0.9236    -0.1670    -0.6746 H       
  49 H49           -0.5368    -0.9471    -3.0398 H       
  50 H50           -1.8731     0.2210    -2.8982 H       
  51 H51            0.0146     3.1297    -4.2193 H       
  52 H52           -1.5541     2.5802    -3.5808 H       
  53 H53           -0.3829     3.8309    -1.8313 H       
  54 H54            1.0654     2.8106    -2.0283 H       
  55 H55            1.4158    -1.1331    -3.9730 H       
  56 H56            2.9138    -0.4788    -3.5851 H       
  57 H57            0.6483     4.4696     0.0066 H       
  58 H58           -3.8765     2.7081     0.9746 H       
  59 H59           -4.5561     4.2987     1.3945 H       
  60 H60           -4.7682     4.8441    -1.0151 H       
  61 H61           -4.0886     3.2535    -1.4350 H       
  62 H62           -5.9703     2.1405    -0.2649 H       
  63 H63           -6.6499     3.7312     0.1550 H       
  64 H64           -6.3926     3.8108    -2.5814 H       
  65 H65           -9.5015     4.0358    -1.2400 H       
  66 H66          -10.2617     2.4303    -1.1279 H       
  67 H67           -8.9714     2.8854     0.0106 H       
  68 H68            2.5087     8.4788     2.1420 H       
  69 H69           -0.3833    10.3477    -0.3802 H       
  70 H70           -1.5895     8.2152    -0.5960 H       
  71 H71           -2.4107     6.9506     3.0513 H       
  72 H72           -4.0189     8.7150     3.6493 H       
  73 H73           -5.8229     8.3868    -0.2040 H       
  74 H74           -4.2116     6.6291    -0.8133 H       
  75 H75            0.5900     2.2836    -6.0877 H       
  76 H76           -0.0800     1.7101    -8.3865 H       
  77 H77           -2.3349    -1.5947    -6.9029 H       
  78 H78           -1.6556    -1.0255    -4.6057 H       
@<TRIPOS>BOND
   1    1    2 1
   2    1    6 1
   3    1   10 am
   4    2    3 1
   5    2   47 1
   6    2   48 1
   7    3    4 1
   8    3   49 1
   9    3   50 1
  10    4    5 1
  11    4    7 1
  12    4   40 1
  13    5    6 1
  14    5   51 1
  15    5   52 1
  16    6   53 1
  17    6   54 1
  18    7    8 2
  19    7    9 am
  20    9   55 1
  21    9   56 1
  22   10   11 2
  23   10   14 1
  24   12   13 1
  25   12   16 1
  26   12   33 1
  27   13   14 2
  28   13   17 1
  29   14   15 1
  30   15   16 2
  31   15   57 1
  32   16   25 1
  33   17   18 1
  34   17   58 1
  35   17   59 1
  36   18   19 1
  37   18   60 1
  38   18   61 1
  39   19   20 1
  40   19   62 1
  41   19   63 1
  42   20   21 am
  43   20   64 1
  44   21   22 2
  45   21   23 2
  46   21   24 1
  47   24   65 1
  48   24   66 1
  49   24   67 1
  50   25   26 ar
  51   25   30 ar
  52   26   27 ar
  53   26   32 1
  54   27   28 ar
  55   27   68 1
  56   28   29 ar
  57   28   31 1
  58   29   30 ar
  59   29   69 1
  60   30   70 1
  61   33   34 ar
  62   33   38 ar
  63   34   35 ar
  64   34   71 1
  65   35   36 ar
  66   35   72 1
  67   36   37 ar
  68   36   39 1
  69   37   38 ar
  70   37   73 1
  71   38   74 1
  72   40   41 ar
  73   40   45 ar
  74   41   42 ar
  75   41   75 1
  76   42   43 ar
  77   42   76 1
  78   43   44 ar
  79   43   46 1
  80   44   45 ar
  81   44   77 1
  82   45   78 1

#	End of record

