#	Name: ASD03330570
#	Creating user name:	WinNT
#	Creation time:	15. 06. 2019 20:37

#	Modifying user name:	WinNT
#	Modification time:	15. 06. 2019 20:37

#	Program:	/corina/corina34_cracker 3.40 0067  02.08.2006

@<TRIPOS>MOLECULE
ASD03330570
  60   62    0    0    0
SMALL
NO_CHARGES


@<TRIPOS>ATOM
   1 C1            -0.5218     1.8016    -0.6106 C.2     
   2 N2            -0.6461     0.4692    -0.8507 N.pl3   
   3 C3             0.8107     2.0708    -0.5279 C.2     
   4 N4             1.4784     0.9145    -0.7337 N.2     
   5 C5             0.6123    -0.0510    -0.9341 C.2     
   6 C6             0.9449    -1.4666    -1.2042 C.ar    
   7 C7             1.4158     3.3878    -0.2619 C.2     
   8 O8             0.7055     4.3604    -0.0926 O.2     
   9 C9             3.3581     4.8239     0.0582 C.3     
  10 N10            2.7564     3.5145    -0.2062 N.am    
  11 C11            3.4198     5.0612     1.5684 C.3     
  12 C12            4.2242     3.9395     2.2284 C.3     
  13 C13            4.0960     6.4052     1.8463 C.3     
  14 C14            2.0010     5.0761     2.1407 C.3     
  15 C15            4.7519     4.8609    -0.5135 C.2     
  16 N16            5.3519     6.0443    -0.7504 N.am    
  17 O17            5.3338     3.8258    -0.7605 O.2     
  18 C18            6.6657     6.0829    -1.3974 C.3     
  19 C19           -1.9128    -0.2567    -0.9783 C.3     
  20 C20           -2.8451     0.5202    -1.9131 C.3     
  21 C21           -3.6432     1.5436    -1.1118 C.3     
  22 N22           -2.8528     2.0744     0.0006 N.3     
  23 C23           -1.6582     2.7826    -0.4827 C.3     
  24 C24           -3.6690     2.9436     0.8587 C.3     
  25 C25            1.8979    -1.7908    -2.1729 C.ar    
  26 C26            2.2042    -3.1160    -2.4206 C.ar    
  27 C27            1.5697    -4.1192    -1.7121 C.ar    
  28 C28            0.6233    -3.8042    -0.7498 C.ar    
  29 C29            0.3124    -2.4837    -0.4886 C.ar    
  30 F30            2.5184    -0.8114    -2.8665 F       
  31 F31            0.0077    -4.7904    -0.0616 F       
  32 H32            2.7536     5.6022    -0.4075 H       
  33 H33            3.3230     2.7388    -0.3412 H       
  34 H34            5.2350     3.9288     1.8207 H       
  35 H35            4.2682     4.1085     3.3044 H       
  36 H36            3.7425     2.9819     2.0305 H       
  37 H37            3.5072     7.2071     1.4010 H       
  38 H38            4.1664     6.5608     2.9228 H       
  39 H39            5.0962     6.4052     1.4130 H       
  40 H40            1.5192     4.1186     1.9428 H       
  41 H41            2.0449     5.2451     3.2167 H       
  42 H42            1.4279     5.8752     1.6705 H       
  43 H43            4.9138     6.8704    -0.4924 H       
  44 H44            6.9877     7.1188    -1.5044 H       
  45 H45            7.3872     5.5393    -0.7875 H       
  46 H46            6.5997     5.6195    -2.3818 H       
  47 H47           -1.7248    -1.2474    -1.3921 H       
  48 H48           -2.3780    -0.3528     0.0028 H       
  49 H49           -2.2530     1.0345    -2.6701 H       
  50 H50           -3.5306    -0.1735    -2.3999 H       
  51 H51           -3.9334     2.3642    -1.7679 H       
  52 H52           -4.5411     1.0676    -0.7175 H       
  53 H53           -1.3865     3.5647     0.2262 H       
  54 H54           -1.8669     3.2274    -1.4556 H       
  55 H55           -4.5042     2.3728     1.2645 H       
  56 H56           -3.0575     3.3242     1.6768 H       
  57 H57           -4.0509     3.7788     0.2715 H       
  58 H58            2.9404    -3.3680    -3.1695 H       
  59 H59            1.8122    -5.1530    -1.9096 H       
  60 H60           -0.4250    -2.2396     0.2617 H       
@<TRIPOS>BOND
   1    1    2 1
   2    1    3 2
   3    1   23 1
   4    2   19 1
   5    2    5 1
   6    3    4 1
   7    3    7 1
   8    4    5 2
   9    5    6 1
  10    6   25 ar
  11    6   29 ar
  12    7    8 2
  13    7   10 am
  14    9   10 1
  15    9   11 1
  16    9   15 1
  17    9   32 1
  18   10   33 1
  19   11   12 1
  20   11   13 1
  21   11   14 1
  22   12   34 1
  23   12   35 1
  24   12   36 1
  25   13   37 1
  26   13   38 1
  27   13   39 1
  28   14   40 1
  29   14   41 1
  30   14   42 1
  31   15   16 am
  32   15   17 2
  33   16   18 1
  34   16   43 1
  35   18   44 1
  36   18   45 1
  37   18   46 1
  38   19   20 1
  39   19   47 1
  40   19   48 1
  41   20   21 1
  42   20   49 1
  43   20   50 1
  44   21   22 1
  45   21   51 1
  46   21   52 1
  47   22   23 1
  48   22   24 1
  49   23   53 1
  50   23   54 1
  51   24   55 1
  52   24   56 1
  53   24   57 1
  54   25   26 ar
  55   25   30 1
  56   26   27 ar
  57   26   58 1
  58   27   28 ar
  59   27   59 1
  60   28   29 ar
  61   28   31 1
  62   29   60 1

#	End of record

