#	Name: ASD05313145
#	Creating user name:	WinNT
#	Creation time:	15. 06. 2019 20:58

#	Modifying user name:	WinNT
#	Modification time:	15. 06. 2019 20:58

#	Program:	/corina/corina34_cracker 3.40 0067  02.08.2006

@<TRIPOS>MOLECULE
ASD05313145
  39   42    0    0    0
SMALL
NO_CHARGES


@<TRIPOS>ATOM
   1 C1            -0.0726     0.8206     1.0202 C.2     
   2 C2             0.1130    -0.6164     0.5943 C.3     
   3 N3             0.9311     1.7335     1.0463 N.pl3   
   4 N4             1.4565    -0.7171    -0.0064 N.am    
   5 C5             2.5709    -0.0358     0.6698 C.3     
   6 C6             2.3178     1.4766     0.6614 C.3     
   7 N7            -0.9053     2.6448     1.7022 N.2     
   8 N8            -1.1575     1.4125     1.4214 N.2     
   9 C9             0.3725     2.8952     1.4896 C.2     
  10 C10            1.0629     4.1812     1.6948 C.2     
  11 N11            2.3403     4.4133     1.4796 N.2     
  12 C12            2.6118     5.6887     1.7729 C.2     
  13 C13            1.4727     6.2832     2.1863 C.2     
  14 N14            0.4854     5.3380     2.1350 N.pl3   
  15 C15           -0.9234     5.5292     2.4885 C.3     
  16 C16            1.6573    -1.4140    -1.1424 C.2     
  17 O17            2.7494    -1.4045    -1.6764 O.2     
  18 C18            0.5508    -2.1890    -1.7383 C.ar    
  19 C19            0.3195    -2.1363    -3.1162 C.ar    
  20 C20           -0.7159    -2.8633    -3.6669 C.ar    
  21 C21           -1.5251    -3.6442    -2.8566 C.ar    
  22 C22           -1.2999    -3.6994    -1.4894 C.ar    
  23 C23           -0.2652    -2.9821    -0.9287 C.ar    
  24 F24           -2.5375    -4.3542    -3.4009 F       
  25 Cl25           1.3322    -1.1580    -4.1316 Cl      
  26 H26            0.0429    -1.2734     1.4612 H       
  27 H27           -0.6446    -0.8872    -0.1411 H       
  28 H28            2.6417    -0.3873     1.6991 H       
  29 H29            3.5017    -0.2520     0.1456 H       
  30 H30            2.4970     1.8703    -0.3391 H       
  31 H31            2.9885     1.9621     1.3704 H       
  32 H32            3.5788     6.1631     1.6930 H       
  33 H33            1.3611     7.3121     2.4952 H       
  34 H34           -1.0653     5.3108     3.5469 H       
  35 H35           -1.2113     6.5614     2.2888 H       
  36 H36           -1.5418     4.8578     1.8928 H       
  37 H37           -0.8963    -2.8236    -4.7310 H       
  38 H38           -1.9342    -4.3091    -0.8631 H       
  39 H39           -0.0883    -3.0300     0.1357 H       
@<TRIPOS>BOND
   1    1    2 1
   2    1    3 1
   3    1    8 2
   4    2    4 1
   5    2   26 1
   6    2   27 1
   7    3    6 1
   8    3    9 1
   9    4    5 1
  10    4   16 am
  11    5    6 1
  12    5   28 1
  13    5   29 1
  14    6   30 1
  15    6   31 1
  16    7    8 1
  17    7    9 2
  18    9   10 1
  19   10   11 2
  20   10   14 1
  21   11   12 1
  22   12   13 2
  23   12   32 1
  24   13   14 1
  25   13   33 1
  26   14   15 1
  27   15   34 1
  28   15   35 1
  29   15   36 1
  30   16   17 2
  31   16   18 1
  32   18   19 ar
  33   18   23 ar
  34   19   20 ar
  35   19   25 1
  36   20   21 ar
  37   20   37 1
  38   21   22 ar
  39   21   24 1
  40   22   23 ar
  41   22   38 1
  42   23   39 1

#	End of record

