#	Name: ASD02408042
#	Creating user name:	WinNT
#	Creation time:	15. 06. 2019 20:21

#	Modifying user name:	WinNT
#	Modification time:	15. 06. 2019 20:21

#	Program:	/corina/corina34_cracker 3.40 0067  02.08.2006

@<TRIPOS>MOLECULE
ASD02408042
  34   36    0    0    0
SMALL
NO_CHARGES


@<TRIPOS>ATOM
   1 C1             0.3014     0.9022    -0.0208 C.2     
   2 C2             0.4589    -0.4165    -0.1450 C.2     
   3 C3             1.4642     1.8609    -0.0197 C.3     
   4 C4             1.7536     2.3012    -1.4316 C.2     
   5 N5             2.7636     3.1653    -1.6500 N.am    
   6 N6             1.0206     1.8284    -2.4027 N.2     
   7 C7             1.2321     2.1838    -3.6764 C.2     
   8 C8             2.2664     3.0861    -3.9753 C.2     
   9 C9             3.0509     3.5804    -2.9017 C.2     
  10 N10            0.4467     1.6713    -4.6796 N.pl3   
  11 O11            3.9610     4.3655    -3.1046 O.2     
  12 S12           -1.1128    -1.2048    -0.1029 S.3     
  13 C13           -1.9192     0.3467     0.0866 C.2     
  14 C14           -1.0114     1.3239     0.1011 C.2     
  15 C15           -0.9787     1.3306    -4.5625 C.3     
  16 C16           -1.4290     0.7682    -5.9273 C.3     
  17 C17           -0.0959     0.2960    -6.5655 C.3     
  18 C18            0.8916     1.3776    -6.0541 C.3     
  19 C19            2.5246     3.4908    -5.3244 C.1     
  20 N20            2.7294     3.8119    -6.3947 N.1     
  21 H21            1.4066    -0.9227    -0.2549 H       
  22 H22            1.2172     2.7308     0.5888 H       
  23 H23            2.3428     1.3658     0.3939 H       
  24 H24            3.2881     3.4919    -0.9023 H       
  25 H25           -2.9865     0.4871     0.1732 H       
  26 H26           -1.2797     2.3645     0.2080 H       
  27 H27           -1.1173     0.5771    -3.7871 H       
  28 H28           -1.5548     2.2239    -4.3214 H       
  29 H29           -2.1108    -0.0715    -5.7924 H       
  30 H30           -1.8912     1.5483    -6.5323 H       
  31 H31            0.1816    -0.6939    -6.2031 H       
  32 H32           -0.1576     0.3089    -7.6536 H       
  33 H33            0.8321     2.2703    -6.6766 H       
  34 H34            1.9095     0.9878    -6.0446 H       
@<TRIPOS>BOND
   1    1    2 2
   2    1    3 1
   3    1   14 1
   4    2   12 1
   5    2   21 1
   6    3    4 1
   7    3   22 1
   8    3   23 1
   9    4    5 1
  10    4    6 2
  11    5    9 am
  12    5   24 1
  13    6    7 1
  14    7    8 2
  15    7   10 1
  16    8    9 1
  17    8   19 1
  18    9   11 2
  19   10   15 1
  20   10   18 1
  21   12   13 1
  22   13   14 2
  23   13   25 1
  24   14   26 1
  25   15   16 1
  26   15   27 1
  27   15   28 1
  28   16   17 1
  29   16   29 1
  30   16   30 1
  31   17   18 1
  32   17   31 1
  33   17   32 1
  34   18   33 1
  35   18   34 1
  36   19   20 3

#	End of record

