#	Name: ASD03950055
#	Creating user name:	WinNT
#	Creation time:	15. 06. 2019 20:48

#	Modifying user name:	WinNT
#	Modification time:	15. 06. 2019 20:48

#	Program:	/corina/corina34_cracker 3.40 0067  02.08.2006

@<TRIPOS>MOLECULE
ASD03950055
  53   56    0    0    0
SMALL
NO_CHARGES


@<TRIPOS>ATOM
   1 N1            -0.0169     1.3942     0.0097 N.pl3   
   2 N2             0.0021    -0.0041     0.0020 N.2     
   3 C3             1.2312    -0.4340    -0.0120 C.2     
   4 C4             2.1096     0.7332    -0.0141 C.ar    
   5 C5             3.4975     0.8984    -0.0264 C.ar    
   6 C6             4.0422     2.1746    -0.0248 C.ar    
   7 C7             3.2126     3.2970    -0.0104 C.ar    
   8 C8             1.8310     3.1496     0.0020 C.ar    
   9 C9             1.2672     1.8605    -0.0000 C.ar    
  10 C10            0.9590     4.3395     0.0166 C.2     
  11 O11           -0.2497     4.2074     0.0275 O.2     
  12 N12            1.5022     5.5730     0.0181 N.am    
  13 C13            6.3710     1.3084    -0.0521 C.2     
  14 C14            5.5166     2.3472    -0.0379 C.2     
  15 C15            6.1293     3.5987    -0.0370 C.2     
  16 C16            7.4597     3.5715    -0.0503 C.2     
  17 S17            8.0246     1.9066    -0.0651 S.3     
  18 N18            1.2105    -4.6672    -0.0344 N.am    
  19 C19            1.6134    -4.0361     1.2298 C.3     
  20 C20            1.1379    -2.5799     1.2275 C.3     
  21 C21            1.6687    -1.8761    -0.0235 C.3     
  22 C22            1.1162    -2.5666    -1.2725 C.3     
  23 C23            1.5915    -4.0227    -1.2986 C.3     
  24 S24            0.3492    -6.0816    -0.0344 S.o2    
  25 O25            0.6705    -6.6875    -1.2790 O.2     
  26 O26            0.6971    -6.7038     1.1948 O.2     
  27 C27           -1.3865    -5.5546    -0.0123 C.3     
  28 C28           -2.2935    -6.7867    -0.0106 C.3     
  29 C29           -3.7574    -6.3423     0.0081 C.3     
  30 Cl30          -4.8264    -7.7943     0.0100 Cl      
  31 H31           -0.8150     1.9455     0.0166 H       
  32 H32            4.1449     0.0341    -0.0369 H       
  33 H33            3.6471     4.2858    -0.0086 H       
  34 H34            2.4664     5.6783     0.0094 H       
  35 H35            0.9289     6.3553     0.0277 H       
  36 H36            6.0853     0.2668    -0.0510 H       
  37 H37            5.5671     4.5207    -0.0267 H       
  38 H38            8.0978     4.4428    -0.0525 H       
  39 H39            1.1579    -4.5679     2.0651 H       
  40 H40            2.6990    -4.0659     1.3233 H       
  41 H41            0.0482    -2.5530     1.2253 H       
  42 H42            1.5130    -2.0733     2.1168 H       
  43 H43            2.7575    -1.9251    -0.0333 H       
  44 H44            0.0267    -2.5398    -1.2511 H       
  45 H45            1.4759    -2.0505    -2.1627 H       
  46 H46            2.6752    -4.0513    -1.4112 H       
  47 H47            1.1215    -4.5456    -2.1315 H       
  48 H48           -1.5752    -4.9633     0.8837 H       
  49 H49           -1.5944    -4.9515    -0.8961 H       
  50 H50           -2.1048    -7.3781    -0.9066 H       
  51 H51           -2.0856    -7.3898     0.8732 H       
  52 H52           -3.9462    -5.7510     0.9040 H       
  53 H53           -3.9654    -5.7392    -0.8758 H       
@<TRIPOS>BOND
   1    1    2 1
   2    1    9 1
   3    1   31 1
   4    2    3 2
   5    3    4 1
   6    3   21 1
   7    4    5 ar
   8    4    9 ar
   9    5    6 ar
  10    5   32 1
  11    6    7 ar
  12    6   14 1
  13    7    8 ar
  14    7   33 1
  15    8    9 ar
  16    8   10 1
  17   10   11 2
  18   10   12 am
  19   12   34 1
  20   12   35 1
  21   13   14 2
  22   13   17 1
  23   13   36 1
  24   14   15 1
  25   15   16 2
  26   15   37 1
  27   16   17 1
  28   16   38 1
  29   18   19 1
  30   18   23 1
  31   18   24 am
  32   19   20 1
  33   19   39 1
  34   19   40 1
  35   20   21 1
  36   20   41 1
  37   20   42 1
  38   21   22 1
  39   21   43 1
  40   22   23 1
  41   22   44 1
  42   22   45 1
  43   23   46 1
  44   23   47 1
  45   24   25 2
  46   24   26 2
  47   24   27 1
  48   27   28 1
  49   27   48 1
  50   27   49 1
  51   28   29 1
  52   28   50 1
  53   28   51 1
  54   29   30 1
  55   29   52 1
  56   29   53 1

#	End of record

