#	Name: ASD07930451
#	Creating user name:	WinNT
#	Creation time:	15. 06. 2019 21:12

#	Modifying user name:	WinNT
#	Modification time:	15. 06. 2019 21:12

#	Program:	/corina/corina34_cracker 3.40 0067  02.08.2006

@<TRIPOS>MOLECULE
ASD07930451
  48   50    0    0    0
SMALL
NO_CHARGES


@<TRIPOS>ATOM
   1 C1             0.0467     1.1721     0.2580 C.ar    
   2 N2             8.2985    -1.8176     0.7466 N.2     
   3 N3             7.1069     0.0133    -0.0837 N.pl3   
   4 C4             7.3472     1.4601    -0.0793 C.3     
   5 C5             8.1279     1.8472    -1.3429 C.3     
   6 S6             9.6603     0.8655    -1.3908 S.o2    
   7 N7             9.1095    -0.6869    -1.1394 N.am    
   8 C8             8.1737    -0.8608    -0.1296 C.2     
   9 C9             8.1605     1.8392     1.1599 C.3     
  10 C10            6.0285     2.1892    -0.0594 C.ar    
  11 C11            4.8469     1.4805    -0.1500 C.ar    
  12 C12            3.6317     2.1529    -0.1311 C.ar    
  13 C13            3.6080     3.5369    -0.0211 C.ar    
  14 C14            4.7923     4.2419     0.0692 C.ar    
  15 C15            6.0024     3.5692     0.0555 C.ar    
  16 N16            2.4330     1.4367    -0.2232 N.am    
  17 C17            1.3427     1.8585     0.4473 C.2     
  18 O18            1.4246     2.8034     1.2078 O.2     
  19 O19           10.2045     0.8436    -2.7033 O.2     
  20 O20           10.4732     1.1440    -0.2590 O.2     
  21 F21            7.1596     4.2606     0.1445 F       
  22 N22           -0.0437     0.1368    -0.5751 N.ar    
  23 C23           -1.1970    -0.4736    -0.7426 C.ar    
  24 C24           -2.3263    -0.0368    -0.0482 C.ar    
  25 N25           -2.2384     0.9940     0.7814 N.ar    
  26 C26           -1.0805     1.6044     0.9559 C.ar    
  27 O27           -3.5134    -0.6663    -0.2221 O.3     
  28 C28           -4.6276    -0.1666     0.5201 C.3     
  29 H29           -4.8059     0.8745     0.2510 H       
  30 H30           -5.5132    -0.7585     0.2888 H       
  31 H31           -4.4136    -0.2346     1.5867 H       
  32 C32            9.5891    -1.8126    -1.9451 C.3     
  33 H33           10.4664    -2.2516    -1.4701 H       
  34 H34            8.8037    -2.5644    -2.0229 H       
  35 H35            9.8540    -1.4594    -2.9416 H       
  36 H36            9.0550    -2.4228     0.6995 H       
  37 H37            6.1998    -0.3287    -0.0503 H       
  38 H38            7.5265     1.6330    -2.2264 H       
  39 H39            8.3725     2.9090    -1.3129 H       
  40 H40            9.1148     1.3128     1.1433 H       
  41 H41            8.3387     2.9145     1.1626 H       
  42 H42            7.6074     1.5604     2.0568 H       
  43 H43            4.8675     0.4041    -0.2359 H       
  44 H44            2.6642     4.0617    -0.0066 H       
  45 H45            4.7743     5.3184     0.1544 H       
  46 H46            2.3869     0.6366    -0.7697 H       
  47 H47           -1.2702    -1.3131    -1.4182 H       
  48 H48           -1.0087     2.4440     1.6315 H       
@<TRIPOS>BOND
   1    1   22 ar
   2    1   17 1
   3    1   26 ar
   4    2    8 2
   5    2   36 1
   6    3    4 1
   7    3    8 1
   8    3   37 1
   9    4    5 1
  10    4    9 1
  11    4   10 1
  12    5    6 1
  13    5   38 1
  14    5   39 1
  15    6    7 am
  16    6   19 2
  17    6   20 2
  18    7    8 1
  19    7   32 1
  20    9   40 1
  21    9   41 1
  22    9   42 1
  23   10   11 ar
  24   10   15 ar
  25   11   12 ar
  26   11   43 1
  27   12   13 ar
  28   12   16 1
  29   13   14 ar
  30   13   44 1
  31   14   15 ar
  32   14   45 1
  33   15   21 1
  34   16   17 am
  35   16   46 1
  36   17   18 2
  37   22   23 ar
  38   23   24 ar
  39   23   47 1
  40   24   25 ar
  41   24   27 1
  42   25   26 ar
  43   26   48 1
  44   27   28 1
  45   28   29 1
  46   28   30 1
  47   28   31 1
  48   32   33 1
  49   32   34 1
  50   32   35 1

#	End of record

