#	Name: ASD07932083
#	Creating user name:	WinNT
#	Creation time:	15. 06. 2019 21:14

#	Modifying user name:	WinNT
#	Modification time:	15. 06. 2019 21:14

#	Program:	/corina/corina34_cracker 3.40 0067  02.08.2006

@<TRIPOS>MOLECULE
ASD07932083
  51   53    0    0    0
SMALL
NO_CHARGES


@<TRIPOS>ATOM
   1 N1            -0.0142     1.4462     0.0288 N.pl3   
   2 C2             0.0009    -0.0204     0.0211 C.3     
   3 C3             0.7670    -0.5250     1.2518 C.3     
   4 S4             2.4325     0.2099     1.2287 S.o2    
   5 N5             2.1159     1.8289     0.9938 N.am    
   6 C6             1.1750     2.1461     0.0245 C.2     
   7 C7             2.7974     2.8662     1.7722 C.3     
   8 N8             1.4069     3.0741    -0.8610 N.2     
   9 O9             3.0300     0.1456     2.5163 O.2     
  10 O10            3.1432    -0.1880     0.0643 O.2     
  11 C11           -1.4136    -0.5385     0.0616 C.ar    
  12 C12            0.6919    -0.5176    -1.2502 C.3     
  13 C13           -2.4675     0.3430     0.1997 C.ar    
  14 C14           -3.7711    -0.1351     0.2370 C.ar    
  15 C15           -4.0115    -1.4988     0.1353 C.ar    
  16 C16           -2.9543    -2.3771    -0.0027 C.ar    
  17 C17           -1.6560    -1.8979    -0.0453 C.ar    
  18 N18           -4.8406     0.7565     0.3773 N.am    
  19 C19           -6.0109     0.5079    -0.2432 C.2     
  20 O20           -6.1081    -0.4371    -1.0017 O.2     
  21 C21           -7.1768     1.3847    -0.0014 C.ar    
  22 N22           -7.0710     2.4203     0.8295 N.ar    
  23 F23           -0.6234    -2.7586    -0.1803 F       
  24 C24           -8.1088     3.1999     1.0441 C.ar    
  25 C25           -9.3211     2.9422     0.4019 C.ar    
  26 N26           -9.4285     1.9114    -0.4254 N.ar    
  27 C27           -8.3864     1.1314    -0.6475 C.ar    
  28 C28            4.0104     3.3756     0.9912 C.3     
  29 O29          -10.3890     3.7458     0.6243 O.3     
  30 C30          -11.5981     3.4238    -0.0659 C.3     
  31 H31           -0.8587     1.9233     0.0329 H       
  32 H32            0.2446    -0.2227     2.1593 H       
  33 H33            0.8444    -1.6117     1.2164 H       
  34 H34            2.1106     3.6924     1.9562 H       
  35 H35            3.1269     2.4488     2.7237 H       
  36 H36            0.7377     3.2828    -1.5315 H       
  37 H37            1.7155    -0.1438    -1.2772 H       
  38 H38            0.7028    -1.6075    -1.2553 H       
  39 H39            0.1497    -0.1556    -2.1237 H       
  40 H40           -2.2783     1.4033     0.2790 H       
  41 H41           -5.0243    -1.8726     0.1644 H       
  42 H42           -3.1409    -3.4379    -0.0815 H       
  43 H43           -4.7397     1.5533     0.9211 H       
  44 H44           -8.0228     4.0395     1.7179 H       
  45 H45           -8.4737     0.2918    -1.3212 H       
  46 H46            4.6972     2.5494     0.8072 H       
  47 H47            3.6809     3.7930     0.0398 H       
  48 H48            4.5174     4.1474     1.5704 H       
  49 H49          -11.4233     3.4599    -1.1412 H       
  50 H50          -11.9217     2.4219     0.2161 H       
  51 H51          -12.3716     4.1439     0.2009 H       
@<TRIPOS>BOND
   1    1    2 1
   2    1    6 1
   3    1   31 1
   4    2    3 1
   5    2   11 1
   6    2   12 1
   7    3    4 1
   8    3   32 1
   9    3   33 1
  10    4    5 am
  11    4    9 2
  12    4   10 2
  13    5    6 1
  14    5    7 1
  15    6    8 2
  16    7   28 1
  17    7   34 1
  18    7   35 1
  19    8   36 1
  20   11   13 ar
  21   11   17 ar
  22   12   37 1
  23   12   38 1
  24   12   39 1
  25   13   14 ar
  26   13   40 1
  27   14   15 ar
  28   14   18 1
  29   15   16 ar
  30   15   41 1
  31   16   17 ar
  32   16   42 1
  33   17   23 1
  34   18   19 am
  35   18   43 1
  36   19   20 2
  37   19   21 1
  38   21   22 ar
  39   21   27 ar
  40   22   24 ar
  41   24   25 ar
  42   24   44 1
  43   25   26 ar
  44   25   29 1
  45   26   27 ar
  46   27   45 1
  47   28   46 1
  48   28   47 1
  49   28   48 1
  50   29   30 1
  51   30   49 1
  52   30   50 1
  53   30   51 1

#	End of record

