#	Name: ASD02038784
#	Creating user name:	WinNT
#	Creation time:	15. 06. 2019 20:17

#	Modifying user name:	WinNT
#	Modification time:	15. 06. 2019 20:17

#	Program:	/corina/corina34_cracker 3.40 0067  02.08.2006

@<TRIPOS>MOLECULE
ASD02038784
  53   56    0    0    0
SMALL
NO_CHARGES


@<TRIPOS>ATOM
   1 C1            -1.2781    -0.8508     0.4671 C.2     
   2 C2            -0.0621    -0.0356     0.3024 C.2     
   3 N3             1.1359    -0.6349     0.1536 N.am    
   4 C4             1.2427    -2.0928     0.2503 C.3     
   5 C5             1.2149    -2.6914    -1.1324 C.ar    
   6 C6             2.3313     0.1716    -0.1050 C.3     
   7 O7            -0.1392     1.1782     0.3008 O.2     
   8 N8            -1.3368    -2.2067     0.5003 N.2     
   9 C9            -2.5765    -2.5706     0.6593 C.2     
  10 N10           -3.3571    -1.4613     0.7337 N.pl3   
  11 C11           -2.5496    -0.3806     0.6201 C.2     
  12 C12            2.4006    -3.0120    -1.7685 C.ar    
  13 C13            2.1173     1.0156    -1.3652 C.3     
  14 C14            3.3388     1.9123    -1.5829 C.3     
  15 O15            3.5387     2.7312    -0.4290 O.3     
  16 C16            3.7908     1.9971     0.7709 C.3     
  17 C17            2.5874     1.1038     1.0832 C.3     
  18 C18           -4.8110    -1.4383     0.9116 C.3     
  19 C19            0.0036    -2.9235    -1.7585 C.ar    
  20 C20           -0.0278    -3.4719    -3.0247 C.ar    
  21 C21            1.1638    -3.7919    -3.6722 C.ar    
  22 C22            2.3810    -3.5609    -3.0347 C.ar    
  23 C23            1.1363    -4.3823    -5.0334 C.ar    
  24 C24            2.3279    -4.7022    -5.6809 C.ar    
  25 C25           -0.0813    -4.6239    -5.6663 C.ar    
  26 C26           -0.1009    -5.1732    -6.9323 C.ar    
  27 C27            1.0851    -5.4840    -7.5726 C.ar    
  28 C28            2.2965    -5.2511    -6.9468 C.ar    
  29 H29            2.1792    -2.3567     0.7417 H       
  30 H30            0.4058    -2.4807     0.8311 H       
  31 H31            3.1901    -0.4845    -0.2471 H       
  32 H32           -2.9279    -3.5900     0.7215 H       
  33 H33           -2.8545     0.6553     0.6392 H       
  34 H34            3.3435    -2.8322    -1.2735 H       
  35 H35            1.9892     0.3592    -2.2259 H       
  36 H36            1.2284     1.6345    -1.2425 H       
  37 H37            4.2204     1.2924    -1.7459 H       
  38 H38            3.1739     2.5461    -2.4543 H       
  39 H39            4.6783     1.3782     0.6387 H       
  40 H40            3.9514     2.6919     1.5952 H       
  41 H41            1.7080     1.7244     1.2553 H       
  42 H42            2.7955     0.5104     1.9735 H       
  43 H43           -5.0466    -1.4127     1.9755 H       
  44 H44           -5.2225    -0.5529     0.4269 H       
  45 H45           -5.2459    -2.3323     0.4646 H       
  46 H46           -0.9194    -2.6754    -1.2556 H       
  47 H47           -0.9742    -3.6530    -3.5125 H       
  48 H48            3.3075    -3.8067    -3.5322 H       
  49 H49            3.2743    -4.5208    -5.1932 H       
  50 H50           -1.0079    -4.3822    -5.1670 H       
  51 H51           -1.0441    -5.3609    -7.4238 H       
  52 H52            1.0651    -5.9143    -8.5630 H       
  53 H53            3.2196    -5.4953    -7.4515 H       
@<TRIPOS>BOND
   1    1    2 1
   2    1    8 1
   3    1   11 2
   4    2    3 am
   5    2    7 2
   6    3    4 1
   7    3    6 1
   8    4    5 1
   9    4   29 1
  10    4   30 1
  11    5   12 ar
  12    5   19 ar
  13    6   13 1
  14    6   17 1
  15    6   31 1
  16    8    9 2
  17    9   10 1
  18    9   32 1
  19   10   11 1
  20   10   18 1
  21   11   33 1
  22   12   22 ar
  23   12   34 1
  24   13   14 1
  25   13   35 1
  26   13   36 1
  27   14   15 1
  28   14   37 1
  29   14   38 1
  30   15   16 1
  31   16   17 1
  32   16   39 1
  33   16   40 1
  34   17   41 1
  35   17   42 1
  36   18   43 1
  37   18   44 1
  38   18   45 1
  39   19   20 ar
  40   19   46 1
  41   20   21 ar
  42   20   47 1
  43   21   22 ar
  44   21   23 1
  45   22   48 1
  46   23   24 ar
  47   23   25 ar
  48   24   28 ar
  49   24   49 1
  50   25   26 ar
  51   25   50 1
  52   26   27 ar
  53   26   51 1
  54   27   28 ar
  55   27   52 1
  56   28   53 1

#	End of record

