#	Name: ASD01140229
#	Creating user name:	WinNT
#	Creation time:	15. 06. 2019 19:00

#	Modifying user name:	WinNT
#	Modification time:	15. 06. 2019 19:00

#	Program:	/corina/corina34_cracker 3.40 0067  02.08.2006

@<TRIPOS>MOLECULE
ASD01140229
  32   33    0    0    0
SMALL
NO_CHARGES


@<TRIPOS>ATOM
   1 C1            -0.0709     1.2756     0.0437 C.ar    
   2 C2             0.0677    -0.1039    -0.0185 C.ar    
   3 C3             1.3223    -0.6788    -0.0678 C.ar    
   4 C4             2.4561     0.1233    -0.0548 C.ar    
   5 C5             2.3188     1.5196     0.0081 C.ar    
   6 C6             1.0414     2.0865     0.0570 C.ar    
   7 C7             3.5125     2.3813     0.0229 C.2     
   8 O8             3.3775     3.7208    -0.0396 O.3     
   9 O9             4.6196     1.8847     0.0915 O.2     
  10 N10            3.7187    -0.4522    -0.1034 N.pl3   
  11 C11            3.8636    -1.9079    -0.0256 C.3     
  12 C12            5.3241    -2.2720    -0.0998 C.2     
  13 C13            6.1579    -2.3969     0.9483 C.2     
  14 C14            7.4238    -2.7474     0.4251 C.2     
  15 C15            7.2877    -2.8157    -0.9114 C.2     
  16 O16            6.0125    -2.5325    -1.2232 O.3     
  17 S17           -1.6793     1.9932     0.0986 S.o2    
  18 O18           -2.3990     1.2887     1.1011 O.2     
  19 O19           -1.4898     3.4013     0.1225 O.2     
  20 N20           -2.4206     1.6454    -1.3407 N.am    
  21 Cl21          -1.3448    -1.1130    -0.0338 Cl      
  22 H22            1.4220    -1.7531    -0.1160 H       
  23 H23            0.9276     3.1594     0.1052 H       
  24 H24            4.1900     4.2450    -0.0269 H       
  25 H25            4.5048     0.1096    -0.1888 H       
  26 H26            3.4477    -2.2646     0.9167 H       
  27 H27            3.3310    -2.3710    -0.8562 H       
  28 H28            5.9085    -2.2558     1.9896 H       
  29 H29            8.3268    -2.9256     0.9901 H       
  30 H30            8.0703    -3.0608    -1.6142 H       
  31 H31           -1.9515     1.1308    -2.0160 H       
  32 H32           -3.3239     1.9564    -1.5086 H       
@<TRIPOS>BOND
   1    1    2 ar
   2    1    6 ar
   3    1   17 1
   4    2    3 ar
   5    2   21 1
   6    3    4 ar
   7    3   22 1
   8    4    5 ar
   9    4   10 1
  10    5    6 ar
  11    5    7 1
  12    6   23 1
  13    7    8 1
  14    7    9 2
  15    8   24 1
  16   10   11 1
  17   10   25 1
  18   11   12 1
  19   11   26 1
  20   11   27 1
  21   12   13 2
  22   12   16 1
  23   13   14 1
  24   13   28 1
  25   14   15 2
  26   14   29 1
  27   15   16 1
  28   15   30 1
  29   17   18 2
  30   17   19 2
  31   17   20 am
  32   20   31 1
  33   20   32 1

#	End of record

