#	Name: ASD01880187
#	Creating user name:	WinNT
#	Creation time:	15. 06. 2019 19:40

#	Modifying user name:	WinNT
#	Modification time:	15. 06. 2019 19:40

#	Program:	/corina/corina34_cracker 3.40 0067  02.08.2006

@<TRIPOS>MOLECULE
ASD01880187
  73   76    0    0    0
SMALL
NO_CHARGES


@<TRIPOS>ATOM
   1 C1            -0.0166     1.3750     0.0096 C.ar    
   2 C2             0.0021    -0.0041     0.0020 C.ar    
   3 C3            -1.1947    -0.7237     0.0095 C.ar    
   4 C4            -2.4086    -0.0655     0.0242 C.ar    
   5 C5            -2.4444     1.3251     0.0320 C.ar    
   6 C6            -1.2398     2.0501     0.0307 C.ar    
   7 O7             1.1908    -0.6658    -0.0133 O.3     
   8 C8             1.7702    -0.9881     1.2526 C.3     
   9 C9             6.8033    -3.7895     3.4234 C.ar    
  10 C10            7.4204    -4.1328     4.6193 C.ar    
  11 C11            8.6221    -4.8078     4.6077 C.ar    
  12 C12            9.2184    -5.1466     3.3923 C.ar    
  13 C13            8.5952    -4.8003     2.1927 C.ar    
  14 C14            7.3938    -4.1250     2.2120 C.ar    
  15 C15           10.5084    -5.8706     3.3757 C.2     
  16 N16           11.2027    -6.2572     4.4255 N.2     
  17 N17           12.2750    -6.8606     4.0578 N.2     
  18 N18           12.3471    -6.9051     2.7716 N.2     
  19 N19           11.1966    -6.2668     2.2762 N.pl3   
  20 N20           -3.4720     2.2445     0.0463 N.pl3   
  21 C21           -2.9594     3.5142     0.0485 C.2     
  22 C22           -1.6182     3.4659     0.0402 C.2     
  23 C23           -4.8988     1.9125     0.0576 C.3     
  24 C24            3.0935    -1.7248     1.0351 C.3     
  25 C25            5.0371    -2.8065     2.1729 C.3     
  26 O26            5.6165    -3.1289     3.4387 O.3     
  27 C27           -5.3539     1.6667     1.4975 C.3     
  28 C28           -5.1174     2.9287     2.3296 C.3     
  29 C29           -6.8441     1.3200     1.5092 C.3     
  30 C30           -4.5554     0.5057     2.0936 C.3     
  31 C31            1.2759     2.1498     0.0014 C.3     
  32 C32            1.6995     2.4198    -1.4438 C.3     
  33 C33            3.0118     3.2064    -1.4521 C.3     
  34 O34           -1.1645    -2.0835     0.0019 O.3     
  35 C35           -2.4230    -2.7604     0.0103 C.3     
  36 C36            3.7139    -2.0699     2.3904 C.3     
  37 H37           -3.3293    -0.6298     0.0292 H       
  38 H38            1.9527    -0.0711     1.8127 H       
  39 H39            1.0870    -1.6263     1.8130 H       
  40 H40            6.9583    -3.8703     5.5595 H       
  41 H41            9.1018    -5.0739     5.5380 H       
  42 H42            9.0540    -5.0606     1.2502 H       
  43 H43            6.9108    -3.8567     1.2840 H       
  44 H44           10.9506    -6.1337     1.3474 H       
  45 H45           -3.5471     4.4202     0.0587 H       
  46 H46           -0.9451     4.3105     0.0401 H       
  47 H47           -5.4677     2.7396    -0.3671 H       
  48 H48           -5.0673     1.0134    -0.5352 H       
  49 H49            2.9110    -2.6418     0.4749 H       
  50 H50            3.7767    -1.0866     0.4747 H       
  51 H51            5.7203    -2.1683     1.6125 H       
  52 H52            4.8546    -3.7236     1.6127 H       
  53 H53           -5.6862     3.7559     1.9049 H       
  54 H54           -5.4416     2.7536     3.3554 H       
  55 H55           -4.0558     3.1758     2.3212 H       
  56 H56           -7.0126     0.4209     0.9165 H       
  57 H57           -7.1683     1.1449     2.5351 H       
  58 H58           -7.4129     2.1471     1.0846 H       
  59 H59           -3.4938     0.7527     2.0852 H       
  60 H60           -4.8796     0.3306     3.1194 H       
  61 H61           -4.7239    -0.3933     1.5008 H       
  62 H62            1.1349     3.0972     0.5217 H       
  63 H63            2.0500     1.5706     0.5048 H       
  64 H64            1.8405     1.4724    -1.9641 H       
  65 H65            0.9255     2.9991    -1.9471 H       
  66 H66            3.3136     3.3988    -2.4816 H       
  67 H67            2.8708     4.1538    -0.9318 H       
  68 H68            3.7859     2.6272    -0.9487 H       
  69 H69           -2.2562    -3.8375     0.0029 H       
  70 H70           -2.9779    -2.4848     0.9071 H       
  71 H71           -2.9948    -2.4752    -0.8728 H       
  72 H72            3.8963    -1.1528     2.9505 H       
  73 H73            3.0306    -2.7081     2.9508 H       
@<TRIPOS>BOND
   1    1    2 ar
   2    1   31 1
   3    1    6 ar
   4    2    3 ar
   5    2    7 1
   6    3    4 ar
   7    3   34 1
   8    4    5 ar
   9    4   37 1
  10    5    6 ar
  11    5   20 1
  12    6   22 1
  13    7    8 1
  14    8   24 1
  15    8   38 1
  16    8   39 1
  17    9   10 ar
  18    9   14 ar
  19    9   26 1
  20   10   11 ar
  21   10   40 1
  22   11   12 ar
  23   11   41 1
  24   12   13 ar
  25   12   15 1
  26   13   14 ar
  27   13   42 1
  28   14   43 1
  29   15   16 2
  30   15   19 1
  31   16   17 1
  32   17   18 2
  33   18   19 1
  34   19   44 1
  35   20   21 1
  36   20   23 1
  37   21   22 2
  38   21   45 1
  39   22   46 1
  40   23   27 1
  41   23   47 1
  42   23   48 1
  43   24   36 1
  44   24   49 1
  45   24   50 1
  46   25   26 1
  47   25   36 1
  48   25   51 1
  49   25   52 1
  50   27   28 1
  51   27   29 1
  52   27   30 1
  53   28   53 1
  54   28   54 1
  55   28   55 1
  56   29   56 1
  57   29   57 1
  58   29   58 1
  59   30   59 1
  60   30   60 1
  61   30   61 1
  62   31   32 1
  63   31   62 1
  64   31   63 1
  65   32   33 1
  66   32   64 1
  67   32   65 1
  68   33   66 1
  69   33   67 1
  70   33   68 1
  71   34   35 1
  72   35   69 1
  73   35   70 1
  74   35   71 1
  75   36   72 1
  76   36   73 1

#	End of record

