#	Name: ASD03082152
#	Creating user name:	WinNT
#	Creation time:	15. 06. 2019 20:27

#	Modifying user name:	WinNT
#	Modification time:	15. 06. 2019 20:27

#	Program:	/corina/corina34_cracker 3.40 0067  02.08.2006

@<TRIPOS>MOLECULE
ASD03082152
  49   52    0    0    0
SMALL
NO_CHARGES


@<TRIPOS>ATOM
   1 C1             0.0462     1.4435    -0.2102 C.ar    
   2 C2             0.0251     0.1221     0.2175 C.ar    
   3 C3             1.1702    -0.4473     0.7608 C.ar    
   4 C4             2.3248     0.3015     0.8738 C.ar    
   5 C5             2.3421     1.6172     0.4473 C.ar    
   6 C6             1.2046     2.1868    -0.0942 C.ar    
   7 N7            -1.1452    -0.6327     0.1021 N.pl3   
   8 H8            -1.0924    -1.5925    -0.0280 H       
   9 C9            -2.3905    -0.0053     0.1741 C.2     
  10 N10           -3.5690    -0.5997    -0.0167 N.2     
  11 N11           -2.5902     1.2641     0.4461 N.2     
  12 N12           -3.9782     1.4751     0.4175 N.pl3   
  13 C13           -4.5392     0.2808     0.1247 C.2     
  14 C14           -4.6794     2.7380     0.6614 C.3     
  15 C15           -5.9879     0.0097    -0.0133 C.ar    
  16 C16           -6.8914     1.0470    -0.2767 C.ar    
  17 C17           -8.2329     0.7547    -0.3989 C.ar    
  18 N18           -8.6732    -0.4829    -0.2711 N.ar    
  19 C19           -7.8562    -1.4952    -0.0220 C.ar    
  20 C20           -6.4891    -1.2876     0.1098 C.ar    
  21 O21           -4.8248     3.4478    -0.5703 O.3     
  22 N22           -8.3718    -2.7803     0.1036 N.3     
  23 C23           -9.8310    -2.7823    -0.0753 C.3     
  24 C24           -8.0050    -3.3710     1.3989 C.3     
  25 C25           -8.5406    -4.8034     1.4705 C.3     
  26 O26           -9.9557    -4.7887     1.2635 O.3     
  27 C27          -10.3484    -4.2206     0.0111 C.3     
  28 C28            3.5672    -0.3152     1.4629 C.3     
  29 F29            4.3254    -0.9009     0.4435 F       
  30 F30            4.3244     0.6760     2.0965 F       
  31 F31            3.2052    -1.2931     2.3955 F       
  32 H32           -0.8408     1.8878    -0.6370 H       
  33 H33            1.1571    -1.4743     1.0946 H       
  34 H34            3.2463     2.2009     0.5375 H       
  35 H35            1.2215     3.2144    -0.4262 H       
  36 H36           -5.6643     2.5318     1.0804 H       
  37 H37           -4.1053     3.3426     1.3635 H       
  38 H38           -6.5414     2.0633    -0.3824 H       
  39 H39           -8.9343     1.5504    -0.6020 H       
  40 H40           -5.8255    -2.1151     0.3129 H       
  41 H41           -5.2815     4.2958    -0.4841 H       
  42 H42          -10.2944    -2.1812     0.7070 H       
  43 H43          -10.0787    -2.3644    -1.0511 H       
  44 H44           -6.9196    -3.3828     1.4992 H       
  45 H45           -8.4392    -2.7793     2.2048 H       
  46 H46           -8.0660    -5.4085     0.6981 H       
  47 H47           -8.3206    -5.2256     2.4510 H       
  48 H48          -11.4358    -4.2214    -0.0638 H       
  49 H49           -9.9263    -4.8088    -0.8037 H       
@<TRIPOS>BOND
   1    1    2 ar
   2    1    6 ar
   3    1   32 1
   4    2    3 ar
   5    2    7 1
   6    3    4 ar
   7    3   33 1
   8    4    5 ar
   9    4   28 1
  10    5    6 ar
  11    5   34 1
  12    6   35 1
  13    7    8 1
  14    7    9 1
  15    9   10 1
  16    9   11 2
  17   10   13 2
  18   11   12 1
  19   12   13 1
  20   12   14 1
  21   13   15 1
  22   14   21 1
  23   14   36 1
  24   14   37 1
  25   15   16 ar
  26   15   20 ar
  27   16   17 ar
  28   16   38 1
  29   17   18 ar
  30   17   39 1
  31   18   19 ar
  32   19   20 ar
  33   19   22 1
  34   20   40 1
  35   21   41 1
  36   22   23 1
  37   22   24 1
  38   23   27 1
  39   23   42 1
  40   23   43 1
  41   24   25 1
  42   24   44 1
  43   24   45 1
  44   25   26 1
  45   25   46 1
  46   25   47 1
  47   26   27 1
  48   27   48 1
  49   27   49 1
  50   28   29 1
  51   28   30 1
  52   28   31 1

#	End of record

