#	Name: ASD05940119
#	Creating user name:	WinNT
#	Creation time:	15. 06. 2019 21:04

#	Modifying user name:	WinNT
#	Modification time:	15. 06. 2019 21:04

#	Program:	/corina/corina34_cracker 3.40 0067  02.08.2006

@<TRIPOS>MOLECULE
ASD05940119
  67   69    0    0    0
SMALL
NO_CHARGES


@<TRIPOS>ATOM
   1 O1             1.2235    -1.1180     2.6219 O.3     
   2 C2             0.1985    -1.5675     1.7335 C.3     
   3 C3            -0.6246    -0.3692     1.2565 C.3     
   4 N4            -1.3167     0.2366     2.4020 N.3     
   5 C5            -1.8115     1.5789     2.0683 C.3     
   6 C6            -2.4092    -0.6253     2.8728 C.3     
   7 C7            -2.9336    -0.1001     4.1845 C.2     
   8 C8            -3.9668     0.8289     4.3449 C.2     
   9 C9            -4.7508     1.4792     3.2343 C.3     
  10 C10           -2.4920    -0.4485     5.4152 C.2     
  11 N11           -3.2161     0.2402     6.3221 N.pl3   
  12 N12           -4.1355     1.0353     5.6258 N.2     
  13 C13           -1.3898    -1.4303     5.7187 C.3     
  14 C14            0.8364    -2.2604     0.5278 C.3     
  15 O15            1.5085    -3.4452     0.9598 O.3     
  16 C16            2.1332    -4.1839     0.0042 C.ar    
  17 C17            2.8047    -5.3458     0.3545 C.ar    
  18 C18            3.4392    -6.0962    -0.6162 C.ar    
  19 C19            3.4045    -5.6880    -1.9413 C.ar    
  20 C20            2.7323    -4.5265    -2.2917 C.ar    
  21 C21            2.0940    -3.7785    -1.3216 C.ar    
  22 C22           -3.0692     0.1663     7.7779 C.3     
  23 C23           -4.0692    -0.8140     8.3345 C.ar    
  24 C24           -3.6958    -2.1235     8.5702 C.ar    
  25 C25           -4.6132    -3.0231     9.0808 C.ar    
  26 C26           -5.9044    -2.6134     9.3556 C.ar    
  27 C27           -6.2793    -1.3039     9.1198 C.ar    
  28 C28           -5.3600    -0.4018     8.6151 C.ar    
  29 C29            1.5939    -2.0768     3.6147 C.3     
  30 Cl30          -5.8299     1.2430     8.3193 Cl      
  31 O31            4.0300    -6.4262    -2.8968 O.3     
  32 C32            4.7102    -6.9010    -5.1667 C.3     
  33 C33            3.9535    -5.9466    -4.2407 C.3     
  34 H34           -0.4515    -2.2704     2.2547 H       
  35 H35            0.0368     0.3675     0.8006 H       
  36 H36           -1.3589    -0.7017     0.5228 H       
  37 H37           -2.5886     1.5010     1.3078 H       
  38 H38           -2.2237     2.0468     2.9623 H       
  39 H39           -0.9895     2.1848     1.6871 H       
  40 H40           -3.2123    -0.6292     2.1359 H       
  41 H41           -2.0374    -1.6406     3.0105 H       
  42 H42           -5.6236     0.8696     3.0005 H       
  43 H43           -5.0743     2.4709     3.5503 H       
  44 H44           -4.1215     1.5674     2.3487 H       
  45 H45           -0.4467    -0.8951     5.8289 H       
  46 H46           -1.6183    -1.9584     6.6445 H       
  47 H47           -1.3072    -2.1477     4.9022 H       
  48 H48            0.0612    -2.5243    -0.1917 H       
  49 H49            1.5532    -1.5866     0.0587 H       
  50 H50            2.8317    -5.6637     1.3863 H       
  51 H51            3.9627    -7.0006    -0.3433 H       
  52 H52            2.7052    -4.2086    -3.3235 H       
  53 H53            1.5705    -2.8741    -1.5945 H       
  54 H54           -2.0603    -0.1640     8.0250 H       
  55 H55           -3.2456     1.1508     8.2113 H       
  56 H56           -2.6872    -2.4444     8.3551 H       
  57 H57           -4.3209    -4.0464     9.2648 H       
  58 H58           -6.6207    -3.3167     9.7541 H       
  59 H59           -7.2884    -0.9841     9.3338 H       
  60 H60            2.3764    -1.6597     4.2486 H       
  61 H61            0.7246    -2.3224     4.2247 H       
  62 H62            1.9631    -2.9795     3.1281 H       
  63 H63            4.6518    -6.5351    -6.1918 H       
  64 H64            5.7544    -6.9542    -4.8588 H       
  65 H65            4.2634    -7.8935    -5.1091 H       
  66 H66            2.9092    -5.8933    -4.5486 H       
  67 H67            4.4003    -4.9540    -4.2983 H       
@<TRIPOS>BOND
   1    1    2 1
   2    1   29 1
   3    2    3 1
   4    2   14 1
   5    2   34 1
   6    3    4 1
   7    3   35 1
   8    3   36 1
   9    4    5 1
  10    4    6 1
  11    5   37 1
  12    5   38 1
  13    5   39 1
  14    6    7 1
  15    6   40 1
  16    6   41 1
  17    7    8 1
  18    7   10 2
  19    8    9 1
  20    8   12 2
  21    9   42 1
  22    9   43 1
  23    9   44 1
  24   10   11 1
  25   10   13 1
  26   11   12 1
  27   11   22 1
  28   13   45 1
  29   13   46 1
  30   13   47 1
  31   14   15 1
  32   14   48 1
  33   14   49 1
  34   15   16 1
  35   16   17 ar
  36   16   21 ar
  37   17   18 ar
  38   17   50 1
  39   18   19 ar
  40   18   51 1
  41   19   20 ar
  42   19   31 1
  43   20   21 ar
  44   20   52 1
  45   21   53 1
  46   22   23 1
  47   22   54 1
  48   22   55 1
  49   23   24 ar
  50   23   28 ar
  51   24   25 ar
  52   24   56 1
  53   25   26 ar
  54   25   57 1
  55   26   27 ar
  56   26   58 1
  57   27   28 ar
  58   27   59 1
  59   28   30 1
  60   29   60 1
  61   29   61 1
  62   29   62 1
  63   31   33 1
  64   32   33 1
  65   32   63 1
  66   32   64 1
  67   32   65 1
  68   33   66 1
  69   33   67 1

#	End of record

