#	Name: ASD01883235
#	Creating user name:	WinNT
#	Creation time:	15. 06. 2019 19:46

#	Modifying user name:	WinNT
#	Modification time:	15. 06. 2019 19:46

#	Program:	/corina/corina34_cracker 3.40 0067  02.08.2006

@<TRIPOS>MOLECULE
ASD01883235
  53   56    0    0    0
SMALL
NO_CHARGES


@<TRIPOS>ATOM
   1 C1            -0.1961     1.1268     0.0643 C.2     
   2 C2             0.1014    -0.3152    -0.0179 C.ar    
   3 C3             1.4447    -0.7237    -0.0806 C.ar    
   4 N4             2.4576     0.2127    -0.0653 N.pl3   
   5 C5             2.2256     1.5316     0.0086 C.2     
   6 C6             0.9490     2.0506     0.0752 C.2     
   7 C7             3.7838    -0.2326    -0.1293 C.ar    
   8 C8             4.5513     0.0309    -1.2560 C.ar    
   9 C9             5.8595    -0.4081    -1.3194 C.ar    
  10 C10            6.4074    -1.1123    -0.2582 C.ar    
  11 C11            5.6407    -1.3771     0.8703 C.ar    
  12 C12            4.3337    -0.9332     0.9369 C.ar    
  13 C13           -0.9215    -1.2630    -0.0334 C.ar    
  14 C14           -0.6075    -2.6021    -0.1105 C.ar    
  15 C15            0.7180    -3.0077    -0.1720 C.ar    
  16 C16            1.7386    -2.0822    -0.1585 C.ar    
  17 O17           -1.3427     1.5365     0.1158 O.2     
  18 C18            0.7362     3.5042     0.1549 C.2     
  19 O19            1.6871     4.2522     0.2810 O.2     
  20 N20           -0.5125     4.0071     0.0882 N.am    
  21 O21            7.6952    -1.5445    -0.3219 O.3     
  22 C22           -1.7084    -3.6311    -0.1276 C.3     
  23 C23           -2.1261    -3.9070    -1.5734 C.3     
  24 C24           -3.2270    -4.9359    -1.5905 C.ar    
  25 N25           -5.4972    -5.4845    -1.5468 N.ar    
  26 C26           -5.1804    -6.7616    -1.6209 C.ar    
  27 N27           -3.9262    -7.1631    -1.6748 N.ar    
  28 C28           -2.9332    -6.2885    -1.6619 C.ar    
  29 C29           -4.5576    -4.5528    -1.5295 C.ar    
  30 C30           -6.2813    -7.7906    -1.6381 C.3     
  31 C31            8.4245    -1.2376    -1.5118 C.3     
  32 F32            6.1747    -2.0637     1.9041 F       
  33 H33            3.0660     2.2099     0.0167 H       
  34 H34            4.1252     0.5791    -2.0832 H       
  35 H35            6.4557    -0.2031    -2.1962 H       
  36 H36            3.7387    -1.1347     1.8154 H       
  37 H37           -1.9537    -0.9491     0.0151 H       
  38 H38            0.9522    -4.0602    -0.2319 H       
  39 H39            2.7663    -2.4106    -0.2072 H       
  40 H40           -1.2637     3.4187    -0.0862 H       
  41 H41           -0.6600     4.9575     0.2145 H       
  42 H42           -1.3506    -4.5536     0.3296 H       
  43 H43           -2.5648    -3.2562     0.4328 H       
  44 H44           -2.4839    -2.9844    -2.0306 H       
  45 H45           -1.2697    -4.2819    -2.1338 H       
  46 H46           -1.9077    -6.6242    -1.7066 H       
  47 H47           -4.8240    -3.5079    -1.4683 H       
  48 H48           -6.5789    -7.9871    -2.6681 H       
  49 H49           -5.9235    -8.7131    -1.1809 H       
  50 H50           -7.1377    -7.4157    -1.0776 H       
  51 H51            7.9231    -1.6838    -2.3706 H       
  52 H52            8.4718    -0.1562    -1.6402 H       
  53 H53            9.4350    -1.6385    -1.4323 H       
@<TRIPOS>BOND
   1    1    2 1
   2    1    6 1
   3    1   17 2
   4    2    3 ar
   5    2   13 ar
   6    3    4 1
   7    3   16 ar
   8    4    5 1
   9    4    7 1
  10    5    6 2
  11    5   33 1
  12    6   18 1
  13    7    8 ar
  14    7   12 ar
  15    8    9 ar
  16    8   34 1
  17    9   10 ar
  18    9   35 1
  19   10   11 ar
  20   10   21 1
  21   11   12 ar
  22   11   32 1
  23   12   36 1
  24   13   14 ar
  25   13   37 1
  26   14   15 ar
  27   14   22 1
  28   15   16 ar
  29   15   38 1
  30   16   39 1
  31   18   19 2
  32   18   20 am
  33   20   40 1
  34   20   41 1
  35   21   31 1
  36   22   23 1
  37   22   42 1
  38   22   43 1
  39   23   24 1
  40   23   44 1
  41   23   45 1
  42   24   29 ar
  43   24   28 ar
  44   25   26 ar
  45   25   29 ar
  46   26   27 ar
  47   26   30 1
  48   27   28 ar
  49   28   46 1
  50   29   47 1
  51   30   48 1
  52   30   49 1
  53   30   50 1
  54   31   51 1
  55   31   52 1
  56   31   53 1

#	End of record

