#	Name: ASD01180272
#	Creating user name:	WinNT
#	Creation time:	15. 06. 2019 19:07

#	Modifying user name:	WinNT
#	Modification time:	15. 06. 2019 19:07

#	Program:	/corina/corina34_cracker 3.40 0067  02.08.2006

@<TRIPOS>MOLECULE
ASD01180272
  30   31    0    0    0
SMALL
NO_CHARGES


@<TRIPOS>ATOM
   1 C1            -0.0169     1.3955     0.0097 C.ar    
   2 C2             0.0021    -0.0041     0.0020 C.ar    
   3 C3             1.2091    -0.6769    -0.0132 C.ar    
   4 C4             2.4070     0.0417    -0.0208 C.ar    
   5 C5             2.3835     1.4390    -0.0131 C.ar    
   6 C6             1.1809     2.1091     0.0021 C.ar    
   7 C7            -1.3105     2.1191     0.0198 C.ar    
   8 C8            -1.5385     3.1322     0.9502 C.ar    
   9 C9            -2.7446     3.8026     0.9544 C.ar    
  10 C10           -3.7265     3.4713     0.0380 C.ar    
  11 C11           -3.5060     2.4670    -0.8875 C.ar    
  12 C12           -2.3019     1.7932    -0.9048 C.ar    
  13 C13            3.6588    -0.6534    -0.0361 C.1     
  14 N14            4.6520    -1.2049    -0.0482 N.1     
  15 C15           -5.0417     4.2069     0.0482 C.3     
  16 F16           -4.9593     5.3213    -0.7936 F       
  17 F17           -6.0558     3.3554    -0.4032 F       
  18 F18           -5.3310     4.6269     1.3509 F       
  19 O19           -1.1646    -0.7002     0.0099 O.3     
  20 C20           -1.0694    -2.1260     0.0013 C.3     
  21 H21            1.2263    -1.7567    -0.0188 H       
  22 H22            3.3101     1.9940    -0.0190 H       
  23 H23            1.1653     3.1890     0.0077 H       
  24 H24           -0.7728     3.3915     1.6663 H       
  25 H25           -2.9225     4.5873     1.6748 H       
  26 H26           -4.2762     2.2126    -1.6006 H       
  27 H27           -2.1292     1.0123    -1.6307 H       
  28 H28           -0.5414    -2.4495    -0.8957 H       
  29 H29           -0.5236    -2.4590     0.8841 H       
  30 H30           -2.0705    -2.5570     0.0090 H       
@<TRIPOS>BOND
   1    1    2 ar
   2    1    6 ar
   3    1    7 1
   4    2    3 ar
   5    2   19 1
   6    3    4 ar
   7    3   21 1
   8    4    5 ar
   9    4   13 1
  10    5    6 ar
  11    5   22 1
  12    6   23 1
  13    7    8 ar
  14    7   12 ar
  15    8    9 ar
  16    8   24 1
  17    9   10 ar
  18    9   25 1
  19   10   11 ar
  20   10   15 1
  21   11   12 ar
  22   11   26 1
  23   12   27 1
  24   13   14 3
  25   15   16 1
  26   15   17 1
  27   15   18 1
  28   19   20 1
  29   20   28 1
  30   20   29 1
  31   20   30 1

#	End of record

