#	Name: ASD02500877
#	Creating user name:	WinNT
#	Creation time:	15. 06. 2019 20:23

#	Modifying user name:	WinNT
#	Modification time:	15. 06. 2019 20:23

#	Program:	/corina/corina34_cracker 3.40 0067  02.08.2006

@<TRIPOS>MOLECULE
ASD02500877
  31   32    0    0    0
SMALL
NO_CHARGES


@<TRIPOS>ATOM
   1 S1             0.0079     1.6812     0.6393 S.3     
   2 C2             0.0075    -0.0583     0.2867 C.2     
   3 C3             1.4246    -0.4390     0.3670 C.2     
   4 N4             2.2514     0.5510     0.6595 N.am    
   5 C5             1.7641     1.7815     0.8547 C.2     
   6 S6             2.6653     3.1855     1.2388 S.2     
   7 C7            -1.0555    -0.8529     0.0079 C.2     
   8 O8             1.8080    -1.5784     0.1790 O.2     
   9 C9             3.6909     0.3016     0.7693 C.3     
  10 C10            4.3387     0.4964    -0.5773 C.2     
  11 O11            3.6669     0.8111    -1.5310 O.2     
  12 O12            5.6620     0.3201    -0.7173 O.3     
  13 C13           -2.4215    -0.3246     0.1347 C.ar    
  14 C14           -3.4792    -0.9429    -0.5393 C.ar    
  15 C15           -4.7619    -0.4387    -0.4142 C.ar    
  16 C16           -4.9965     0.6775     0.3782 C.ar    
  17 C17           -3.9522     1.2915     1.0462 C.ar    
  18 C18           -2.6702     0.7963     0.9352 C.ar    
  19 O19           -5.7929    -1.0361    -1.0677 O.3     
  20 C20           -7.0904    -0.4631    -0.8938 C.3     
  21 H21           -0.8985    -1.8740    -0.3072 H       
  22 H22            4.1265     0.9977     1.4861 H       
  23 H23            3.8577    -0.7208     1.1083 H       
  24 H24            6.0320     0.4564    -1.6003 H       
  25 H25           -3.2956    -1.8107    -1.1555 H       
  26 H26           -5.9989     1.0682     0.4730 H       
  27 H27           -4.1424     2.1594     1.6602 H       
  28 H28           -1.8574     1.2781     1.4584 H       
  29 H29           -7.0813     0.5694    -1.2430 H       
  30 H30           -7.8198    -1.0344    -1.4680 H       
  31 H31           -7.3597    -0.4872     0.1621 H       
@<TRIPOS>BOND
   1    1    2 1
   2    1    5 1
   3    2    3 1
   4    2    7 2
   5    3    4 am
   6    3    8 2
   7    4    5 am
   8    4    9 1
   9    5    6 2
  10    7   13 1
  11    7   21 1
  12    9   10 1
  13    9   22 1
  14    9   23 1
  15   10   11 2
  16   10   12 1
  17   12   24 1
  18   13   14 ar
  19   13   18 ar
  20   14   15 ar
  21   14   25 1
  22   15   16 ar
  23   15   19 1
  24   16   17 ar
  25   16   26 1
  26   17   18 ar
  27   17   27 1
  28   18   28 1
  29   19   20 1
  30   20   29 1
  31   20   30 1
  32   20   31 1

#	End of record

