#	Name: ASD01001145
#	Creating user name:	WinNT
#	Creation time:	15. 06. 2019 18:55

#	Modifying user name:	WinNT
#	Modification time:	15. 06. 2019 18:55

#	Program:	/corina/corina34_cracker 3.40 0067  02.08.2006

@<TRIPOS>MOLECULE
ASD01001145
  49   50    0    0    0
SMALL
NO_CHARGES


@<TRIPOS>ATOM
   1 C1            -0.0390     1.2909     0.0316 C.2     
   2 N2             0.0316    -0.0543    -0.0114 N.am    
   3 C3             1.3617    -0.6852    -0.0515 C.3     
   4 C4             2.5611     0.2408    -0.0409 C.2     
   5 C5             2.3281     1.5708     0.0042 C.2     
   6 N6             1.0555     2.0621     0.0390 N.am    
   7 C7             3.8794    -0.2698    -0.0765 C.2     
   8 O8             4.8240     0.4909    -0.1753 O.2     
   9 O9             4.0898    -1.6006    -0.0009 O.3     
  10 S10           -1.5788     2.0383     0.0712 S.2     
  11 C11            3.4925     2.5273     0.0163 C.3     
  12 C12            1.4751    -1.6060     1.1361 C.ar    
  13 C13            2.0887    -2.8363     0.9995 C.ar    
  14 C14            2.1927    -3.6834     2.0930 C.ar    
  15 C15            1.6800    -3.2925     3.3216 C.ar    
  16 C16            1.0676    -2.0615     3.4530 C.ar    
  17 C17            0.9701    -1.2165     2.3627 C.ar    
  18 O18            2.7954    -4.8943     1.9610 O.3     
  19 C19            5.4469    -2.0463    -0.0428 C.3     
  20 C20            5.4856    -3.5727     0.0545 C.3     
  21 O21            4.8657    -4.1395    -1.1016 O.3     
  22 C22            4.8489    -5.5684    -1.1104 C.3     
  23 C23            4.1655    -6.0626    -2.3869 C.3     
  24 S24            4.1442    -7.8724    -2.3981 S.3     
  25 C25            3.3489    -8.1512    -3.8883 C.2     
  26 O26            2.9936    -7.2133    -4.5711 O.2     
  27 C27            3.0902    -9.5615    -4.3520 C.3     
  28 H28           -0.7743    -0.5940    -0.0157 H       
  29 H29            1.4168    -1.2962    -0.9524 H       
  30 H30            0.9371     3.0243     0.0708 H       
  31 H31            3.8245     2.7085    -1.0060 H       
  32 H32            3.1844     3.4690     0.4705 H       
  33 H33            4.3108     2.0963     0.5931 H       
  34 H34            2.4866    -3.1385     0.0420 H       
  35 H35            1.7595    -3.9504     4.1744 H       
  36 H36            0.6680    -1.7570     4.4091 H       
  37 H37            0.4951    -0.2524     2.4686 H       
  38 H38            3.7473    -4.8805     2.1310 H       
  39 H39            5.9043    -1.7302    -0.9803 H       
  40 H40            5.9969    -1.6148     0.7935 H       
  41 H41            6.5215    -3.9069     0.1120 H       
  42 H42            4.9502    -3.8935     0.9480 H       
  43 H43            5.8716    -5.9440    -1.0770 H       
  44 H44            4.3003    -5.9307    -0.2410 H       
  45 H45            3.1428    -5.6869    -2.4203 H       
  46 H46            4.7142    -5.7003    -3.2563 H       
  47 H47            2.1206    -9.8938    -3.9812 H       
  48 H48            3.0923    -9.5919    -5.4416 H       
  49 H49            3.8706   -10.2189    -3.9688 H       
@<TRIPOS>BOND
   1    1    2 am
   2    1    6 am
   3    1   10 2
   4    2    3 1
   5    2   28 1
   6    3    4 1
   7    3   12 1
   8    3   29 1
   9    4    5 2
  10    4    7 1
  11    5    6 1
  12    5   11 1
  13    6   30 1
  14    7    8 2
  15    7    9 1
  16    9   19 1
  17   11   31 1
  18   11   32 1
  19   11   33 1
  20   12   13 ar
  21   12   17 ar
  22   13   14 ar
  23   13   34 1
  24   14   15 ar
  25   14   18 1
  26   15   16 ar
  27   15   35 1
  28   16   17 ar
  29   16   36 1
  30   17   37 1
  31   18   38 1
  32   19   20 1
  33   19   39 1
  34   19   40 1
  35   20   21 1
  36   20   41 1
  37   20   42 1
  38   21   22 1
  39   22   23 1
  40   22   43 1
  41   22   44 1
  42   23   24 1
  43   23   45 1
  44   23   46 1
  45   24   25 1
  46   25   26 2
  47   25   27 1
  48   27   47 1
  49   27   48 1
  50   27   49 1

#	End of record

