#	Name: ASD03081139
#	Creating user name:	WinNT
#	Creation time:	15. 06. 2019 20:27

#	Modifying user name:	WinNT
#	Modification time:	15. 06. 2019 20:27

#	Program:	/corina/corina34_cracker 3.40 0067  02.08.2006

@<TRIPOS>MOLECULE
ASD03081139
  29   32    0    0    0
SMALL
NO_CHARGES


@<TRIPOS>ATOM
   1 O1            -0.0144     1.2085     0.0087 O.3     
   2 N2             0.0021    -0.0041     0.0020 N.2     
   3 C3             1.2348    -0.4424    -0.0121 C.2     
   4 N4             2.0459     0.6359    -0.0141 N.2     
   5 C5             1.2413     1.6828    -0.0008 C.2     
   6 C6             3.0151    -2.1962    -0.0380 C.ar    
   7 C7             1.6622    -1.8639    -0.0238 C.ar    
   8 C8             0.7143    -2.8902    -0.0203 C.ar    
   9 C9             1.1641    -4.1997    -0.0312 C.ar    
  10 C10            2.5243    -4.4474    -0.0450 C.ar    
  11 N11            3.3958    -3.4571    -0.0480 N.ar    
  12 O12            2.5218     7.1306     0.0150 O.3     
  13 C13            1.2376     7.6198     0.4441 C.3     
  14 O14            0.3227     6.5863     0.0346 O.3     
  15 C15            1.0566     5.4351     0.0205 C.ar    
  16 C16            2.4109     5.7708     0.0087 C.ar    
  17 C17            3.3744     4.7724    -0.0065 C.ar    
  18 C18            2.9989     3.4458    -0.0086 C.ar    
  19 C19            1.6455     3.1033     0.0030 C.ar    
  20 C20            0.6745     4.1075     0.0168 C.ar    
  21 F21            1.2110     7.7772     1.8340 F       
  22 F22            0.9333     8.8269    -0.1943 F       
  23 H23            3.7584    -1.4127    -0.0454 H       
  24 H24           -0.3425    -2.6678    -0.0091 H       
  25 H25            0.4601    -5.0187    -0.0285 H       
  26 H26            2.8788    -5.4676    -0.0532 H       
  27 H27            4.4219     5.0353    -0.0158 H       
  28 H28            3.7518     2.6715    -0.0205 H       
  29 H29           -0.3734     3.8464     0.0257 H       
@<TRIPOS>BOND
   1    1    2 1
   2    1    5 1
   3    2    3 2
   4    3    4 1
   5    3    7 1
   6    4    5 2
   7    5   19 1
   8    6    7 ar
   9    6   11 ar
  10    6   23 1
  11    7    8 ar
  12    8    9 ar
  13    8   24 1
  14    9   10 ar
  15    9   25 1
  16   10   11 ar
  17   10   26 1
  18   12   13 1
  19   12   16 1
  20   13   14 1
  21   13   21 1
  22   13   22 1
  23   14   15 1
  24   15   16 ar
  25   15   20 ar
  26   16   17 ar
  27   17   18 ar
  28   17   27 1
  29   18   19 ar
  30   18   28 1
  31   19   20 ar
  32   20   29 1

#	End of record

