#	Name: ASD08150643
#	Creating user name:	WinNT
#	Creation time:	15. 06. 2019 21:16

#	Modifying user name:	WinNT
#	Modification time:	15. 06. 2019 21:16

#	Program:	/corina/corina34_cracker 3.40 0067  02.08.2006

@<TRIPOS>MOLECULE
ASD08150643
  63   69    0    0    0
SMALL
NO_CHARGES


@<TRIPOS>ATOM
   1 N1             0.0247     1.0306     4.6304 N.am    
   2 C2             0.4749     0.6565     3.4170 C.2     
   3 C3             1.7094    -0.0092     3.2768 C.2     
   4 C4             2.4656    -0.2836     4.3702 C.2     
   5 C5             1.9953     0.1089     5.6482 C.ar    
   6 C6             2.7403    -0.1510     6.8143 C.ar    
   7 N7             2.3040     0.2123     7.9921 N.ar    
   8 C8             1.1341     0.8475     8.1594 C.ar    
   9 C9             0.3185     1.1505     7.0414 C.ar    
  10 C10            0.7616     0.7700     5.7528 C.ar    
  11 C11           -0.8994     1.8118     7.2266 C.ar    
  12 C12           -1.2964     2.1648     8.5063 C.ar    
  13 C13           -0.4837     1.8620     9.6078 C.ar    
  14 C14            0.7035     1.2192     9.4436 C.ar    
  15 O15           -0.1948     0.8967     2.4268 O.2     
  16 C16           -2.5867     2.8665     8.7117 C.ar    
  17 C17           -1.2033     1.6958     4.7427 C.ar    
  18 C18           -1.2353     3.0795     4.8590 C.ar    
  19 C19           -2.4449     3.7350     4.9696 C.ar    
  20 C20           -3.6304     3.0107     4.9647 C.ar    
  21 C21           -3.5981     1.6267     4.8484 C.ar    
  22 C22           -2.3886     0.9720     4.7321 C.ar    
  23 N23           -4.8556     3.6744     5.0772 N.3     
  24 C24           -3.6412     2.6881     7.8022 C.ar    
  25 N25           -4.7907     3.2942     7.9585 N.ar    
  26 C26           -5.0182     4.1128     8.9912 C.ar    
  27 C27           -4.0027     4.3444     9.9530 C.ar    
  28 C28           -2.7624     3.6996     9.8072 C.ar    
  29 C29           -5.9096     2.7598     5.5342 C.3     
  30 C30           -6.2595     4.7553     9.1420 C.ar    
  31 C31           -6.4678     5.5844    10.2010 C.ar    
  32 C32           -5.4680     5.8110    11.1451 C.ar    
  33 C33           -4.2530     5.2072    11.0336 C.ar    
  34 C34           -7.1973     3.5478     5.7851 C.3     
  35 C35           -7.6251     4.2428     4.4895 C.3     
  36 C36           -6.4911     5.1525     4.0090 C.3     
  37 C37           -5.2239     4.3179     3.8097 C.3     
  38 H38            2.0547    -0.3021     2.2963 H       
  39 H39            3.4118    -0.7941     4.2678 H       
  40 H40            3.6895    -0.6600     6.7345 H       
  41 H41           -1.5257     2.0461     6.3785 H       
  42 H42           -0.8047     2.1430    10.6000 H       
  43 H43            1.3169     0.9935    10.3034 H       
  44 H44           -0.3137     3.6425     4.8632 H       
  45 H45           -2.4698     4.8109     5.0604 H       
  46 H46           -4.5197     1.0635     4.8445 H       
  47 H47           -2.3637    -0.1035     4.6368 H       
  48 H48           -3.5005     2.0356     6.9531 H       
  49 H49           -1.9676     3.8541    10.5218 H       
  50 H50           -6.0898     2.0029     4.7708 H       
  51 H51           -5.5944     2.2753     6.4584 H       
  52 H52           -7.0453     4.5918     8.4194 H       
  53 H53           -7.4235     6.0751    10.3114 H       
  54 H54           -5.6595     6.4743    11.9756 H       
  55 H55           -3.4859     5.3902    11.7715 H       
  56 H56           -7.9837     2.8662     6.1093 H       
  57 H57           -7.0215     4.2957     6.5583 H       
  58 H58           -7.8386     3.4933     3.7274 H       
  59 H59           -8.5179     4.8402     4.6743 H       
  60 H60           -6.7730     5.6174     3.0643 H       
  61 H61           -6.3042     5.9256     4.7543 H       
  62 H62           -4.4107     4.9652     3.4813 H       
  63 H63           -5.4073     3.5538     3.0543 H       
@<TRIPOS>BOND
   1    1    2 am
   2    1   10 1
   3    1   17 1
   4    2    3 1
   5    2   15 2
   6    3    4 2
   7    3   38 1
   8    4    5 1
   9    4   39 1
  10    5    6 ar
  11    5   10 ar
  12    6    7 ar
  13    6   40 1
  14    7    8 ar
  15    8    9 ar
  16    8   14 ar
  17    9   10 ar
  18    9   11 ar
  19   11   12 ar
  20   11   41 1
  21   12   13 ar
  22   12   16 1
  23   13   14 ar
  24   13   42 1
  25   14   43 1
  26   16   24 ar
  27   16   28 ar
  28   17   18 ar
  29   17   22 ar
  30   18   19 ar
  31   18   44 1
  32   19   20 ar
  33   19   45 1
  34   20   21 ar
  35   20   23 1
  36   21   22 ar
  37   21   46 1
  38   22   47 1
  39   23   29 1
  40   23   37 1
  41   24   25 ar
  42   24   48 1
  43   25   26 ar
  44   26   27 ar
  45   26   30 ar
  46   27   28 ar
  47   27   33 ar
  48   28   49 1
  49   29   34 1
  50   29   50 1
  51   29   51 1
  52   30   31 ar
  53   30   52 1
  54   31   32 ar
  55   31   53 1
  56   32   33 ar
  57   32   54 1
  58   33   55 1
  59   34   35 1
  60   34   56 1
  61   34   57 1
  62   35   36 1
  63   35   58 1
  64   35   59 1
  65   36   37 1
  66   36   60 1
  67   36   61 1
  68   37   62 1
  69   37   63 1

#	End of record

