#	Name: ASD01911311
#	Creating user name:	WinNT
#	Creation time:	15. 06. 2019 19:57

#	Modifying user name:	WinNT
#	Modification time:	15. 06. 2019 19:57

#	Program:	/corina/corina34_cracker 3.40 0067  02.08.2006

@<TRIPOS>MOLECULE
ASD01911311
  30   31    0    0    0
SMALL
NO_CHARGES


@<TRIPOS>ATOM
   1 C1            -0.0167     1.3796     0.0096 C.ar    
   2 C2             0.0021    -0.0041     0.0020 C.ar    
   3 C3             1.2058    -0.6865    -0.0127 C.ar    
   4 C4             2.3967     0.0091    -0.0198 C.ar    
   5 C5             2.3857     1.4065    -0.0127 C.ar    
   6 C6             1.1662     2.0887     0.0021 C.ar    
   7 C7             3.6181     2.1358    -0.0195 C.1     
   8 C8             4.6284     2.7336    -0.0252 C.1     
   9 C9             5.8608     3.4629    -0.0321 C.ar    
  10 N10            5.8496     4.7921    -0.0253 N.ar    
  11 N11            6.9315     5.4827    -0.0311 N.ar    
  12 C12            8.1308     4.9177    -0.0443 C.ar    
  13 C13            8.2465     3.5262    -0.0523 C.ar    
  14 C14            7.0846     2.7775    -0.0402 C.ar    
  15 N15            9.2723     5.7100    -0.0506 N.pl3   
  16 C16           10.5937     5.0899    -0.1756 C.3     
  17 C17            9.1545     7.1654     0.0679 C.3     
  18 H18           -0.9600     1.9055     0.0169 H       
  19 H19           -0.9274    -0.5541     0.0079 H       
  20 H20            1.2128    -1.7665    -0.0182 H       
  21 H21            3.3355    -0.5248    -0.0306 H       
  22 H22            1.1500     3.1686     0.0074 H       
  23 H23            9.2152     3.0490    -0.0630 H       
  24 H24            7.1180     1.6980    -0.0454 H       
  25 H25           10.8614     5.0145    -1.2296 H       
  26 H26           11.3322     5.7003     0.3440 H       
  27 H27           10.5707     4.0934     0.2656 H       
  28 H28            8.6659     7.4149     1.0098 H       
  29 H29           10.1478     7.6135     0.0439 H       
  30 H30            8.5619     7.5507    -0.7619 H       
@<TRIPOS>BOND
   1    1    2 ar
   2    1    6 ar
   3    1   18 1
   4    2    3 ar
   5    2   19 1
   6    3    4 ar
   7    3   20 1
   8    4    5 ar
   9    4   21 1
  10    5    6 ar
  11    5    7 1
  12    6   22 1
  13    7    8 3
  14    8    9 1
  15    9   10 ar
  16    9   14 ar
  17   10   11 ar
  18   11   12 ar
  19   12   13 ar
  20   12   15 1
  21   13   14 ar
  22   13   23 1
  23   14   24 1
  24   15   16 1
  25   15   17 1
  26   16   25 1
  27   16   26 1
  28   16   27 1
  29   17   28 1
  30   17   29 1
  31   17   30 1

#	End of record

