#	Name: ASD01810511
#	Creating user name:	WinNT
#	Creation time:	15. 06. 2019 19:24

#	Modifying user name:	WinNT
#	Modification time:	15. 06. 2019 19:24

#	Program:	/corina/corina34_cracker 3.40 0067  02.08.2006

@<TRIPOS>MOLECULE
ASD01810511
  67   71    0    0    0
SMALL
NO_CHARGES


@<TRIPOS>ATOM
   1 N1            -0.0593     1.4554    -0.2329 N.3     
   2 N2            -2.7394    -2.5726     0.5048 N.am    
   3 C3            -3.5372    -2.9268    -0.4988 C.2     
   4 C4            -3.2543    -2.7131     1.8672 C.3     
   5 S5            -5.0636    -2.8829     1.6309 S.3     
   6 C6            -4.9121    -3.4394    -0.1165 C.3     
   7 C7            -2.7031    -3.9641     2.5396 C.3     
   8 C8            -1.2032    -3.7843     2.7932 C.3     
   9 N9            -0.9875    -2.5946     3.6267 N.3     
  10 C10           -1.4494    -1.3768     2.9483 C.3     
  11 C11           -2.9579    -1.4724     2.6999 C.3     
  12 O12           -3.1844    -2.8440    -1.6562 O.2     
  13 C13           -5.9937    -2.7979    -0.9880 C.3     
  14 C14           -7.3673    -3.3220    -0.5642 C.3     
  15 C15            1.2964     2.0196    -0.2465 C.3     
  16 C16            1.2149     3.5475    -0.2159 C.3     
  17 C17            0.4263     4.0361    -1.4340 C.3     
  18 C18           -0.9647     3.3962    -1.4220 C.3     
  19 C19           -0.8200     1.8727    -1.4176 C.3     
  20 N20            0.2949     5.4942    -1.3795 N.am    
  21 C21            0.7653     6.3914    -2.3355 C.ar    
  22 C22           -0.3062     6.1950    -0.3996 C.2     
  23 N23           -0.2410     7.5107    -0.6777 N.am    
  24 C24            0.4272     7.6705    -1.8893 C.ar    
  25 C25            0.7744     8.7797    -2.6455 C.ar    
  26 C26            1.4533     8.6145    -3.8368 C.ar    
  27 C27            1.7883     7.3461    -4.2793 C.ar    
  28 C28            1.4446     6.2353    -3.5342 C.ar    
  29 O29           -0.8290     5.7125     0.5877 O.2     
  30 C30           -0.0191    -0.0088    -0.1219 C.3     
  31 C31           -1.4301    -0.5395     0.1392 C.3     
  32 C32           -1.3883    -2.0645     0.2547 C.3     
  33 H33           -4.9534    -4.5266    -0.1824 H       
  34 H34           -3.2159    -4.1231     3.4882 H       
  35 H35           -2.8617    -4.8256     1.8910 H       
  36 H36           -0.8136    -4.6633     3.3067 H       
  37 H37           -0.6861    -3.6601     1.8417 H       
  38 H38           -1.4321    -2.6981     4.5265 H       
  39 H39           -1.2384    -0.5098     3.5743 H       
  40 H40           -0.9302    -1.2723     1.9956 H       
  41 H41           -3.2952    -0.5854     2.1638 H       
  42 H42           -3.4800    -1.5416     3.6543 H       
  43 H43           -5.9643    -1.7152    -0.8655 H       
  44 H44           -5.8152    -3.0504    -2.0332 H       
  45 H45           -7.5459    -3.0696     0.4810 H       
  46 H46           -8.1379    -2.8650    -1.1851 H       
  47 H47           -7.3968    -4.4047    -0.6867 H       
  48 H48            1.8450     1.6676     0.6272 H       
  49 H49            1.8131     1.7015    -1.1520 H       
  50 H50            0.7105     3.8668     0.6961 H       
  51 H51            2.2209     3.9662    -0.2417 H       
  52 H52            0.9508     3.7506    -2.3459 H       
  53 H53           -1.5033     3.7132    -0.5290 H       
  54 H54           -1.5159     3.7069    -2.3096 H       
  55 H55           -0.2934     1.5553    -2.3177 H       
  56 H56           -1.8085     1.4141    -1.3946 H       
  57 H57           -0.6005     8.2254    -0.1292 H       
  58 H58            0.5141     9.7707    -2.3039 H       
  59 H59            1.7237     9.4783    -4.4259 H       
  60 H60            2.3189     7.2248    -5.2121 H       
  61 H61            1.7076     5.2474    -3.8826 H       
  62 H62            0.3626    -0.4332    -1.0505 H       
  63 H63            0.6344    -0.2929     0.7029 H       
  64 H64           -1.8118    -0.1151     1.0678 H       
  65 H65           -2.0836    -0.2554    -0.6857 H       
  66 H66           -0.7348    -2.3486     1.0796 H       
  67 H67           -1.0066    -2.4889    -0.6739 H       
@<TRIPOS>BOND
   1    1   30 1
   2    1   15 1
   3    1   19 1
   4    2   32 1
   5    2    3 am
   6    2    4 1
   7    3   12 2
   8    3    6 1
   9    4    5 1
  10    4    7 1
  11    4   11 1
  12    5    6 1
  13    6   13 1
  14    6   33 1
  15    7    8 1
  16    7   34 1
  17    7   35 1
  18    8    9 1
  19    8   36 1
  20    8   37 1
  21    9   10 1
  22    9   38 1
  23   10   11 1
  24   10   39 1
  25   10   40 1
  26   11   41 1
  27   11   42 1
  28   13   14 1
  29   13   43 1
  30   13   44 1
  31   14   45 1
  32   14   46 1
  33   14   47 1
  34   15   16 1
  35   15   48 1
  36   15   49 1
  37   16   17 1
  38   16   50 1
  39   16   51 1
  40   17   18 1
  41   17   20 1
  42   17   52 1
  43   18   19 1
  44   18   53 1
  45   18   54 1
  46   19   55 1
  47   19   56 1
  48   20   21 1
  49   20   22 am
  50   21   24 ar
  51   21   28 ar
  52   22   23 am
  53   22   29 2
  54   23   24 1
  55   23   57 1
  56   24   25 ar
  57   25   26 ar
  58   25   58 1
  59   26   27 ar
  60   26   59 1
  61   27   28 ar
  62   27   60 1
  63   28   61 1
  64   30   31 1
  65   30   62 1
  66   30   63 1
  67   31   32 1
  68   31   64 1
  69   31   65 1
  70   32   66 1
  71   32   67 1

#	End of record

