#	Name: ASD05430291
#	Creating user name:	WinNT
#	Creation time:	15. 06. 2019 21:00

#	Modifying user name:	WinNT
#	Modification time:	15. 06. 2019 21:00

#	Program:	/corina/corina34_cracker 3.40 0067  02.08.2006

@<TRIPOS>MOLECULE
ASD05430291
  70   75    0    0    0
SMALL
NO_CHARGES


@<TRIPOS>ATOM
   1 C1            -1.0438    -0.5355    -0.4469 C.ar    
   2 C2            -0.0104    -0.0083     0.3269 C.ar    
   3 C3            -0.1886     1.1904     1.0057 C.ar    
   4 C4            -1.3873     1.8640     0.9181 C.ar    
   5 C5            -2.4282     1.3412     0.1439 C.ar    
   6 C6            -2.2470     0.1376    -0.5440 C.ar    
   7 C7            -4.8811    -0.1352     0.0989 C.3     
   8 C8            -4.8620     1.3704    -0.0453 C.2     
   9 C9            -3.7098     2.0594     0.0490 C.2     
  10 C10           -6.2881    -0.5928     0.4939 C.3     
  11 C11           -7.1377     0.4311     1.2556 C.3     
  12 N12           -7.2443     1.6453     0.4462 N.pl3   
  13 C13           -6.1394     2.0617    -0.2923 C.2     
  14 N14           -6.2466     3.0071    -1.1693 N.2     
  15 C15           -8.3589     3.5979     1.3639 C.ar    
  16 C16           -9.4050     4.4921     1.4940 C.ar    
  17 C17           -7.2126     3.7605     2.1192 C.ar    
  18 C18           -7.1125     4.8173     3.0047 C.ar    
  19 C19           -8.1584     5.7117     3.1345 C.ar    
  20 C20           -9.3049     5.5489     2.3795 C.ar    
  21 N21            1.2107    -0.6897     0.4203 N.pl3   
  22 C22            1.3811    -2.0043     0.7169 C.2     
  23 C23            2.4584    -0.1569     0.2236 C.2     
  24 C24            3.3427    -1.1552     0.4103 C.2     
  25 N25            2.6591    -2.2697     0.7097 N.2     
  26 C26            4.8412    -1.0408     0.2983 C.3     
  27 C27           -8.4705     2.4423     0.4031 C.3     
  28 C28           -8.6516     2.9724    -1.0232 C.3     
  29 O29           -7.4709     3.6462    -1.4467 O.3     
  30 C30           -7.0172    -1.5364    -0.4646 C.3     
  31 C31           -6.4702    -2.0669     0.8622 C.3     
  32 O32           -0.8658    -1.7088    -1.1103 O.3     
  33 C33           -1.9666    -2.1901    -1.8840 C.3     
  34 C34           -9.6671     1.5682     0.7840 C.3     
  35 O35          -10.8618     2.3509     0.7404 O.3     
  36 S36           -8.0278     7.0948     4.2948 Du      
  37 F37           -8.6190     8.0896     3.1755 F       
  38 F38           -7.4366     6.0999     5.4141 F       
  39 F39           -9.5208     6.7966     4.8183 F       
  40 F40           -6.5348     7.3930     3.7713 F       
  41 F41           -7.9116     8.3250     5.3269 F       
  42 H42            0.6144     1.5952     1.6039 H       
  43 H43           -1.5233     2.7954     1.4475 H       
  44 H44           -3.0482    -0.2696    -1.1429 H       
  45 H45           -4.6025    -0.5945    -0.8495 H       
  46 H46           -4.1716    -0.4353     0.8701 H       
  47 H47           -3.7253     3.1393     0.0551 H       
  48 H48           -8.1321     0.0215     1.4333 H       
  49 H49           -6.6610     0.6665     2.2071 H       
  50 H50          -10.3004     4.3653     0.9036 H       
  51 H51           -6.3954     3.0617     2.0178 H       
  52 H52           -6.2172     4.9440     3.5954 H       
  53 H53          -10.1219     6.2479     2.4807 H       
  54 H54            0.5915    -2.7112     0.9246 H       
  55 H55            2.6880     0.8669    -0.0325 H       
  56 H56            5.2590    -0.7764     1.2697 H       
  57 H57            5.2550    -1.9951    -0.0277 H       
  58 H58            5.0933    -0.2683    -0.4281 H       
  59 H59           -8.8533     2.1389    -1.6960 H       
  60 H60           -9.4922     3.6660    -1.0473 H       
  61 H61           -8.0978    -1.4255    -0.5551 H       
  62 H62           -6.4964    -1.8285    -1.3764 H       
  63 H63           -5.5895    -2.7080     0.8231 H       
  64 H64           -7.1909    -2.3050     1.6445 H       
  65 H65           -1.6921    -3.1314    -2.3600 H       
  66 H66           -2.8262    -2.3493    -1.2330 H       
  67 H67           -2.2212    -1.4567    -2.6491 H       
  68 H68           -9.7499     0.7393     0.0809 H       
  69 H69           -9.5254     1.1772     1.7915 H       
  70 H70          -11.6623     1.8600     0.9711 H       
@<TRIPOS>BOND
   1    1    2 ar
   2    1   32 1
   3    1    6 ar
   4    2    3 ar
   5    2   21 1
   6    3    4 ar
   7    3   42 1
   8    4    5 ar
   9    4   43 1
  10    5    6 ar
  11    5    9 1
  12    6   44 1
  13    7    8 1
  14    7   10 1
  15    7   45 1
  16    7   46 1
  17    8    9 2
  18    8   13 1
  19    9   47 1
  20   10   11 1
  21   10   30 1
  22   10   31 1
  23   11   12 1
  24   11   48 1
  25   11   49 1
  26   12   13 1
  27   12   27 1
  28   13   14 2
  29   14   29 1
  30   15   16 ar
  31   15   17 ar
  32   15   27 1
  33   16   20 ar
  34   16   50 1
  35   17   18 ar
  36   17   51 1
  37   18   19 ar
  38   18   52 1
  39   19   20 ar
  40   19   36 1
  41   20   53 1
  42   21   22 1
  43   21   23 1
  44   22   25 2
  45   22   54 1
  46   23   24 2
  47   23   55 1
  48   24   25 1
  49   24   26 1
  50   26   56 1
  51   26   57 1
  52   26   58 1
  53   27   28 1
  54   27   34 1
  55   28   29 1
  56   28   59 1
  57   28   60 1
  58   30   31 1
  59   30   61 1
  60   30   62 1
  61   31   63 1
  62   31   64 1
  63   32   33 1
  64   33   65 1
  65   33   66 1
  66   33   67 1
  67   34   35 1
  68   34   68 1
  69   34   69 1
  70   35   70 1
  71   36   37 1
  72   36   38 1
  73   36   39 1
  74   36   40 1
  75   36   41 1

#	End of record

