#	Name: ASD01680012
#	Creating user name:	WinNT
#	Creation time:	15. 06. 2019 19:22

#	Modifying user name:	WinNT
#	Modification time:	15. 06. 2019 19:22

#	Program:	/corina/corina34_cracker 3.40 0067  02.08.2006

@<TRIPOS>MOLECULE
ASD01680012
 132  138    0    0    0
SMALL
NO_CHARGES


@<TRIPOS>ATOM
   1 C1            -0.0822     1.2539     0.5125 C.ar    
   2 C2             0.0054     0.0161    -0.1085 C.ar    
   3 C3            -1.1143    -0.5489    -0.6911 C.ar    
   4 C4            -2.3262     0.1146    -0.6583 C.ar    
   5 C5            -2.4258     1.3535    -0.0399 C.ar    
   6 C6            -1.3027     1.9248     0.5537 C.ar    
   7 N7             1.0524     1.8251     1.1015 N.pl3   
   8 S8            -1.4215     3.4966     1.3410 S.3     
   9 C9            -1.8514     3.0656     3.0498 C.3     
  10 C10           -1.9932     4.3443     3.8780 C.3     
  11 N11           -2.3413     3.9952     5.2618 N.3     
  12 N12           -3.6547     2.0251    -0.0078 N.am    
  13 C13           -4.8056     1.3286    -0.0894 C.2     
  14 C14           -6.1025     2.0260     0.0416 C.ar    
  15 O15           -4.7773     0.1268    -0.2707 O.2     
  16 C16           -7.2933     1.3075    -0.0426 C.ar    
  17 C17           -8.5112     1.9726     0.0819 C.ar    
  18 C18           -8.5311     3.3539     0.2900 C.ar    
  19 C19           -7.3473     4.0599     0.3723 C.ar    
  20 C20           -6.1368     3.4061     0.2556 C.ar    
  21 C21           -9.7795     1.2184    -0.0066 C.2     
  22 N22          -10.9568     1.8633     0.1140 N.am    
  23 O23           -9.7606     0.0164    -0.1881 O.2     
  24 C24          -12.1582     1.1716    -0.0875 C.ar    
  25 C25          -12.1802     0.0323    -0.8806 C.ar    
  26 C26          -13.3648    -0.6511    -1.0803 C.ar    
  27 C27          -14.5341    -0.2053    -0.4916 C.ar    
  28 C28          -14.5241     0.9321     0.3031 C.ar    
  29 C29          -13.3318     1.6221     0.5122 C.ar    
  30 S30          -13.3114     3.0669     1.5206 S.3     
  31 C31          -12.9790     2.4043     3.1762 C.3     
  32 C32          -12.9294     3.5535     4.1850 C.3     
  33 N33          -12.6602     3.0169     5.5257 N.3     
  34 N34          -15.7089     1.3825     0.8981 N.pl3   
  35 C35           -1.0124    -1.8931    -1.3648 C.3     
  36 C36           -0.5547    -2.9401    -0.3474 C.3     
  37 C37           -2.3808    -2.2887    -1.9233 C.3     
  38 C38            0.0018    -1.8151    -2.5078 C.3     
  39 C39          -13.3824    -1.8865    -1.9431 C.3     
  40 C40          -11.9723    -2.1612    -2.4692 C.3     
  41 C41          -13.8592    -3.0808    -1.1141 C.3     
  42 C42          -14.3337    -1.6717    -3.1220 C.3     
  43 C43            3.0349     1.4160    -0.2370 C.2     
  44 O44            4.2342     0.8708    -0.4941 O.3     
  45 C45            2.3336     1.1157     1.0627 C.3     
  46 O46            2.5175     2.1475    -1.0476 O.2     
  47 C47            3.2071     1.5758     2.2316 C.3     
  48 O48          -18.1326    -1.2858     1.6637 O.3     
  49 C49          -17.0616    -0.4766     1.6744 C.2     
  50 O50          -16.1786    -0.6538     2.4799 O.2     
  51 C51          -16.9606     0.6528     0.6818 C.3     
  52 C52          -18.1444     1.6038     0.8692 C.3     
  53 C53          -18.1111     2.6643    -0.2011 C.2     
  54 C54            2.5637     1.1659     3.5312 C.2     
  55 C55            1.7609     1.9207     4.2978 C.2     
  56 N56            1.3680     1.2124     5.4006 N.pl3   
  57 C57            1.9225    -0.0475     5.3697 C.ar    
  58 C58            2.6906    -0.1341     4.1944 C.ar    
  59 C59            1.8533    -1.1456     6.2211 C.ar    
  60 C60            2.5397    -2.2982     5.9083 C.ar    
  61 C61            3.3018    -2.3764     4.7505 C.ar    
  62 C62            3.3774    -1.3127     3.8963 C.ar    
  63 C63          -18.6633     2.5550    -1.5535 C.ar    
  64 C64          -18.3960     3.7843    -2.1829 C.ar    
  65 N65          -17.7309     4.5719    -1.2702 N.pl3   
  66 C66          -17.5749     3.8902    -0.0940 C.2     
  67 C67          -19.3365     1.5483    -2.2484 C.ar    
  68 C68          -19.7326     1.7628    -3.5382 C.ar    
  69 C69          -19.4708     2.9741    -4.1641 C.ar    
  70 C70          -18.8091     3.9812    -3.4967 C.ar    
  71 H71            0.9499    -0.5068    -0.1371 H       
  72 H72           -3.1974    -0.3314    -1.1150 H       
  73 H73            0.9902     2.6904     1.5354 H       
  74 H74           -2.7946     2.5194     3.0605 H       
  75 H75           -1.0655     2.4420     3.4759 H       
  76 H76           -1.0500     4.8905     3.8674 H       
  77 H77           -2.7791     4.9679     3.4519 H       
  78 H78           -2.4407     4.8234     5.8296 H       
  79 H79           -3.1784     3.4327     5.2932 H       
  80 H80           -3.6773     2.9915     0.0732 H       
  81 H81           -7.2723     0.2399    -0.2039 H       
  82 H82           -9.4745     3.8707     0.3862 H       
  83 H83           -7.3683     5.1276     0.5329 H       
  84 H84           -5.2145     3.9642     0.3213 H       
  85 H85          -10.9723     2.8064     0.3404 H       
  86 H86          -11.2700    -0.3203    -1.3428 H       
  87 H87          -15.4569    -0.7433    -0.6511 H       
  88 H88          -13.7712     1.7097     3.4554 H       
  89 H89          -12.0223     1.8820     3.1731 H       
  90 H90          -12.1371     4.2481     3.9058 H       
  91 H91          -13.8861     4.0758     4.1880 H       
  92 H92          -12.6226     3.7570     6.2105 H       
  93 H93          -13.3456     2.3221     5.7815 H       
  94 H94          -15.7008     2.1777     1.4535 H       
  95 H95           -1.2772    -2.9957     0.4668 H       
  96 H96           -0.4810    -3.9123    -0.8347 H       
  97 H97            0.4202    -2.6583     0.0504 H       
  98 H98           -2.7069    -1.5427    -2.6481 H       
  99 H99           -2.3071    -3.2609    -2.4106 H       
 100 H100          -3.1033    -2.3442    -1.1090 H       
 101 H101           0.9766    -1.5333    -2.1099 H       
 102 H102           0.0754    -2.7874    -2.9951 H       
 103 H103          -0.3243    -1.0692    -3.2326 H       
 104 H104         -11.2945    -2.3143    -1.6294 H       
 105 H105         -11.9850    -3.0548    -3.0933 H       
 106 H106         -11.6326    -1.3104    -3.0598 H       
 107 H107         -14.8638    -2.8851    -0.7393 H       
 108 H108         -13.8719    -3.9744    -1.7382 H       
 109 H109         -13.1814    -3.2338    -0.2742 H       
 110 H110         -13.9941    -0.8208    -3.7126 H       
 111 H111         -14.3465    -2.5652    -3.7461 H       
 112 H112         -15.3384    -1.4759    -2.7471 H       
 113 H113           4.6449     1.0928    -1.3410 H       
 114 H114           2.1575     0.0429     1.1410 H       
 115 H115           4.1919     1.1154     2.1525 H       
 116 H116           3.3099     2.6606     2.2033 H       
 117 H117         -18.1526    -1.9962     2.3195 H       
 118 H118         -16.9756     0.2491    -0.3306 H       
 119 H119         -19.0762     1.0430     0.7961 H       
 120 H120         -18.0800     2.0752     1.8499 H       
 121 H121           1.4687     2.9367     4.0770 H       
 122 H122           0.7858     1.5480     6.1001 H       
 123 H123           1.2637    -1.0944     7.1246 H       
 124 H124           2.4847    -3.1495     6.5706 H       
 125 H125           3.8344    -3.2872     4.5202 H       
 126 H126           3.9722    -1.3808     2.9974 H       
 127 H127         -17.4222     5.4765    -1.4351 H       
 128 H128         -17.0867     4.2786     0.7876 H       
 129 H129         -19.5429     0.6032    -1.7682 H       
 130 H130         -20.2532     0.9838    -4.0754 H       
 131 H131         -19.7899     3.1286    -5.1842 H       
 132 H132         -18.6100     4.9199    -3.9924 H       
@<TRIPOS>BOND
   1    1    2 ar
   2    1    7 1
   3    1    6 ar
   4    2    3 ar
   5    2   71 1
   6    3    4 ar
   7    3   35 1
   8    4    5 ar
   9    4   72 1
  10    5    6 ar
  11    5   12 1
  12    6    8 1
  13    7   45 1
  14    7   73 1
  15    8    9 1
  16    9   10 1
  17    9   74 1
  18    9   75 1
  19   10   11 1
  20   10   76 1
  21   10   77 1
  22   11   78 1
  23   11   79 1
  24   12   13 am
  25   12   80 1
  26   13   14 1
  27   13   15 2
  28   14   16 ar
  29   14   20 ar
  30   16   17 ar
  31   16   81 1
  32   17   18 ar
  33   17   21 1
  34   18   19 ar
  35   18   82 1
  36   19   20 ar
  37   19   83 1
  38   20   84 1
  39   21   22 am
  40   21   23 2
  41   22   24 1
  42   22   85 1
  43   24   25 ar
  44   24   29 ar
  45   25   26 ar
  46   25   86 1
  47   26   27 ar
  48   26   39 1
  49   27   28 ar
  50   27   87 1
  51   28   29 ar
  52   28   34 1
  53   29   30 1
  54   30   31 1
  55   31   32 1
  56   31   88 1
  57   31   89 1
  58   32   33 1
  59   32   90 1
  60   32   91 1
  61   33   92 1
  62   33   93 1
  63   34   51 1
  64   34   94 1
  65   35   36 1
  66   35   37 1
  67   35   38 1
  68   36   95 1
  69   36   96 1
  70   36   97 1
  71   37   98 1
  72   37   99 1
  73   37  100 1
  74   38  101 1
  75   38  102 1
  76   38  103 1
  77   39   40 1
  78   39   41 1
  79   39   42 1
  80   40  104 1
  81   40  105 1
  82   40  106 1
  83   41  107 1
  84   41  108 1
  85   41  109 1
  86   42  110 1
  87   42  111 1
  88   42  112 1
  89   43   44 1
  90   43   45 1
  91   43   46 2
  92   44  113 1
  93   45   47 1
  94   45  114 1
  95   47   54 1
  96   47  115 1
  97   47  116 1
  98   48   49 1
  99   48  117 1
 100   49   50 2
 101   49   51 1
 102   51   52 1
 103   51  118 1
 104   52   53 1
 105   52  119 1
 106   52  120 1
 107   53   63 1
 108   53   66 2
 109   54   55 2
 110   54   58 1
 111   55   56 1
 112   55  121 1
 113   56   57 1
 114   56  122 1
 115   57   58 ar
 116   57   59 ar
 117   58   62 ar
 118   59   60 ar
 119   59  123 1
 120   60   61 ar
 121   60  124 1
 122   61   62 ar
 123   61  125 1
 124   62  126 1
 125   63   64 ar
 126   63   67 ar
 127   64   65 1
 128   64   70 ar
 129   65   66 1
 130   65  127 1
 131   66  128 1
 132   67   68 ar
 133   67  129 1
 134   68   69 ar
 135   68  130 1
 136   69   70 ar
 137   69  131 1
 138   70  132 1

#	End of record

