#	Name: ASD04530008
#	Creating user name:	WinNT
#	Creation time:	15. 06. 2019 20:49

#	Modifying user name:	WinNT
#	Modification time:	15. 06. 2019 20:49

#	Program:	/corina/corina34_cracker 3.40 0067  02.08.2006

@<TRIPOS>MOLECULE
ASD04530008
  28   29    0    0    0
SMALL
NO_CHARGES


@<TRIPOS>ATOM
   1 C1            -0.0167     1.3818     0.0096 C.ar    
   2 C2             0.0021    -0.0041     0.0020 C.ar    
   3 C3             1.2162    -0.6862    -0.0133 C.ar    
   4 C4             2.4056     0.0198    -0.0209 C.ar    
   5 C5             2.3857     1.4139    -0.0132 C.ar    
   6 C6             1.1679     2.0910     0.0021 C.ar    
   7 C7             3.6587     2.1750    -0.0208 C.2     
   8 C8             3.6934     3.5183    -0.0139 C.2     
   9 S9             5.3798     4.0285    -0.0261 S.3     
  10 C10            5.8925     2.3441    -0.0396 C.2     
  11 N11            4.8481     1.5748    -0.0293 N.2     
  12 N12            7.2075     1.9080    -0.0543 N.pl3   
  13 O13           -1.1670    -0.6990     0.0099 O.3     
  14 C14           -2.3752     0.0640     0.0261 C.3     
  15 O15            1.2324    -2.0460    -0.0203 O.3     
  16 C16            2.5132    -2.6795    -0.0360 C.3     
  17 H17           -0.9598     1.9080     0.0170 H       
  18 H18            3.3479    -0.5077    -0.0324 H       
  19 H19            1.1506     3.1708     0.0081 H       
  20 H20            2.8346     4.1730    -0.0032 H       
  21 H21            7.9323     2.5526    -0.0574 H       
  22 H22            7.4034     0.9580    -0.0614 H       
  23 H23           -2.3991     0.6877     0.9197 H       
  24 H24           -2.4168     0.6972    -0.8601 H       
  25 H25           -3.2311    -0.6109     0.0310 H       
  26 H26            2.3833    -3.7617    -0.0402 H       
  27 H27            3.0580    -2.3755    -0.9298 H       
  28 H28            3.0754    -2.3845     0.8500 H       
@<TRIPOS>BOND
   1    1    2 ar
   2    1    6 ar
   3    1   17 1
   4    2    3 ar
   5    2   13 1
   6    3    4 ar
   7    3   15 1
   8    4    5 ar
   9    4   18 1
  10    5    6 ar
  11    5    7 1
  12    6   19 1
  13    7    8 2
  14    7   11 1
  15    8    9 1
  16    8   20 1
  17    9   10 1
  18   10   11 2
  19   10   12 1
  20   12   21 1
  21   12   22 1
  22   13   14 1
  23   14   23 1
  24   14   24 1
  25   14   25 1
  26   15   16 1
  27   16   26 1
  28   16   27 1
  29   16   28 1

#	End of record

