#	Name: ASD01811796
#	Creating user name:	WinNT
#	Creation time:	15. 06. 2019 19:27

#	Modifying user name:	WinNT
#	Modification time:	15. 06. 2019 19:27

#	Program:	/corina/corina34_cracker 3.40 0067  02.08.2006

@<TRIPOS>MOLECULE
ASD01811796
  68   71    0    0    0
SMALL
NO_CHARGES


@<TRIPOS>ATOM
   1 C1             0.5069     2.0336    -0.0873 C.2     
   2 N2             0.2304     0.7254     0.0717 N.am    
   3 C3             1.2164    -0.2030     0.0656 C.2     
   4 C4             2.5163     0.1519    -0.1003 C.2     
   5 C5             2.8598     1.4931    -0.2690 C.2     
   6 C6             1.8505     2.4537    -0.2647 C.2     
   7 C7            -1.1594     0.2996     0.2548 C.3     
   8 C8             0.8642    -1.6570     0.2469 C.3     
   9 O9            -0.3946     2.8538    -0.0840 O.2     
  10 C10            2.1723     3.8781    -0.4404 C.2     
  11 N11            1.1809     4.7851    -0.5443 N.am    
  12 O12            3.3334     4.2375    -0.4920 O.2     
  13 C13            1.4972     6.1864    -0.8316 C.3     
  14 C14            3.5901    -0.9054    -0.1019 C.3     
  15 C15            4.1900    -1.0141     1.2763 C.ar    
  16 C16            5.1926    -0.1437     1.6628 C.ar    
  17 C17            3.7327    -1.9804     2.1535 C.ar    
  18 C18            4.2797    -2.0821     3.4175 C.ar    
  19 C19            5.2906    -1.2128     3.8072 C.ar    
  20 C20            5.7446    -0.2405     2.9251 C.ar    
  21 C21            0.7052     8.5449    -0.6024 C.3     
  22 C22            0.3748     7.0815    -0.3023 C.3     
  23 C23            1.6330     6.3789    -2.3434 C.3     
  24 C24            1.9633     7.8424    -2.6435 C.3     
  25 C25            0.8410     8.7374    -2.1142 C.3     
  26 O26            0.2480     6.9017     1.1096 O.3     
  27 N27            5.8457    -1.3126     5.0850 N.3     
  28 C28            5.9306    -2.7201     5.5158 C.3     
  29 C29            7.4086    -3.0059     5.8554 C.3     
  30 C30            7.9808    -1.5927     6.1423 C.3     
  31 C31            7.2026    -0.7267     5.1205 C.3     
  32 O32            7.5093    -3.8365     7.0138 O.3     
  33 C33            8.6622    -4.6808     7.0252 C.3     
  34 H34            3.8919     1.7825    -0.4008 H       
  35 H35           -1.8125     1.1719     0.2334 H       
  36 H36           -1.4388    -0.3834    -0.5475 H       
  37 H37           -1.2608    -0.2067     1.2148 H       
  38 H38           -0.2055    -1.7511     0.4336 H       
  39 H39            1.1255    -2.2094    -0.6557 H       
  40 H40            1.4179    -2.0621     1.0939 H       
  41 H41            0.2579     4.5101    -0.4287 H       
  42 H42            2.4353     6.4542    -0.3455 H       
  43 H43            3.1558    -1.8640    -0.3857 H       
  44 H44            4.3672    -0.6330    -0.8160 H       
  45 H45            5.5446     0.6125     0.9767 H       
  46 H46            2.9467    -2.6560     1.8499 H       
  47 H47            3.9216    -2.8365     4.1024 H       
  48 H48            6.5281     0.4392     3.2261 H       
  49 H49           -0.0944     9.1826    -0.2254 H       
  50 H50            1.6433     8.8127    -0.1163 H       
  51 H51           -0.5633     6.8137    -0.7884 H       
  52 H52            2.4326     5.7413    -2.7205 H       
  53 H53            0.6949     6.1111    -2.8295 H       
  54 H54            2.9015     8.1102    -2.1574 H       
  55 H55            2.0601     7.9795    -3.7205 H       
  56 H56           -0.0971     8.4696    -2.6003 H       
  57 H57            1.0763     9.7800    -2.3280 H       
  58 H58           -0.4465     7.4396     1.5138 H       
  59 H59            5.3105    -2.8758     6.3985 H       
  60 H60            5.6021    -3.3753     4.7089 H       
  61 H61            7.9176    -3.4629     5.0067 H       
  62 H62            7.7616    -1.2827     7.1640 H       
  63 H63            9.0526    -1.5584     5.9469 H       
  64 H64            7.6687    -0.7892     4.1372 H       
  65 H65            7.1599     0.3095     5.4560 H       
  66 H66            8.6382    -5.3402     6.1576 H       
  67 H67            9.5623    -4.0670     6.9902 H       
  68 H68            8.6655    -5.2790     7.9363 H       
@<TRIPOS>BOND
   1    1    2 am
   2    1    6 1
   3    1    9 2
   4    2    3 1
   5    2    7 1
   6    3    4 2
   7    3    8 1
   8    4    5 1
   9    4   14 1
  10    5    6 2
  11    5   34 1
  12    6   10 1
  13    7   35 1
  14    7   36 1
  15    7   37 1
  16    8   38 1
  17    8   39 1
  18    8   40 1
  19   10   11 am
  20   10   12 2
  21   11   13 1
  22   11   41 1
  23   13   23 1
  24   13   22 1
  25   13   42 1
  26   14   15 1
  27   14   43 1
  28   14   44 1
  29   15   17 ar
  30   15   16 ar
  31   16   20 ar
  32   16   45 1
  33   17   18 ar
  34   17   46 1
  35   18   19 ar
  36   18   47 1
  37   19   20 ar
  38   19   27 1
  39   20   48 1
  40   21   22 1
  41   21   25 1
  42   21   49 1
  43   21   50 1
  44   22   26 1
  45   22   51 1
  46   23   24 1
  47   23   52 1
  48   23   53 1
  49   24   25 1
  50   24   54 1
  51   24   55 1
  52   25   56 1
  53   25   57 1
  54   26   58 1
  55   27   28 1
  56   27   31 1
  57   28   29 1
  58   28   59 1
  59   28   60 1
  60   29   30 1
  61   29   32 1
  62   29   61 1
  63   30   31 1
  64   30   62 1
  65   30   63 1
  66   31   64 1
  67   31   65 1
  68   32   33 1
  69   33   66 1
  70   33   67 1
  71   33   68 1

#	End of record

