#	Name: ASD09800069
#	Creating user name:	WinNT
#	Creation time:	15. 06. 2019 21:24

#	Modifying user name:	WinNT
#	Modification time:	15. 06. 2019 21:24

#	Program:	/corina/corina34_cracker 3.40 0067  02.08.2006

@<TRIPOS>MOLECULE
ASD09800069
  71   74    0    0    0
SMALL
NO_CHARGES


@<TRIPOS>ATOM
   1 C1             0.2796     1.8741    -1.1447 C.ar    
   2 C2            -0.0720     0.6383    -0.6162 C.ar    
   3 C3             0.7857    -0.0093     0.2508 C.ar    
   4 C4             1.9934     0.5712     0.5935 C.ar    
   5 C5             2.3462     1.8012     0.0697 C.ar    
   6 C6             1.4932     2.4540    -0.7988 C.ar    
   7 S7             0.3409    -1.5767     0.9217 S.o2    
   8 O8             1.2637    -1.8412     1.9694 O.2     
   9 O9            -1.0665    -1.5456     1.1150 O.2     
  10 N10            0.6269    -2.7107    -0.2507 N.am    
  11 C11            1.9997    -2.9935    -0.6770 C.3     
  12 C12            2.7562    -3.6801     0.4620 C.3     
  13 C13            1.9749    -3.9128    -1.8998 C.3     
  14 C14            2.7017    -1.6829    -1.0383 C.3     
  15 N15           -0.5838     2.5298    -2.0271 N.pl3   
  16 C16           -0.6601     3.9140    -2.0220 C.ar    
  17 C17           -0.0717     5.9451    -1.1039 C.ar    
  18 N18           -0.0005     4.6223    -1.1112 N.ar    
  19 C19           -1.4268     4.5850    -2.9776 C.ar    
  20 C20           -1.4737     5.9646    -2.9342 C.ar    
  21 N21           -0.7954     6.6071    -1.9946 N.ar    
  22 C22           -2.1851     3.8210    -4.0323 C.3     
  23 N23            0.6273     6.6536    -0.1411 N.pl3   
  24 C24            0.4906     8.0454    -0.0584 C.ar    
  25 C25           -0.8946    10.0021    -0.1280 C.ar    
  26 C26           -0.7598     8.6304    -0.2094 C.ar    
  27 C27            1.6044     8.8395     0.1801 C.ar    
  28 C28            1.4696    10.2112     0.2625 C.ar    
  29 C29            0.2200    10.7967     0.1062 C.ar    
  30 N30            0.0834    12.1871     0.1888 N.3     
  31 C31            1.3809    12.8297     0.4403 C.3     
  32 C32            1.2020    14.3497     0.4444 C.3     
  33 N33            0.2241    14.7225     1.4760 N.3     
  34 C34           -1.0734    14.0799     1.2245 C.3     
  35 C35           -0.8945    12.5599     1.2204 C.3     
  36 C36            0.0807    16.1819     1.5626 C.3     
  37 H37           -1.0152     0.1848    -0.8828 H       
  38 H38            2.6623     0.0627     1.2721 H       
  39 H39            3.2896     2.2520     0.3399 H       
  40 H40            1.7697     3.4144    -1.2082 H       
  41 H41           -0.1145    -3.1878    -0.6552 H       
  42 H42            2.2269    -4.5867     0.7551 H       
  43 H43            3.7609    -3.9381     0.1272 H       
  44 H44            2.8198    -3.0045     1.3150 H       
  45 H45            1.4359    -3.4237    -2.7112 H       
  46 H46            2.9963    -4.1231    -2.2169 H       
  47 H47            1.4748    -4.8464    -1.6423 H       
  48 H48            2.8876    -1.1082    -0.1310 H       
  49 H49            3.6493    -1.9020    -1.5303 H       
  50 H50            2.0681    -1.1049    -1.7111 H       
  51 H51           -1.1296     2.0162    -2.6430 H       
  52 H52           -2.0568     6.5139    -3.6586 H       
  53 H53           -3.1847     3.5890    -3.6647 H       
  54 H54           -2.2614     4.4266    -4.9353 H       
  55 H55           -1.6575     2.8946    -4.2596 H       
  56 H56            1.2116     6.1862     0.4762 H       
  57 H57           -1.8669    10.4571    -0.2461 H       
  58 H58           -1.6267     8.0124    -0.3909 H       
  59 H59            2.5762     8.3842     0.3016 H       
  60 H60            2.3358    10.8287     0.4487 H       
  61 H61            1.7655    12.5062     1.4075 H       
  62 H62            2.0841    12.5484    -0.3436 H       
  63 H63            2.1577    14.8277     0.6595 H       
  64 H64            0.8433    14.6763    -0.5317 H       
  65 H65           -1.7766    14.3612     2.0083 H       
  66 H66           -1.4580    14.4034     0.2572 H       
  67 H67           -1.8502    12.0818     1.0052 H       
  68 H68           -0.5358    12.2333     2.1965 H       
  69 H69           -0.2583    16.5713     0.6027 H       
  70 H70           -0.6488    16.4302     2.3335 H       
  71 H71            1.0428    16.6271     1.8159 H       
@<TRIPOS>BOND
   1    1    2 ar
   2    1    6 ar
   3    1   15 1
   4    2    3 ar
   5    2   37 1
   6    3    4 ar
   7    3    7 1
   8    4    5 ar
   9    4   38 1
  10    5    6 ar
  11    5   39 1
  12    6   40 1
  13    7    8 2
  14    7    9 2
  15    7   10 am
  16   10   11 1
  17   10   41 1
  18   11   12 1
  19   11   13 1
  20   11   14 1
  21   12   42 1
  22   12   43 1
  23   12   44 1
  24   13   45 1
  25   13   46 1
  26   13   47 1
  27   14   48 1
  28   14   49 1
  29   14   50 1
  30   15   16 1
  31   15   51 1
  32   16   19 ar
  33   16   18 ar
  34   17   18 ar
  35   17   21 ar
  36   17   23 1
  37   19   20 ar
  38   19   22 1
  39   20   21 ar
  40   20   52 1
  41   22   53 1
  42   22   54 1
  43   22   55 1
  44   23   24 1
  45   23   56 1
  46   24   27 ar
  47   24   26 ar
  48   25   26 ar
  49   25   29 ar
  50   25   57 1
  51   26   58 1
  52   27   28 ar
  53   27   59 1
  54   28   29 ar
  55   28   60 1
  56   29   30 1
  57   30   31 1
  58   30   35 1
  59   31   32 1
  60   31   61 1
  61   31   62 1
  62   32   33 1
  63   32   63 1
  64   32   64 1
  65   33   34 1
  66   33   36 1
  67   34   35 1
  68   34   65 1
  69   34   66 1
  70   35   67 1
  71   35   68 1
  72   36   69 1
  73   36   70 1
  74   36   71 1

#	End of record

