#	Name: ASD02320025
#	Creating user name:	WinNT
#	Creation time:	15. 06. 2019 20:20

#	Modifying user name:	WinNT
#	Modification time:	15. 06. 2019 20:20

#	Program:	/corina/corina34_cracker 3.40 0067  02.08.2006

@<TRIPOS>MOLECULE
ASD02320025
  62   64    0    0    0
SMALL
NO_CHARGES


@<TRIPOS>ATOM
   1 C1            -1.2238    -1.3667    -1.3445 C.ar    
   2 C2            -1.4811    -2.2693    -0.3170 C.ar    
   3 C3            -2.5045    -2.0119     0.5770 C.ar    
   4 C4            -3.2743    -0.8628     0.4563 C.ar    
   5 C5            -3.0280     0.0260    -0.5667 C.ar    
   6 C6            -1.9929    -0.2238    -1.4599 C.ar    
   7 C7            -4.3557    -0.6318     1.4821 C.3     
   8 N8            -5.2242     0.4668     1.0464 N.am    
   9 C9            -4.5724     1.6710     0.5057 C.3     
  10 C10           -3.8433     1.2750    -0.7771 C.3     
  11 C11           -6.5660     0.3773     1.1369 C.2     
  12 O12           -7.2574     1.3360     0.8654 O.2     
  13 C13           -9.3691    -2.0394     2.0321 C.ar    
  14 C14           -9.5167    -2.3166     3.3833 C.ar    
  15 C15           -9.8148    -2.9444     1.0888 C.ar    
  16 C16          -10.4101    -4.1305     1.4926 C.ar    
  17 C17          -10.5577    -4.4076     2.8433 C.ar    
  18 C18          -10.1118    -3.5024     3.7869 C.ar    
  19 O19           -9.0774    -1.4258     4.3121 O.3     
  20 S20          -10.1209    -0.3984     4.7266 S.o2    
  21 O21           -9.4452     0.5573     5.5324 O.2     
  22 O22          -10.8358    -0.0544     3.5477 O.2     
  23 O23          -11.1122    -1.1061     5.6393 O.3     
  24 Na24         -10.4196    -1.4530     7.4723 Du      
  25 O25          -10.8494    -5.0214     0.5638 O.3     
  26 S26           -9.8056    -6.0484     0.1489 S.o2    
  27 O27          -10.3561    -6.7576    -0.9526 O.2     
  28 O28           -8.5654    -5.3576     0.0869 O.2     
  29 O29           -9.6827    -7.0510     1.2874 O.3     
  30 Na30         -11.2015    -8.3314     1.4059 Du      
  31 C31           -5.6112     2.7188     0.1990 C.2     
  32 O32           -6.3849     2.5533    -0.7142 O.2     
  33 O33           -5.6769     3.8360     0.9402 O.3     
  34 Na34          -7.0823     5.1594     0.4570 Du      
  35 O35           -0.7316    -3.3972    -0.1930 O.3     
  36 S36            0.4999    -3.2287     0.6854 S.o2    
  37 O37            1.2606    -4.4205     0.5429 O.2     
  38 O38            1.0198    -1.9365     0.4040 O.2     
  39 O39            0.0216    -3.1943     2.1299 O.3     
  40 Na40          -0.5079    -4.9724     2.8498 Du      
  41 O41           -0.2171    -1.6051    -2.2272 O.3     
  42 S42           -0.6440    -2.3995    -3.4533 S.o2    
  43 O43            0.5479    -2.7267    -4.1543 O.2     
  44 O44           -1.5699    -3.3758    -2.9964 O.2     
  45 O45           -1.4260    -1.4535    -4.3532 O.3     
  46 Na46          -0.2908    -0.1466    -5.3348 Du      
  47 C47           -7.2071    -0.9141     1.5755 C.3     
  48 C48           -8.7279    -0.7481     1.5935 C.3     
  49 H49           -2.7066    -2.7106     1.3753 H       
  50 H50           -1.7935     0.4769    -2.2572 H       
  51 H51           -4.9484    -1.5397     1.5949 H       
  52 H52           -3.8997    -0.3761     2.4385 H       
  53 H53           -3.8578     2.0605     1.2308 H       
  54 H54           -3.1827     2.0876    -1.0795 H       
  55 H55           -4.5751     1.0968    -1.5650 H       
  56 H56           -9.7002    -2.7285     0.0369 H       
  57 H57          -11.0215    -5.3309     3.1576 H       
  58 H58          -10.2271    -3.7180     4.8389 H       
  59 H59           -6.9365    -1.7086     0.8802 H       
  60 H60           -6.8579    -1.1718     2.5754 H       
  61 H61           -9.0771    -0.4903     0.5936 H       
  62 H62           -8.9985     0.0465     2.2889 H       
@<TRIPOS>BOND
   1    1    2 ar
   2    1   41 1
   3    1    6 ar
   4    2    3 ar
   5    2   35 1
   6    3    4 ar
   7    3   49 1
   8    4    5 ar
   9    4    7 1
  10    5    6 ar
  11    5   10 1
  12    6   50 1
  13    7    8 1
  14    7   51 1
  15    7   52 1
  16    8    9 1
  17    8   11 am
  18    9   10 1
  19    9   31 1
  20    9   53 1
  21   10   54 1
  22   10   55 1
  23   11   12 2
  24   11   47 1
  25   13   14 ar
  26   13   15 ar
  27   13   48 1
  28   14   19 1
  29   14   18 ar
  30   15   16 ar
  31   15   56 1
  32   16   17 ar
  33   16   25 1
  34   17   18 ar
  35   17   57 1
  36   18   58 1
  37   19   20 1
  38   20   21 2
  39   20   22 2
  40   20   23 1
  41   23   24 1
  42   25   26 1
  43   26   27 2
  44   26   28 2
  45   26   29 1
  46   29   30 1
  47   31   32 2
  48   31   33 1
  49   33   34 1
  50   35   36 1
  51   36   37 2
  52   36   38 2
  53   36   39 1
  54   39   40 1
  55   41   42 1
  56   42   43 2
  57   42   44 2
  58   42   45 1
  59   45   46 1
  60   47   48 1
  61   47   59 1
  62   47   60 1
  63   48   61 1
  64   48   62 1

#	End of record

