#	Name: ASD07930364
#	Creating user name:	WinNT
#	Creation time:	15. 06. 2019 21:12

#	Modifying user name:	WinNT
#	Modification time:	15. 06. 2019 21:12

#	Program:	/corina/corina34_cracker 3.40 0067  02.08.2006

@<TRIPOS>MOLECULE
ASD07930364
  49   50    0    0    0
SMALL
NO_CHARGES


@<TRIPOS>ATOM
   1 N1            -0.0057     1.4467     0.2175 N.pl3   
   2 C2             0.0021    -0.0041     0.0020 C.3     
   3 C3             0.8306    -0.6737     1.1077 C.3     
   4 S4             2.4899     0.0759     1.1072 S.o2    
   5 N5             2.1539     1.7080     1.1107 N.am    
   6 C6             1.1735     2.1400     0.2470 C.2     
   7 C7            -1.4106    -0.5271     0.0446 C.ar    
   8 C8            -2.1695    -0.3775     1.1934 C.ar    
   9 C9             0.6228    -0.3151    -1.3614 C.3     
  10 C10           -3.2517    -1.6315    -1.0241 C.ar    
  11 C11           -4.0087    -1.4859     0.1308 C.ar    
  12 C12           -3.4675    -0.8569     1.2353 C.ar    
  13 O13            3.1487    -0.1563     2.3447 O.2     
  14 O14            3.1459    -0.1516    -0.1326 O.2     
  15 C15           -1.9494    -1.1501    -1.0638 C.ar    
  16 N16           -3.7974    -2.2677    -2.1433 N.pl3   
  17 F17           -1.6421     0.2369     2.2749 F       
  18 C18            2.8670     2.6374     1.9905 C.3     
  19 H19            3.7522     3.0153     1.4789 H       
  20 H20            2.2120     3.4702     2.2465 H       
  21 H21            3.1672     2.1182     2.9006 H       
  22 N22            1.3652     3.1941    -0.5310 N.2     
  23 O23            0.5928     4.6708    -2.1564 O.3     
  24 C24           -0.4828     5.0438    -3.0201 C.3     
  25 C25           -1.7200     5.3713    -2.1816 C.3     
  26 C26           -0.0791     6.2740    -3.8353 C.3     
  27 C27           -0.8010     3.8858    -3.9680 C.3     
  28 C28            0.3974     3.5964    -1.3635 C.2     
  29 O29           -0.6591     2.9931    -1.4053 O.2     
  30 H30           -0.8469     1.9151     0.3351 H       
  31 H31            0.3538    -0.5110     2.0743 H       
  32 H32            0.9100    -1.7429     0.9114 H       
  33 H33            1.6453     0.0615    -1.3895 H       
  34 H34            0.6282    -1.3934    -1.5207 H       
  35 H35            0.0371     0.1651    -2.1453 H       
  36 H36           -5.0198    -1.8637     0.1655 H       
  37 H37           -4.0574    -0.7395     2.1324 H       
  38 H38           -1.3588    -1.2626    -1.9610 H       
  39 H39           -4.7053    -2.6077    -2.1132 H       
  40 H40           -3.2679    -2.3691    -2.9497 H       
  41 H41           -1.4934     6.1963    -1.5063 H       
  42 H42           -2.5405     5.6559    -2.8404 H       
  43 H43           -2.0077     4.4949    -1.6008 H       
  44 H44            0.8024     6.0407    -4.4326 H       
  45 H45           -0.8995     6.5586    -4.4941 H       
  46 H46            0.1476     7.0990    -3.1600 H       
  47 H47           -1.0886     3.0094    -3.3871 H       
  48 H48           -1.6214     4.1703    -4.6267 H       
  49 H49            0.0804     3.6525    -4.5653 H       
@<TRIPOS>BOND
   1    1    2 1
   2    1    6 1
   3    1   30 1
   4    2    3 1
   5    2    7 1
   6    2    9 1
   7    3    4 1
   8    3   31 1
   9    3   32 1
  10    4    5 am
  11    4   13 2
  12    4   14 2
  13    5    6 1
  14    5   18 1
  15    6   22 2
  16    7   15 ar
  17    7    8 ar
  18    8   17 1
  19    8   12 ar
  20    9   33 1
  21    9   34 1
  22    9   35 1
  23   10   11 ar
  24   10   16 1
  25   10   15 ar
  26   11   12 ar
  27   11   36 1
  28   12   37 1
  29   15   38 1
  30   16   39 1
  31   16   40 1
  32   18   19 1
  33   18   20 1
  34   18   21 1
  35   22   28 1
  36   23   24 1
  37   23   28 1
  38   24   25 1
  39   24   26 1
  40   24   27 1
  41   25   41 1
  42   25   42 1
  43   25   43 1
  44   26   44 1
  45   26   45 1
  46   26   46 1
  47   27   47 1
  48   27   48 1
  49   27   49 1
  50   28   29 2

#	End of record

