#	Name: ASD03200056
#	Creating user name:	WinNT
#	Creation time:	15. 06. 2019 20:34

#	Modifying user name:	WinNT
#	Modification time:	15. 06. 2019 20:34

#	Program:	/corina/corina34_cracker 3.40 0067  02.08.2006

@<TRIPOS>MOLECULE
ASD03200056
  53   57    0    0    0
SMALL
NO_CHARGES


@<TRIPOS>ATOM
   1 C1             0.9662    -1.0293    -0.1621 C.3     
   2 N2            -0.0316     0.0364    -0.0040 N.3     
   3 C3             0.3001     0.9105     1.1285 C.3     
   4 C4             1.6484     1.5881     0.8738 C.3     
   5 C5             2.7278     0.5163     0.6990 C.3     
   6 C6             2.3344    -0.4096    -0.4553 C.3     
   7 C7            -1.3129    -0.4952     0.1338 C.ar    
   8 C8            -2.0182    -0.3608     1.3272 C.ar    
   9 C9            -3.2847    -0.9008     1.4239 C.ar    
  10 N10           -3.8306    -1.5387     0.4059 N.ar    
  11 C11           -3.1994    -1.6899    -0.7434 C.ar    
  12 C12           -1.9274    -1.1733    -0.9258 C.ar    
  13 N13           -1.2614    -1.3365    -2.1479 N.am    
  14 C14           -1.4472    -2.4579    -2.8721 C.2     
  15 C15           -0.8523    -2.5758    -4.2047 C.2     
  16 O16           -2.1099    -3.3731    -2.4181 O.2     
  17 C17           -1.0053    -3.6937    -4.9924 C.2     
  18 S18           -0.1372    -3.4233    -6.5013 S.3     
  19 C19            0.3575    -1.8293    -5.9432 C.2     
  20 N20           -0.1207    -1.6047    -4.7583 N.2     
  21 C21            1.1857    -0.8880    -6.7097 C.2     
  22 N22           -1.7159    -4.8298    -4.6583 N.pl3   
  23 C23            1.5992     0.3645    -6.3057 C.2     
  24 N24            1.9896     2.4462     2.0163 N.3     
  25 N25            1.7064    -1.0864    -7.9706 N.pl3   
  26 C26            2.4097     0.0437    -8.2954 C.2     
  27 N27            2.3292     0.8968    -7.2802 N.2     
  28 C28            1.6307    -2.1305    -8.8439 C.2     
  29 C29            2.2474    -2.0695   -10.0439 C.2     
  30 C30            2.9763    -0.9257   -10.4064 C.2     
  31 C31            3.0579     0.1236    -9.5430 C.2     
  32 H32            1.0216    -1.6141     0.7561 H       
  33 H33            0.6767    -1.6781    -0.9887 H       
  34 H34           -0.4733     1.6707     1.2392 H       
  35 H35            0.3586     0.3167     2.0406 H       
  36 H36            1.5865     2.1932    -0.0308 H       
  37 H37            3.6818     0.9933     0.4744 H       
  38 H38            2.8170    -0.0640     1.6173 H       
  39 H39            3.0777    -1.2003    -0.5571 H       
  40 H40            2.2833     0.1640    -1.3808 H       
  41 H41           -1.5795     0.1588     2.1662 H       
  42 H42           -3.8369    -0.8001     2.3466 H       
  43 H43           -3.6818    -2.2191    -1.5518 H       
  44 H44           -0.6666    -0.6425    -2.4727 H       
  45 H45           -2.1634    -4.8870    -3.7996 H       
  46 H46           -1.7675    -5.5706    -5.2823 H       
  47 H47            1.3689     0.8323    -5.3599 H       
  48 H48            2.8766     2.9050     1.8717 H       
  49 H49            1.2592     3.1191     2.1940 H       
  50 H50            1.0729    -3.0149    -8.5734 H       
  51 H51            2.1799    -2.9035   -10.7268 H       
  52 H52            3.4695    -0.8783   -11.3660 H       
  53 H53            3.6157     1.0085    -9.8117 H       
@<TRIPOS>BOND
   1    1    2 1
   2    1    6 1
   3    1   32 1
   4    1   33 1
   5    2    3 1
   6    2    7 1
   7    3    4 1
   8    3   34 1
   9    3   35 1
  10    4    5 1
  11    4   24 1
  12    4   36 1
  13    5    6 1
  14    5   37 1
  15    5   38 1
  16    6   39 1
  17    6   40 1
  18    7    8 ar
  19    7   12 ar
  20    8    9 ar
  21    8   41 1
  22    9   10 ar
  23    9   42 1
  24   10   11 ar
  25   11   12 ar
  26   11   43 1
  27   12   13 1
  28   13   14 am
  29   13   44 1
  30   14   15 1
  31   14   16 2
  32   15   17 2
  33   15   20 1
  34   17   18 1
  35   17   22 1
  36   18   19 1
  37   19   20 2
  38   19   21 1
  39   21   25 1
  40   21   23 2
  41   22   45 1
  42   22   46 1
  43   23   27 1
  44   23   47 1
  45   24   48 1
  46   24   49 1
  47   25   26 1
  48   25   28 1
  49   26   27 2
  50   26   31 1
  51   28   29 2
  52   28   50 1
  53   29   30 1
  54   29   51 1
  55   30   31 2
  56   30   52 1
  57   31   53 1

#	End of record

