#	Name: ASD04880072
#	Creating user name:	WinNT
#	Creation time:	15. 06. 2019 20:52

#	Modifying user name:	WinNT
#	Modification time:	15. 06. 2019 20:52

#	Program:	/corina/corina34_cracker 3.40 0067  02.08.2006

@<TRIPOS>MOLECULE
ASD04880072
  41   43    0    0    0
SMALL
NO_CHARGES


@<TRIPOS>ATOM
   1 C1            -0.0144     1.2121     0.0087 C.2     
   2 O2             0.0441    -0.0026    -0.0116 O.2     
   3 C3             1.2257     2.0109    -0.0176 C.ar    
   4 C4             2.4704     1.3782     0.0698 C.ar    
   5 C5             3.6294     2.1333     0.0446 C.ar    
   6 C6             3.5575     3.5136    -0.0666 C.ar    
   7 C7             2.3239     4.1451    -0.1536 C.ar    
   8 C8             1.1616     3.4018    -0.1357 C.ar    
   9 F9             2.2618     5.4904    -0.2612 F       
  10 F10            4.6920     4.2468    -0.0899 F       
  11 F11            4.8328     1.5250     0.1288 F       
  12 F12            2.5404     0.0335     0.1790 F       
  13 N13           -1.2123     1.8284     0.0496 N.am    
  14 N14           -1.4136     3.2003     0.1879 N.2     
  15 C15           -2.6532     3.5517     0.2005 C.2     
  16 C16           -3.5271     2.3262     0.0568 C.3     
  17 C17           -2.5210     1.1632    -0.0509 C.3     
  18 C18           -3.1438     4.9354     0.3350 C.ar    
  19 C19           -2.2367     5.9911     0.4617 C.ar    
  20 C20           -2.7020     7.2862     0.5869 C.ar    
  21 C21           -4.0728     7.5374     0.5866 C.ar    
  22 C22           -4.9732     6.4900     0.4614 C.ar    
  23 C23           -4.5163     5.1952     0.3302 C.ar    
  24 O24           -4.5284     8.8122     0.7099 O.3     
  25 C25           -5.9453     8.9983     0.7020 C.3     
  26 O26           -1.8222     8.3158     0.7109 O.3     
  27 C27           -0.4319     7.9855     0.7038 C.3     
  28 H28            0.2034     3.8947    -0.2083 H       
  29 H29           -4.1640     2.2059     0.9331 H       
  30 H30           -4.1298     2.3906    -0.8491 H       
  31 H31           -2.6204     0.6551    -1.0100 H       
  32 H32           -2.6590     0.4618     0.7720 H       
  33 H33           -1.1746     5.7951     0.4621 H       
  34 H34           -6.0347     6.6892     0.4620 H       
  35 H35           -5.2196     4.3820     0.2283 H       
  36 H36           -6.1730    10.0590     0.8075 H       
  37 H37           -6.3548     8.6306    -0.2388 H       
  38 H38           -6.3887     8.4472     1.5314 H       
  39 H39            0.1584     8.8957     0.8097 H       
  40 H40           -0.2141     7.3126     1.5332 H       
  41 H41           -0.1795     7.4962    -0.2370 H       
@<TRIPOS>BOND
   1    1    2 2
   2    1    3 1
   3    1   13 am
   4    3    4 ar
   5    3    8 ar
   6    4    5 ar
   7    4   12 1
   8    5    6 ar
   9    5   11 1
  10    6    7 ar
  11    6   10 1
  12    7    8 ar
  13    7    9 1
  14    8   28 1
  15   13   14 1
  16   13   17 1
  17   14   15 2
  18   15   16 1
  19   15   18 1
  20   16   17 1
  21   16   29 1
  22   16   30 1
  23   17   31 1
  24   17   32 1
  25   18   19 ar
  26   18   23 ar
  27   19   20 ar
  28   19   33 1
  29   20   21 ar
  30   20   26 1
  31   21   22 ar
  32   21   24 1
  33   22   23 ar
  34   22   34 1
  35   23   35 1
  36   24   25 1
  37   25   36 1
  38   25   37 1
  39   25   38 1
  40   26   27 1
  41   27   39 1
  42   27   40 1
  43   27   41 1

#	End of record

