#	Name: ASD01903175
#	Creating user name:	WinNT
#	Creation time:	15. 06. 2019 19:54

#	Modifying user name:	WinNT
#	Modification time:	15. 06. 2019 19:54

#	Program:	/corina/corina34_cracker 3.40 0067  02.08.2006

@<TRIPOS>MOLECULE
ASD01903175
  30   32    0    0    0
SMALL
NO_CHARGES


@<TRIPOS>ATOM
   1 S1            -0.0242     1.7576    -0.0297 S.3     
   2 C2             0.0013    -0.0032    -0.0096 C.2     
   3 N3             1.2320    -0.4153    -0.0142 N.2     
   4 C4             2.1769     0.5141    -0.0321 C.2     
   5 C5             1.7377     1.7832    -0.0434 C.2     
   6 N6            -1.1185    -0.8216     0.0090 N.pl3   
   7 C7            -2.3868    -0.2624     0.1294 C.ar    
   8 N8            -2.5111     1.0375     0.3307 N.ar    
   9 C9            -3.7042     1.6109     0.4512 C.ar    
  10 C10           -4.8681     0.8505     0.3683 C.ar    
  11 C11           -4.7700    -0.5172     0.1575 C.ar    
  12 C12           -3.5122    -1.0790     0.0307 C.ar    
  13 C13            3.6232     0.1751    -0.0387 C.2     
  14 C14            4.6407     0.8841    -0.7054 C.2     
  15 N15            5.7763     0.2799    -0.4738 N.2     
  16 N16            5.5307    -0.8302     0.3435 N.pl3   
  17 C17            4.2071    -0.8760     0.6048 C.2     
  18 C18            2.6029     3.0170    -0.0642 C.3     
  19 C19           -3.7936     3.0235     0.6686 C.1     
  20 N20           -3.8645     4.1440     0.8411 N.1     
  21 H21           -1.0174    -1.7837    -0.0619 H       
  22 H22           -5.8357     1.3201     0.4674 H       
  23 H23           -5.6569    -1.1297     0.0897 H       
  24 H24           -3.4031    -2.1407    -0.1341 H       
  25 H25            4.5061     1.7725    -1.3046 H       
  26 H26            6.1969    -1.4559     0.6686 H       
  27 H27            3.7013    -1.6151     1.2083 H       
  28 H28            2.8037     3.3026    -1.0967 H       
  29 H29            2.0867     3.8313     0.4442 H       
  30 H30            3.5441     2.8094     0.4450 H       
@<TRIPOS>BOND
   1    1    2 1
   2    1    5 1
   3    2    3 2
   4    2    6 1
   5    3    4 1
   6    4    5 2
   7    4   13 1
   8    5   18 1
   9    6    7 1
  10    6   21 1
  11    7    8 ar
  12    7   12 ar
  13    8    9 ar
  14    9   10 ar
  15    9   19 1
  16   10   11 ar
  17   10   22 1
  18   11   12 ar
  19   11   23 1
  20   12   24 1
  21   13   14 1
  22   13   17 2
  23   14   15 2
  24   14   25 1
  25   15   16 1
  26   16   17 1
  27   16   26 1
  28   17   27 1
  29   18   28 1
  30   18   29 1
  31   18   30 1
  32   19   20 3

#	End of record

