#	Name: ASD03331813
#	Creating user name:	WinNT
#	Creation time:	15. 06. 2019 20:39

#	Modifying user name:	WinNT
#	Modification time:	15. 06. 2019 20:39

#	Program:	/corina/corina34_cracker 3.40 0067  02.08.2006

@<TRIPOS>MOLECULE
ASD03331813
  57   59    0    0    0
SMALL
NO_CHARGES


@<TRIPOS>ATOM
   1 C1            -0.0220     1.3623    -0.0720 C.2     
   2 N2            -0.0074    -0.0012    -0.1310 N.pl3   
   3 C3            -1.2881    -0.4299     0.0177 C.2     
   4 N4            -2.0663     0.6200     0.1600 N.2     
   5 C5            -1.3107     1.7415     0.1117 C.2     
   6 C6             1.2138     2.2162    -0.1915 C.3     
   7 N7             2.3881     1.3464     0.0025 N.3     
   8 C8             2.3094     0.1502    -0.8476 C.3     
   9 C9             1.2135    -0.7881    -0.3256 C.3     
  10 C10            3.6353     2.0837    -0.2404 C.3     
  11 C11           -1.8009     3.1260     0.2310 C.2     
  12 O12           -1.0186     4.0553     0.1718 O.2     
  13 N13           -3.1163     3.3623     0.4056 N.am    
  14 C14           -3.6037     4.7388     0.5242 C.3     
  15 C15           -4.9000     4.7482     1.2926 C.2     
  16 C16           -3.8343     5.3202    -0.8721 C.3     
  17 C17           -2.4969     5.4264    -1.6077 C.3     
  18 O18           -5.3704     3.7076     1.7011 O.2     
  19 N19           -5.5366     5.9130     1.5260 N.am    
  20 C20           -6.7968     5.9221     2.2731 C.3     
  21 C21           -1.7321    -1.8405     0.0185 C.ar    
  22 C22           -2.8361    -2.2290    -0.7450 C.ar    
  23 C23           -3.2450    -3.5494    -0.7396 C.ar    
  24 C24           -2.5631    -4.4840     0.0196 C.ar    
  25 C25           -1.4682    -4.1034     0.7780 C.ar    
  26 C26           -1.0469    -2.7903     0.7772 C.ar    
  27 Cl27          -3.0825    -6.1405     0.0221 Cl      
  28 F28           -3.5021    -1.3166    -1.4859 F       
  29 C29           -2.7409     5.8897    -3.0453 C.3     
  30 C30           -1.5998     6.4377    -0.8912 C.3     
  31 H31            1.2524     2.6723    -1.1808 H       
  32 H32            1.2004     2.9931     0.5729 H       
  33 H33            2.0755     0.4470    -1.8699 H       
  34 H34            3.2679    -0.3686    -0.8325 H       
  35 H35            1.5246    -1.2250     0.6233 H       
  36 H36            1.0295    -1.5790    -1.0526 H       
  37 H37            3.7028     2.9218     0.4532 H       
  38 H38            4.4857     1.4185    -0.0904 H       
  39 H39            3.6427     2.4578    -1.2641 H       
  40 H40           -3.7402     2.6211     0.4528 H       
  41 H41           -2.8645     5.3419     1.0513 H       
  42 H42           -4.5056     4.6680    -1.4309 H       
  43 H43           -4.2802     6.3109    -0.7841 H       
  44 H44           -2.0095     4.4515    -1.6179 H       
  45 H45           -5.1604     6.7452     1.1994 H       
  46 H46           -7.1595     6.9462     2.3613 H       
  47 H47           -7.5361     5.3190     1.7459 H       
  48 H48           -6.6325     5.5079     3.2678 H       
  49 H49           -4.0982    -3.8520    -1.3287 H       
  50 H50           -0.9407    -4.8378     1.3686 H       
  51 H51           -0.1930    -2.4959     1.3693 H       
  52 H52           -3.2284     6.8645    -3.0351 H       
  53 H53           -1.7881     5.9653    -3.5693 H       
  54 H54           -3.3801     5.1692    -3.5557 H       
  55 H55           -1.4260     6.1076     0.1329 H       
  56 H56           -0.6470     6.5133    -1.4152 H       
  57 H57           -2.0872     7.4125    -0.8810 H       
@<TRIPOS>BOND
   1    1    2 1
   2    1    6 1
   3    1    5 2
   4    2    3 1
   5    2    9 1
   6    3    4 2
   7    3   21 1
   8    4    5 1
   9    5   11 1
  10    6    7 1
  11    6   31 1
  12    6   32 1
  13    7    8 1
  14    7   10 1
  15    8    9 1
  16    8   33 1
  17    8   34 1
  18    9   35 1
  19    9   36 1
  20   10   37 1
  21   10   38 1
  22   10   39 1
  23   11   12 2
  24   11   13 am
  25   13   14 1
  26   13   40 1
  27   14   15 1
  28   14   16 1
  29   14   41 1
  30   15   18 2
  31   15   19 am
  32   16   17 1
  33   16   42 1
  34   16   43 1
  35   17   29 1
  36   17   30 1
  37   17   44 1
  38   19   20 1
  39   19   45 1
  40   20   46 1
  41   20   47 1
  42   20   48 1
  43   21   22 ar
  44   21   26 ar
  45   22   23 ar
  46   22   28 1
  47   23   24 ar
  48   23   49 1
  49   24   25 ar
  50   24   27 1
  51   25   26 ar
  52   25   50 1
  53   26   51 1
  54   29   52 1
  55   29   53 1
  56   29   54 1
  57   30   55 1
  58   30   56 1
  59   30   57 1

#	End of record

