#	Name: ASD01914086
#	Creating user name:	WinNT
#	Creation time:	15. 06. 2019 20:02

#	Modifying user name:	WinNT
#	Modification time:	15. 06. 2019 20:02

#	Program:	/corina/corina34_cracker 3.40 0067  02.08.2006

@<TRIPOS>MOLECULE
ASD01914086
  50   52    0    0    0
SMALL
NO_CHARGES


@<TRIPOS>ATOM
   1 C1            -0.0167     1.3767     0.0096 C.ar    
   2 C2             0.0021    -0.0041     0.0020 C.ar    
   3 C3             2.3086    -0.0377    -0.0197 C.ar    
   4 C4             2.3652     1.3499    -0.0133 C.ar    
   5 O5             3.4589    -0.7570    -0.0341 O.3     
   6 C6             3.3339    -2.1805    -0.0401 C.3     
   7 C7             4.7052    -2.8052    -0.0561 C.ar    
   8 N8             4.8195    -4.1195    -0.0638 N.ar    
   9 C9             5.9938    -4.7155    -0.0778 C.ar    
  10 C10            7.1701    -3.9654    -0.0845 C.ar    
  11 C11            7.0812    -2.5680    -0.0767 C.ar    
  12 C12            5.8237    -1.9910    -0.0681 C.ar    
  13 C13            8.4883    -4.6346    -0.0993 C.2     
  14 N14            8.5608    -5.9804    -0.1063 N.am    
  15 O15            9.5068    -3.9711    -0.1051 O.2     
  16 N16            1.1440    -0.6648    -0.0120 N.ar    
  17 C17            9.8670    -6.6436    -0.1209 C.3     
  18 C18            1.1844     2.0720     0.0019 C.ar    
  19 C19            9.7352    -8.0430     0.4833 C.3     
  20 C20           11.0994    -8.7356     0.4681 C.3     
  21 C21           10.9676   -10.1351     1.0722 C.3     
  22 C22           10.4686   -10.0231     2.5142 C.3     
  23 C23            9.1044    -9.3305     2.5295 C.3     
  24 C24            9.2362    -7.9311     1.9253 C.3     
  25 C25           10.3660    -6.7555    -1.5629 C.3     
  26 H26           -0.9559     1.9098     0.0170 H       
  27 H27           -0.9298    -0.5500     0.0080 H       
  28 H28            3.3178     1.8587    -0.0196 H       
  29 H29            2.7986    -2.5020     0.8533 H       
  30 H30            2.7819    -2.4931    -0.9266 H       
  31 H31            6.0466    -5.7942    -0.0837 H       
  32 H32            7.9713    -1.9563    -0.0816 H       
  33 H33            5.7165    -0.9163    -0.0619 H       
  34 H34            7.7480    -6.5099    -0.1017 H       
  35 H35           10.5772    -6.0602     0.4651 H       
  36 H36            1.1975     3.1519     0.0069 H       
  37 H37            9.0250    -8.6264    -0.1027 H       
  38 H38           11.4549    -8.8154    -0.5592 H       
  39 H39           11.8096    -8.1523     1.0541 H       
  40 H40           10.2574   -10.7184     0.4862 H       
  41 H41           11.9395   -10.6285     1.0614 H       
  42 H42           10.3747   -11.0201     2.9447 H       
  43 H43           11.1788    -9.4398     3.1002 H       
  44 H44            8.3942    -9.9139     1.9435 H       
  45 H45            8.7489    -9.2508     3.5568 H       
  46 H46            9.9464    -7.3477     2.5113 H       
  47 H47            8.2643    -7.4376     1.9362 H       
  48 H48           10.4599    -5.7585    -1.9933 H       
  49 H49           11.3379    -7.2490    -1.5737 H       
  50 H50            9.6558    -7.3389    -2.1489 H       
@<TRIPOS>BOND
   1    1    2 ar
   2    1   18 ar
   3    1   26 1
   4    2   16 ar
   5    2   27 1
   6    3    4 ar
   7    3    5 1
   8    3   16 ar
   9    4   18 ar
  10    4   28 1
  11    5    6 1
  12    6    7 1
  13    6   29 1
  14    6   30 1
  15    7    8 ar
  16    7   12 ar
  17    8    9 ar
  18    9   10 ar
  19    9   31 1
  20   10   11 ar
  21   10   13 1
  22   11   12 ar
  23   11   32 1
  24   12   33 1
  25   13   14 am
  26   13   15 2
  27   14   17 1
  28   14   34 1
  29   17   19 1
  30   17   25 1
  31   17   35 1
  32   18   36 1
  33   19   20 1
  34   19   24 1
  35   19   37 1
  36   20   21 1
  37   20   38 1
  38   20   39 1
  39   21   22 1
  40   21   40 1
  41   21   41 1
  42   22   23 1
  43   22   42 1
  44   22   43 1
  45   23   24 1
  46   23   44 1
  47   23   45 1
  48   24   46 1
  49   24   47 1
  50   25   48 1
  51   25   49 1
  52   25   50 1

#	End of record

