#	Name: ASD03430663
#	Creating user name:	WinNT
#	Creation time:	15. 06. 2019 20:41

#	Modifying user name:	WinNT
#	Modification time:	15. 06. 2019 20:41

#	Program:	/corina/corina34_cracker 3.40 0067  02.08.2006

@<TRIPOS>MOLECULE
ASD03430663
  34   38    0    0    0
SMALL
NO_CHARGES


@<TRIPOS>ATOM
   1 C1            -0.0166     1.3733     0.0096 C.ar    
   2 C2             0.0021    -0.0041     0.0020 C.ar    
   3 C3             1.2043    -0.6793    -0.0026 C.ar    
   4 C4             2.4067     0.0233    -0.0093 C.ar    
   5 C5             2.3789     1.4127    -0.0031 C.ar    
   6 C6             1.1695     2.0975     0.0022 C.ar    
   7 O7             3.4730    -0.8260    -0.0344 O.3     
   8 C8             1.5607    -2.1410     0.0109 C.3     
   9 C9             3.0489    -2.1360     0.3881 C.3     
  10 C10            0.4455    -3.8516    -1.0621 C.ar    
  11 C11            1.3236    -2.8005    -1.3153 C.ar    
  12 C12            0.7381    -2.9206     0.9959 C.2     
  13 N13            0.1228    -3.8948     0.2963 N.am    
  14 O14            0.6456    -2.7144     2.1875 O.2     
  15 C15            1.7808    -2.5616    -2.5916 C.ar    
  16 C16            1.3701    -3.3693    -3.6376 C.ar    
  17 C17            0.4994    -4.4162    -3.3978 C.ar    
  18 C18            0.0374    -4.6590    -2.1206 C.ar    
  19 C19           -1.1519     2.3777     0.0376 C.3     
  20 C20           -0.4178     3.6791     0.4389 C.3     
  21 O21            0.9264     3.4376    -0.0104 O.3     
  22 H22           -0.9263    -0.5559     0.0000 H       
  23 H23            3.3064     1.9659    -0.0020 H       
  24 H24            3.5885    -2.9116    -0.1553 H       
  25 H25            3.1759    -2.2558     1.4640 H       
  26 H26           -0.4748    -4.5495     0.6903 H       
  27 H27            2.4604    -1.7429    -2.7769 H       
  28 H28            1.7286    -3.1821    -4.6391 H       
  29 H29            0.1792    -5.0466    -4.2141 H       
  30 H30           -0.6430    -5.4784    -1.9412 H       
  31 H31           -1.6092     2.4762    -0.9469 H       
  32 H32           -1.8960     2.1038     0.7855 H       
  33 H33           -0.8479     4.5391    -0.0744 H       
  34 H34           -0.4443     3.8199     1.5194 H       
@<TRIPOS>BOND
   1    1    2 ar
   2    1    6 ar
   3    1   19 1
   4    2    3 ar
   5    2   22 1
   6    3    4 ar
   7    3    8 1
   8    4    5 ar
   9    4    7 1
  10    5    6 ar
  11    5   23 1
  12    6   21 1
  13    7    9 1
  14    8    9 1
  15    8   11 1
  16    8   12 1
  17    9   24 1
  18    9   25 1
  19   10   11 ar
  20   10   13 1
  21   10   18 ar
  22   11   15 ar
  23   12   13 am
  24   12   14 2
  25   13   26 1
  26   15   16 ar
  27   15   27 1
  28   16   17 ar
  29   16   28 1
  30   17   18 ar
  31   17   29 1
  32   18   30 1
  33   19   20 1
  34   19   31 1
  35   19   32 1
  36   20   21 1
  37   20   33 1
  38   20   34 1

#	End of record

