#	Name: ASD00840695
#	Creating user name:	WinNT
#	Creation time:	15. 06. 2019 18:39

#	Modifying user name:	WinNT
#	Modification time:	15. 06. 2019 18:39

#	Program:	/corina/corina34_cracker 3.40 0067  02.08.2006

@<TRIPOS>MOLECULE
ASD00840695
  88   93    0    0    0
SMALL
NO_CHARGES


@<TRIPOS>ATOM
   1 N1             1.0962     1.4614    -0.7263 N.ar    
   2 C2             1.3508     0.1687    -0.8409 C.ar    
   3 C3             1.2565    -0.6716     0.2613 C.ar    
   4 C4             0.8919    -0.1385     1.4851 C.ar    
   5 C5             0.6331     1.2232     1.5635 C.ar    
   6 C6             0.7464     1.9987     0.4271 C.ar    
   7 C7             1.5470    -2.1441     0.1259 C.3     
   8 C8             1.2505    -2.8651     1.4236 C.2     
   9 C9             0.7326    -2.7468    -1.0207 C.3     
  10 C10           -0.7301    -2.4546    -0.8057 C.2     
  11 N11           -1.6509    -2.9728    -1.6423 N.am    
  12 O12           -1.0786    -1.7530     0.1202 O.2     
  13 C13           -3.0714    -2.6123    -1.5183 C.3     
  14 C14           -3.5826    -2.1677    -2.8928 C.3     
  15 N15           -3.2914    -3.2140    -3.8819 N.3     
  16 C16           -1.8443    -3.4180    -4.0314 C.3     
  17 C17           -1.2610    -3.9092    -2.7074 C.3     
  18 N18           -3.9094    -2.9075    -5.1619 N.3     
  19 C19           -3.6180    -3.9542    -6.1514 C.3     
  20 C20           -4.3496    -3.6357    -7.4574 C.3     
  21 N21           -3.9210    -2.3181    -7.9471 N.3     
  22 C22           -4.2124    -1.2713    -6.9576 C.3     
  23 C23           -3.4808    -1.5899    -5.6516 C.3     
  24 H24           -2.9417    -2.3236    -8.1900 H       
  25 O25            0.1735    -2.9389     1.9764 O.2     
  26 N26            2.4035    -3.4083     1.8476 N.am    
  27 C27            3.0252    -2.3749    -0.0917 C.ar    
  28 C28            3.4633    -3.1417     0.9853 C.ar    
  29 C29            3.8924    -1.9833    -1.0800 C.ar    
  30 C30            5.2395    -2.3561    -1.0118 C.ar    
  31 C31            5.6872    -3.1269     0.0680 C.ar    
  32 C32            4.8056    -3.5151     1.0540 C.ar    
  33 F33            6.9857    -3.4919     0.1430 F       
  34 C34            2.2481    -5.9790     2.8181 C.ar    
  35 C35            0.9950    -6.3682     2.3671 C.ar    
  36 C36            3.2628    -6.9103     2.9320 C.ar    
  37 C37            3.0325    -8.2307     2.5969 C.ar    
  38 C38            1.7807    -8.6250     2.1453 C.ar    
  39 C39            0.7613    -7.6929     2.0306 C.ar    
  40 O40            1.5547    -9.9240     1.8162 O.3     
  41 O41           -0.0025    -5.4521     2.2557 O.3     
  42 C42           -1.2666    -5.9234     1.7848 C.3     
  43 C43            2.6506   -10.8297     1.9595 C.3     
  44 C44            6.1528    -1.9529    -2.0384 C.1     
  45 N45            6.8773    -1.6331    -2.8529 N.1     
  46 S46            2.5480    -4.2945     3.2391 S.o2    
  47 O47            3.9130    -4.2145     3.6259 O.2     
  48 O48            1.4765    -3.8948     4.0825 O.2     
  49 O49            1.7069    -0.3417    -2.0465 O.3     
  50 C50            2.2187    -0.1662    -4.4019 C.3     
  51 C51            1.6781     0.5501    -3.1627 C.3     
  52 H52            0.8101    -0.7675     2.3592 H       
  53 H53            0.3459     1.6709     2.5034 H       
  54 H54            0.5466     3.0586     0.4828 H       
  55 H55            1.0556    -2.3089    -1.9651 H       
  56 H56            0.8874    -3.8254    -1.0485 H       
  57 H57           -3.6404    -3.4776    -1.1783 H       
  58 H58           -3.1809    -1.7953    -0.8051 H       
  59 H59           -4.6589    -2.0023    -2.8445 H       
  60 H60           -3.0848    -1.2429    -3.1843 H       
  61 H61           -1.6599    -4.1594    -4.8089 H       
  62 H62           -1.3707    -2.4758    -4.3070 H       
  63 H63           -0.1743    -3.9522    -2.7796 H       
  64 H64           -1.6551    -4.8994    -2.4786 H       
  65 H65           -2.5444    -3.9917    -6.3358 H       
  66 H66           -3.9558    -4.9183    -5.7712 H       
  67 H67           -4.1119    -4.3953    -8.2021 H       
  68 H68           -5.4248    -3.6251    -7.2787 H       
  69 H69           -3.8746    -0.3073    -7.3378 H       
  70 H70           -5.2860    -1.2339    -6.7732 H       
  71 H71           -3.7185    -0.8302    -4.9069 H       
  72 H72           -2.4056    -1.6005    -5.8303 H       
  73 H73            3.5363    -1.3892    -1.9086 H       
  74 H74            5.1562    -4.1098     1.8846 H       
  75 H75            4.2375    -6.6054     3.2833 H       
  76 H76            3.8272    -8.9565     2.6861 H       
  77 H77           -0.2136    -7.9979     1.6797 H       
  78 H78           -1.9714    -5.0930     1.7431 H       
  79 H79           -1.1475    -6.3492     0.7885 H       
  80 H80           -1.6453    -6.6875     2.4636 H       
  81 H81            3.4750   -10.5059     1.3242 H       
  82 H82            2.9770   -10.8436     2.9994 H       
  83 H83            2.3359   -11.8306     1.6641 H       
  84 H84            1.5508    -0.9853    -4.6684 H       
  85 H85            2.2788     0.5383    -5.2315 H       
  86 H86            3.2118    -0.5618    -4.1885 H       
  87 H87            0.6522     0.8695    -3.3462 H       
  88 H88            2.2969     1.4213    -2.9477 H       
@<TRIPOS>BOND
   1    1    2 ar
   2    1    6 ar
   3    2    3 ar
   4    2   49 1
   5    3    4 ar
   6    3    7 1
   7    4    5 ar
   8    4   52 1
   9    5    6 ar
  10    5   53 1
  11    6   54 1
  12    7    8 1
  13    7    9 1
  14    7   27 1
  15    8   25 2
  16    8   26 am
  17    9   10 1
  18    9   55 1
  19    9   56 1
  20   10   11 am
  21   10   12 2
  22   11   13 1
  23   11   17 1
  24   13   14 1
  25   13   57 1
  26   13   58 1
  27   14   15 1
  28   14   59 1
  29   14   60 1
  30   15   16 1
  31   15   18 1
  32   16   17 1
  33   16   61 1
  34   16   62 1
  35   17   63 1
  36   17   64 1
  37   18   19 1
  38   18   23 1
  39   19   20 1
  40   19   65 1
  41   19   66 1
  42   20   21 1
  43   20   67 1
  44   20   68 1
  45   21   22 1
  46   21   24 1
  47   22   23 1
  48   22   69 1
  49   22   70 1
  50   23   71 1
  51   23   72 1
  52   26   46 am
  53   26   28 1
  54   27   28 ar
  55   27   29 ar
  56   28   32 ar
  57   29   30 ar
  58   29   73 1
  59   30   31 ar
  60   30   44 1
  61   31   32 ar
  62   31   33 1
  63   32   74 1
  64   34   35 ar
  65   34   36 ar
  66   34   46 1
  67   35   41 1
  68   35   39 ar
  69   36   37 ar
  70   36   75 1
  71   37   38 ar
  72   37   76 1
  73   38   39 ar
  74   38   40 1
  75   39   77 1
  76   40   43 1
  77   41   42 1
  78   42   78 1
  79   42   79 1
  80   42   80 1
  81   43   81 1
  82   43   82 1
  83   43   83 1
  84   44   45 3
  85   46   47 2
  86   46   48 2
  87   49   51 1
  88   50   51 1
  89   50   84 1
  90   50   85 1
  91   50   86 1
  92   51   87 1
  93   51   88 1

#	End of record

