#	Name: ASD01884669
#	Creating user name:	WinNT
#	Creation time:	15. 06. 2019 19:48

#	Modifying user name:	WinNT
#	Modification time:	15. 06. 2019 19:48

#	Program:	/corina/corina34_cracker 3.40 0067  02.08.2006

@<TRIPOS>MOLECULE
ASD01884669
  40   43    0    0    0
SMALL
NO_CHARGES


@<TRIPOS>ATOM
   1 C1            -0.0164     1.3573     0.0095 C.2     
   2 C2             0.0021    -0.0041     0.0020 C.2     
   3 C3             1.2446    -0.6751    -0.0135 C.2     
   4 C4             2.4035     0.0474    -0.0206 C.2     
   5 N5             2.3704     1.4025    -0.0126 N.am    
   6 C6             1.1989     2.0650     0.0017 C.2     
   7 O7             1.1912     3.2854     0.0083 O.2     
   8 C8             1.2908    -2.1571    -0.0214 C.ar    
   9 C9             3.6267     2.1561    -0.0196 C.3     
  10 C10            4.0447     2.4226    -1.4427 C.ar    
  11 C11            3.4605     3.4570    -2.1536 C.ar    
  12 C12            3.8454     3.7015    -3.4609 C.ar    
  13 C13            4.8131     2.9121    -4.0551 C.ar    
  14 C14            5.3960     1.8786    -3.3430 C.ar    
  15 C15            5.0155     1.6379    -2.0363 C.ar    
  16 F16            2.5149     4.2272    -1.5722 F       
  17 Cl17           5.2961     3.2173    -5.6943 Cl      
  18 C18            0.8129    -2.8754     1.0748 C.ar    
  19 C19            1.8070    -2.8326    -1.1273 C.ar    
  20 C20            1.8502    -4.2088    -1.1353 C.ar    
  21 C21            1.3772    -4.9281    -0.0362 C.ar    
  22 C22            0.8555    -4.2516     1.0680 C.ar    
  23 C23            1.4228    -6.4064    -0.0442 C.2     
  24 N24            1.0016    -7.2318     0.9464 N.pl3   
  25 N25            1.8748    -7.1705    -1.0168 N.2     
  26 N26            1.7692    -8.4105    -0.7002 N.2     
  27 N27            1.2500    -8.5322     0.4733 N.2     
  28 H28           -0.9563     1.8891     0.0168 H       
  29 H29           -0.9216    -0.5636     0.0082 H       
  30 H30            3.3541    -0.4650    -0.0325 H       
  31 H31            3.4852     3.1032     0.5010 H       
  32 H32            4.4006     1.5768     0.4840 H       
  33 H33            3.3900     4.5079    -4.0165 H       
  34 H34            6.1517     1.2623    -3.8073 H       
  35 H35            5.4711     0.8310    -1.4815 H       
  36 H36            0.4096    -2.3519     1.9290 H       
  37 H37            2.1725    -2.2761    -1.9776 H       
  38 H38            2.2495    -4.7317    -1.9917 H       
  39 H39            0.4898    -4.8074     1.9188 H       
  40 H40            0.6128    -6.9791     1.7983 H       
@<TRIPOS>BOND
   1    1    2 2
   2    1    6 1
   3    1   28 1
   4    2    3 1
   5    2   29 1
   6    3    4 2
   7    3    8 1
   8    4    5 1
   9    4   30 1
  10    5    6 am
  11    5    9 1
  12    6    7 2
  13    8   18 ar
  14    8   19 ar
  15    9   10 1
  16    9   31 1
  17    9   32 1
  18   10   11 ar
  19   10   15 ar
  20   11   12 ar
  21   11   16 1
  22   12   13 ar
  23   12   33 1
  24   13   14 ar
  25   13   17 1
  26   14   15 ar
  27   14   34 1
  28   15   35 1
  29   18   22 ar
  30   18   36 1
  31   19   20 ar
  32   19   37 1
  33   20   21 ar
  34   20   38 1
  35   21   22 ar
  36   21   23 1
  37   22   39 1
  38   23   24 1
  39   23   25 2
  40   24   27 1
  41   24   40 1
  42   25   26 1
  43   26   27 2

#	End of record

