#	Name: ASD02198733
#	Creating user name:	WinNT
#	Creation time:	15. 06. 2019 20:20

#	Modifying user name:	WinNT
#	Modification time:	15. 06. 2019 20:20

#	Program:	/corina/corina34_cracker 3.40 0067  02.08.2006

@<TRIPOS>MOLECULE
ASD02198733
  46   50    0    0    0
SMALL
NO_CHARGES


@<TRIPOS>ATOM
   1 F1             2.2530    -1.7112     2.4722 F       
   2 C2            -0.0433     1.5017    -0.1150 C.2     
   3 C3            -0.0730     0.1620     0.0975 C.2     
   4 N4             1.0713    -0.5395     0.2603 N.pl3   
   5 N5             2.2358    -0.0048     0.2263 N.2     
   6 C6             2.4073     1.2846     0.0276 C.2     
   7 C7             1.2215     2.1357    -0.1605 C.2     
   8 C8             0.9798    -1.9186     0.4773 C.ar    
   9 C9             1.5804    -2.4888     1.5957 C.ar    
  10 C10            1.4886    -3.8512     1.8088 C.ar    
  11 C11            0.7975    -4.6496     0.9071 C.ar    
  12 C12            0.1982    -4.0796    -0.2091 C.ar    
  13 C13            0.2843    -2.7188    -0.4207 C.ar    
  14 C14            3.7643     1.8669    -0.0050 C.2     
  15 N15            4.3063     2.6067    -1.0182 N.pl3   
  16 N16            5.6080     2.9587    -0.6402 N.2     
  17 C17            5.8517     2.4597     0.5454 C.2     
  18 C18            4.7199     1.7716     0.9828 C.2     
  19 C19            3.6734     2.9511    -2.2193 C.ar    
  20 C20            3.8072     4.2341    -2.7333 C.ar    
  21 C21            3.1818     4.5706    -3.9179 C.ar    
  22 C22            2.4230     3.6314    -4.5919 C.ar    
  23 C23            2.2875     2.3530    -4.0824 C.ar    
  24 C24            2.9154     2.0085    -2.9015 C.ar    
  25 O25            1.3245     3.3388    -0.3487 O.2     
  26 N26            0.7048    -6.0313     1.1230 N.pl3   
  27 C27           -0.3590    -6.8206     0.8161 C.2     
  28 N28            1.6939    -6.8466     1.6879 N.2     
  29 C29            1.2444    -8.0751     1.7255 C.2     
  30 C30           -0.0448    -8.0911     1.1841 C.2     
  31 O31           -1.5225    -6.4142     0.2468 O.3     
  32 H32           -0.9547     2.0653    -0.2496 H       
  33 H33           -1.0228    -0.3505     0.1374 H       
  34 H34            1.9546    -4.2949     2.6762 H       
  35 H35           -0.3391    -4.7016    -0.9097 H       
  36 H36           -0.1823    -2.2768    -1.2886 H       
  37 H37            6.7751     2.5660     1.0952 H       
  38 H38            4.6139     1.2525     1.9240 H       
  39 H39            4.3994     4.9682    -2.2072 H       
  40 H40            3.2852     5.5684    -4.3180 H       
  41 H41            1.9350     3.8969    -5.5180 H       
  42 H42            1.6936     1.6219    -4.6108 H       
  43 H43            2.8091     1.0099    -2.5041 H       
  44 H44            1.7795    -8.9318     2.1076 H       
  45 H45           -0.6787    -8.9590     1.0776 H       
  46 H46           -1.5188    -6.4440    -0.7197 H       
@<TRIPOS>BOND
   1    1    9 1
   2    2    3 2
   3    2    7 1
   4    2   32 1
   5    3    4 1
   6    3   33 1
   7    4    5 1
   8    4    8 1
   9    5    6 2
  10    6    7 1
  11    6   14 1
  12    7   25 2
  13    8    9 ar
  14    8   13 ar
  15    9   10 ar
  16   10   11 ar
  17   10   34 1
  18   11   12 ar
  19   11   26 1
  20   12   13 ar
  21   12   35 1
  22   13   36 1
  23   14   15 1
  24   14   18 2
  25   15   16 1
  26   15   19 1
  27   16   17 2
  28   17   18 1
  29   17   37 1
  30   18   38 1
  31   19   20 ar
  32   19   24 ar
  33   20   21 ar
  34   20   39 1
  35   21   22 ar
  36   21   40 1
  37   22   23 ar
  38   22   41 1
  39   23   24 ar
  40   23   42 1
  41   24   43 1
  42   26   28 1
  43   26   27 1
  44   27   31 1
  45   27   30 2
  46   28   29 2
  47   29   30 1
  48   29   44 1
  49   30   45 1
  50   31   46 1

#	End of record

