#	Name: ASD01908039
#	Creating user name:	WinNT
#	Creation time:	15. 06. 2019 19:54

#	Modifying user name:	WinNT
#	Modification time:	15. 06. 2019 19:54

#	Program:	/corina/corina34_cracker 3.40 0067  02.08.2006

@<TRIPOS>MOLECULE
ASD01908039
  43   46    0    0    0
SMALL
NO_CHARGES


@<TRIPOS>ATOM
   1 S1            -0.0211     1.7042     0.0114 S.3     
   2 C2             0.0021    -0.0041     0.0020 C.2     
   3 N3             1.2196    -0.4500    -0.0120 N.2     
   4 C4             2.1904     0.4427    -0.0165 C.2     
   5 C5             1.7400     1.7462    -0.0052 C.2     
   6 C6             2.5570     2.9223    -0.0071 C.1     
   7 N7             3.2051     3.8552    -0.0086 N.1     
   8 O8            -1.1019    -0.7867     0.0084 O.3     
   9 C9            -2.3144    -0.1777     0.0227 C.ar    
  10 C10           -3.4709    -0.9474     0.0296 C.ar    
  11 C11           -4.7012    -0.3140     0.0447 C.ar    
  12 C12           -4.7312     1.0739     0.0524 C.ar    
  13 C13           -3.5421     1.7753     0.0448 C.ar    
  14 N14           -2.3840     1.1430     0.0355 N.ar    
  15 N15            5.5171    -0.9644     0.3294 N.pl3   
  16 N16            5.7807     0.1546    -0.4696 N.2     
  17 C17            4.6569     0.7830    -0.6896 C.2     
  18 C18            3.6266     0.0801    -0.0321 C.2     
  19 C19            4.1951    -0.9963     0.5886 C.2     
  20 C20            6.5074    -1.9371     0.7979 C.3     
  21 C21            7.2579    -2.4981    -0.3823 C.ar    
  22 C22            8.4137    -1.8799    -0.8224 C.ar    
  23 C23            9.1035    -2.3922    -1.9041 C.ar    
  24 C24            8.6357    -3.5280    -2.5489 C.ar    
  25 C25            7.4757    -4.1464    -2.1054 C.ar    
  26 C26            6.7926    -3.6334    -1.0197 C.ar    
  27 O27            9.3123    -4.0336    -3.6135 O.3     
  28 C28            8.7724    -5.2052    -4.2283 C.3     
  29 H29           -3.4106    -2.0257     0.0229 H       
  30 H30           -5.6170    -0.8864     0.0500 H       
  31 H31           -5.6747     1.5993     0.0638 H       
  32 H32           -3.5599     2.8551     0.0504 H       
  33 H33            4.5378     1.6841    -1.2729 H       
  34 H34            3.6785    -1.7384     1.1792 H       
  35 H35            7.2076    -1.4460     1.4737 H       
  36 H36            6.0011    -2.7461     1.3245 H       
  37 H37            8.7773    -0.9955    -0.3203 H       
  38 H38           10.0061    -1.9087    -2.2477 H       
  39 H39            7.1095    -5.0307    -2.6057 H       
  40 H40            5.8922    -4.1172    -0.6711 H       
  41 H41            9.4071    -5.5029    -5.0629 H       
  42 H42            8.7307    -6.0127    -3.4974 H       
  43 H43            7.7674    -4.9936    -4.5937 H       
@<TRIPOS>BOND
   1    1    2 1
   2    1    5 1
   3    2    3 2
   4    2    8 1
   5    3    4 1
   6    4    5 2
   7    4   18 1
   8    5    6 1
   9    6    7 3
  10    8    9 1
  11    9   10 ar
  12    9   14 ar
  13   10   11 ar
  14   10   29 1
  15   11   12 ar
  16   11   30 1
  17   12   13 ar
  18   12   31 1
  19   13   14 ar
  20   13   32 1
  21   15   16 1
  22   15   19 1
  23   15   20 1
  24   16   17 2
  25   17   18 1
  26   17   33 1
  27   18   19 2
  28   19   34 1
  29   20   21 1
  30   20   35 1
  31   20   36 1
  32   21   22 ar
  33   21   26 ar
  34   22   23 ar
  35   22   37 1
  36   23   24 ar
  37   23   38 1
  38   24   25 ar
  39   24   27 1
  40   25   26 ar
  41   25   39 1
  42   26   40 1
  43   27   28 1
  44   28   41 1
  45   28   42 1
  46   28   43 1

#	End of record

