#	Name: ASD08150453
#	Creating user name:	WinNT
#	Creation time:	15. 06. 2019 21:16

#	Modifying user name:	WinNT
#	Modification time:	15. 06. 2019 21:16

#	Program:	/corina/corina34_cracker 3.40 0067  02.08.2006

@<TRIPOS>MOLECULE
ASD08150453
  41   45    0    0    0
SMALL
NO_CHARGES


@<TRIPOS>ATOM
   1 C1            -0.0158     1.3124     0.0093 C.ar    
   2 N2             0.0021    -0.0041     0.0020 N.ar    
   3 C3             1.1696    -0.6876    -0.0129 C.ar    
   4 C4             2.3585     0.0497    -0.0203 C.ar    
   5 C5             2.2868     1.4593    -0.0120 C.ar    
   6 N6             1.0982     2.0410     0.0025 N.ar    
   7 C7             1.3912    -2.0695    -0.0224 C.2     
   8 C8             2.6800    -2.4476    -0.0368 C.2     
   9 S9             3.7343    -1.0439    -0.0394 S.3     
  10 C10            3.1415    -3.8374    -0.0487 C.2     
  11 O11            4.3299    -4.0820    -0.0615 O.2     
  12 N12            3.4421     2.2217    -0.0186 N.3     
  13 C13            3.1259     3.6574    -0.0079 C.3     
  14 C14            4.4281     4.4608     0.0448 C.3     
  15 O15            5.2526     4.0962    -1.0655 O.3     
  16 C16            5.5805     2.7047    -1.1067 C.3     
  17 C17            4.2899     1.8835    -1.1710 C.3     
  18 N18           -4.7324     0.9805     0.0295 N.pl3   
  19 N19           -4.1065    -0.2720     0.0189 N.2     
  20 C20           -2.8136    -0.1169     0.0137 C.2     
  21 C21           -2.5235     1.2660     0.0207 C.ar    
  22 C22           -1.3229     2.0080     0.0192 C.ar    
  23 C23           -1.3773     3.3937     0.0274 C.ar    
  24 C24           -2.5999     4.0478     0.0372 C.ar    
  25 C25           -3.7791     3.3365     0.0388 C.ar    
  26 C26           -3.7558     1.9439     0.0307 C.ar    
  27 H27            0.5808    -2.7834    -0.0181 H       
  28 H28            2.4241    -4.6447    -0.0461 H       
  29 H29            2.5753     3.9156    -0.9125 H       
  30 H30            2.5191     3.8900     0.8672 H       
  31 H31            4.2010     5.5257    -0.0048 H       
  32 H32            4.9529     4.2428     0.9749 H       
  33 H33            6.1868     2.4996    -1.9889 H       
  34 H34            6.1388     2.4356    -0.2100 H       
  35 H35            4.5328     0.8212    -1.1449 H       
  36 H36            3.7579     2.1133    -2.0942 H       
  37 H37           -5.6894     1.1392     0.0314 H       
  38 H38           -2.0840    -0.9131     0.0055 H       
  39 H39           -0.4619     3.9668     0.0266 H       
  40 H40           -2.6277     5.1274     0.0439 H       
  41 H41           -4.7239     3.8596     0.0465 H       
@<TRIPOS>BOND
   1    1    2 ar
   2    1    6 ar
   3    1   22 1
   4    2    3 ar
   5    3    4 ar
   6    3    7 1
   7    4    5 ar
   8    4    9 1
   9    5    6 ar
  10    5   12 1
  11    7    8 2
  12    7   27 1
  13    8    9 1
  14    8   10 1
  15   10   11 2
  16   10   28 1
  17   12   13 1
  18   12   17 1
  19   13   14 1
  20   13   29 1
  21   13   30 1
  22   14   15 1
  23   14   31 1
  24   14   32 1
  25   15   16 1
  26   16   17 1
  27   16   33 1
  28   16   34 1
  29   17   35 1
  30   17   36 1
  31   18   19 1
  32   18   26 1
  33   18   37 1
  34   19   20 2
  35   20   21 1
  36   20   38 1
  37   21   22 ar
  38   21   26 ar
  39   22   23 ar
  40   23   24 ar
  41   23   39 1
  42   24   25 ar
  43   24   40 1
  44   25   26 ar
  45   25   41 1

#	End of record

