#	Name: ASD01881922
#	Creating user name:	WinNT
#	Creation time:	15. 06. 2019 19:43

#	Modifying user name:	WinNT
#	Modification time:	15. 06. 2019 19:43

#	Program:	/corina/corina34_cracker 3.40 0067  02.08.2006

@<TRIPOS>MOLECULE
ASD01881922
  55   58    0    0    0
SMALL
NO_CHARGES


@<TRIPOS>ATOM
   1 N1            -0.1239     1.4331     0.0631 N.3     
   2 C2            -1.0735     1.2017     1.1590 C.3     
   3 C3            -0.3116     0.7651     2.4124 C.3     
   4 C4             0.4685    -0.5170     2.1087 C.3     
   5 C5             1.4152    -0.2627     0.9325 C.3     
   6 C6             0.6032     0.2037    -0.2779 C.3     
   7 C7             1.2682    -0.9190     3.3211 C.2     
   8 O8             1.2201    -0.2495     4.3258 O.2     
   9 O9             2.0340    -2.0208     3.2849 O.3     
  10 F10           -0.4254    -1.5406     1.7765 F       
  11 C11           -0.8045     1.9863    -1.1153 C.3     
  12 C12           -1.1186     3.4644    -0.8759 C.3     
  13 O13            0.1022     4.1991    -0.7667 O.3     
  14 N14           -0.0335     9.6058     0.1015 N.pl3   
  15 N15            1.3564     9.7939     0.1224 N.2     
  16 N16            1.9440     8.6646    -0.0625 N.2     
  17 C17            1.0338     7.6820    -0.2139 C.ar    
  18 C18           -0.2424     8.2624    -0.1125 C.ar    
  19 C19            1.1425     6.3024    -0.4366 C.ar    
  20 C20           -0.0002     5.5379    -0.5511 C.ar    
  21 C21           -1.2578     6.1274    -0.4480 C.ar    
  22 C22           -1.3793     7.4712    -0.2324 C.ar    
  23 C23           -1.0604    10.6355     0.2788 C.3     
  24 C24           -1.4287    11.2283    -1.0828 C.3     
  25 C25           -2.5731    12.2428    -1.1253 C.3     
  26 C26           -1.1286    12.7110    -1.3122 C.3     
  27 Br27           2.8459     5.4934    -0.5781 Br      
  28 C28            2.7768    -2.3472     4.4891 C.3     
  29 C29            3.5853    -3.6256     4.2589 C.3     
  30 H30           -1.6187     2.1223     1.3677 H       
  31 H31           -1.7770     0.4205     0.8711 H       
  32 H32            0.3823     1.5516     2.7089 H       
  33 H33           -1.0181     0.5783     3.2211 H       
  34 H34            2.1363     0.5077     1.2058 H       
  35 H35            1.9425    -1.1837     0.6840 H       
  36 H36           -0.1081    -0.5728    -0.5591 H       
  37 H37            1.2760     0.3994    -1.1130 H       
  38 H38           -0.1580     1.8888    -1.9874 H       
  39 H39           -1.7324     1.4411    -1.2882 H       
  40 H40           -1.7023     3.8518    -1.7109 H       
  41 H41           -1.6898     3.5697     0.0465 H       
  42 H42           -2.1443     5.5174    -0.5399 H       
  43 H43           -2.3591     7.9189    -0.1542 H       
  44 H44           -1.9459    10.1911     0.7331 H       
  45 H45           -0.6765    11.4237     0.9264 H       
  46 H46           -1.3209    10.5552    -1.9333 H       
  47 H47           -3.2181    12.2374    -2.0040 H       
  48 H48           -3.0637    12.4879    -0.1833 H       
  49 H49           -0.6688    13.2640    -0.4932 H       
  50 H50           -0.8231    13.0135    -2.3139 H       
  51 H51            3.4536    -1.5280     4.7318 H       
  52 H52            2.0815    -2.5008     5.3144 H       
  53 H53            4.2806    -3.4720     3.4336 H       
  54 H54            4.1429    -3.8706     5.1629 H       
  55 H55            2.9085    -4.4448     4.0162 H       
@<TRIPOS>BOND
   1    1    2 1
   2    1    6 1
   3    1   11 1
   4    2    3 1
   5    2   30 1
   6    2   31 1
   7    3    4 1
   8    3   32 1
   9    3   33 1
  10    4    5 1
  11    4    7 1
  12    4   10 1
  13    5    6 1
  14    5   34 1
  15    5   35 1
  16    6   36 1
  17    6   37 1
  18    7    8 2
  19    7    9 1
  20    9   28 1
  21   11   12 1
  22   11   38 1
  23   11   39 1
  24   12   13 1
  25   12   40 1
  26   12   41 1
  27   13   20 1
  28   14   15 1
  29   14   18 1
  30   14   23 1
  31   15   16 2
  32   16   17 1
  33   17   18 ar
  34   17   19 ar
  35   18   22 ar
  36   19   20 ar
  37   19   27 1
  38   20   21 ar
  39   21   22 ar
  40   21   42 1
  41   22   43 1
  42   23   24 1
  43   23   44 1
  44   23   45 1
  45   24   25 1
  46   24   26 1
  47   24   46 1
  48   25   26 1
  49   25   47 1
  50   25   48 1
  51   26   49 1
  52   26   50 1
  53   28   29 1
  54   28   51 1
  55   28   52 1
  56   29   53 1
  57   29   54 1
  58   29   55 1

#	End of record

