#	Name: ASD01917959
#	Creating user name:	WinNT
#	Creation time:	15. 06. 2019 20:10

#	Modifying user name:	WinNT
#	Modification time:	15. 06. 2019 20:10

#	Program:	/corina/corina34_cracker 3.40 0067  02.08.2006

@<TRIPOS>MOLECULE
ASD01917959
  43   46    0    0    0
SMALL
NO_CHARGES


@<TRIPOS>ATOM
   1 N1             4.7271    -0.5764    -2.1717 N.ar    
   2 C2             5.2113     0.1533    -3.1566 C.ar    
   3 N3             5.1526     1.4698    -3.1420 N.ar    
   4 C4             4.5992     2.1135    -2.1274 C.ar    
   5 C5             4.0755     1.3801    -1.0675 C.ar    
   6 C6             4.1581    -0.0076    -1.1217 C.ar    
   7 O7             3.4991     2.0032    -0.0062 O.3     
   8 C8             3.5511     3.3616     0.0422 C.2     
   9 N9             2.4082     5.4385    -0.0253 N.pl3   
  10 C10            2.4051     4.0769    -0.0678 C.2     
  11 C11            4.7886     3.9987     0.2108 C.2     
  12 C12            4.8385     5.3858     0.2599 C.2     
  13 C13            3.5841     6.1299     0.1322 C.2     
  14 C14            6.1194     6.0897     0.4362 C.2     
  15 N15            6.1476     7.4364     0.4815 N.am    
  16 C16            7.3438     8.1002     0.7539 C.ar    
  17 N17            8.4669     7.4081     0.8596 N.ar    
  18 C18            7.3441     9.4818     0.9059 C.ar    
  19 C19            8.5363    10.1301     1.1760 C.ar    
  20 C20            9.6958     9.3676     1.2855 C.ar    
  21 C21            9.6205     7.9943     1.1162 C.ar    
  22 O22            7.1523     5.4558     0.5412 O.2     
  23 C23            1.4322     6.3846    -0.1094 C.2     
  24 N24            2.0097     7.5537    -0.0136 N.2     
  25 N25            3.2803     7.4126     0.1351 N.2     
  26 C26            5.8510    -0.5377    -4.3332 C.3     
  27 O27           10.8890     9.9639     1.5501 O.3     
  28 C28           12.0324     9.1123     1.6472 C.3     
  29 H29            4.5549     3.1925    -2.1218 H       
  30 H30            3.7630    -0.6118    -0.3183 H       
  31 H31            1.4677     3.5552    -0.1923 H       
  32 H32            5.6939     3.4167     0.3019 H       
  33 H33            5.3361     7.9441     0.3245 H       
  34 H34            6.4255    10.0423     0.8139 H       
  35 H35            8.5666    11.2027     1.2986 H       
  36 H36           10.5168     7.3968     1.1954 H       
  37 H37            0.3754     6.2026    -0.2377 H       
  38 H38            5.0943    -0.7399    -5.0912 H       
  39 H39            6.6249     0.1039    -4.7546 H       
  40 H40            6.2965    -1.4768    -4.0049 H       
  41 H41           11.8811     8.3910     2.4502 H       
  42 H42           12.1722     8.5828     0.7047 H       
  43 H43           12.9162     9.7136     1.8606 H       
@<TRIPOS>BOND
   1    1    2 ar
   2    1    6 ar
   3    2    3 ar
   4    2   26 1
   5    3    4 ar
   6    4    5 ar
   7    4   29 1
   8    5    6 ar
   9    5    7 1
  10    6   30 1
  11    7    8 1
  12    8   11 1
  13    8   10 2
  14    9   10 1
  15    9   23 1
  16    9   13 1
  17   10   31 1
  18   11   12 2
  19   11   32 1
  20   12   13 1
  21   12   14 1
  22   13   25 2
  23   14   15 am
  24   14   22 2
  25   15   16 1
  26   15   33 1
  27   16   18 ar
  28   16   17 ar
  29   17   21 ar
  30   18   19 ar
  31   18   34 1
  32   19   20 ar
  33   19   35 1
  34   20   21 ar
  35   20   27 1
  36   21   36 1
  37   23   24 2
  38   23   37 1
  39   24   25 1
  40   26   38 1
  41   26   39 1
  42   26   40 1
  43   27   28 1
  44   28   41 1
  45   28   42 1
  46   28   43 1

#	End of record

