#	Name: ASD01028542
#	Creating user name:	WinNT
#	Creation time:	15. 06. 2019 18:57

#	Modifying user name:	WinNT
#	Modification time:	15. 06. 2019 18:57

#	Program:	/corina/corina34_cracker 3.40 0067  02.08.2006

@<TRIPOS>MOLECULE
ASD01028542
  51   55    0    0    0
SMALL
NO_CHARGES


@<TRIPOS>ATOM
   1 N1            -0.0169     1.3921     0.0097 N.2     
   2 N2             0.0021    -0.0041     0.0020 N.pl3   
   3 C3             1.1087     2.0746     0.0026 C.2     
   4 C4             2.3555     1.4108    -0.0129 C.2     
   5 C5             2.4043     0.0531    -0.0211 C.2     
   6 C6             1.2004    -0.6774    -0.0130 C.2     
   7 N7             0.9138    -1.9689    -0.0175 N.2     
   8 N8            -0.3645    -2.1207    -0.0054 N.2     
   9 C9            -0.9590    -0.9535     0.0061 C.2     
  10 C10           -2.4466    -0.7132     0.0225 C.3     
  11 C11            1.0674     3.5527     0.0105 C.2     
  12 N12           -2.9145    -0.6422     1.4090 N.pl3   
  13 C13           -4.2583    -0.4260     1.6774 C.ar    
  14 C14           -5.1755    -0.2743     0.6506 C.ar    
  15 C15           -6.5145    -0.0589     0.9483 C.ar    
  16 N16           -6.9445     0.0069     2.1869 N.ar    
  17 C17           -6.1142    -0.1307     3.2260 C.ar    
  18 C18           -4.7348    -0.3594     3.0100 C.ar    
  19 C19           -6.5894    -0.0584     4.5486 C.ar    
  20 C20           -5.6885    -0.2077     5.5700 C.ar    
  21 C21           -4.3374    -0.4254     5.2804 C.ar    
  22 N22           -3.9054    -0.4982     4.0453 N.ar    
  23 O23           -6.1064    -0.1441     6.8611 O.3     
  24 C24           -5.1116    -0.3086     7.8738 C.3     
  25 S25            2.4372     4.6775     0.0027 S.3     
  26 N26            1.4840     6.0814     0.0180 N.2     
  27 C27            0.2380     5.7096     0.0280 C.2     
  28 C28           -0.0441     4.3659     0.0193 C.2     
  29 C29           -0.8708     6.7301     0.0431 C.3     
  30 C30           -1.3451     6.9890    -1.3883 C.3     
  31 C31           -2.0382     6.2024     0.8796 C.3     
  32 H32            3.2712     1.9834    -0.0185 H       
  33 H33            3.3547    -0.4596    -0.0329 H       
  34 H34           -2.6685     0.2259    -0.4844 H       
  35 H35           -2.9525    -1.5313    -0.4902 H       
  36 H36           -2.2847    -0.7464     2.1393 H       
  37 H37           -4.8501    -0.3232    -0.3781 H       
  38 H38           -7.2207     0.0580     0.1396 H       
  39 H39           -7.6363     0.1108     4.7531 H       
  40 H40           -3.6355    -0.5419     6.0929 H       
  41 H41           -4.6416    -1.2861     7.7659 H       
  42 H42           -4.3566     0.4709     7.7715 H       
  43 H43           -5.5780    -0.2362     8.8563 H       
  44 H44           -1.0525     3.9793     0.0261 H       
  45 H45           -0.5033     7.6596     0.4778 H       
  46 H46           -1.7126     6.0595    -1.8230 H       
  47 H47           -2.1471     7.7271    -1.3774 H       
  48 H48           -0.5134     7.3649    -1.9842 H       
  49 H49           -1.7003     6.0179     1.8993 H       
  50 H50           -2.8402     6.9405     0.8905 H       
  51 H51           -2.4057     5.2729     0.4448 H       
@<TRIPOS>BOND
   1    1    2 1
   2    1    3 2
   3    2    6 1
   4    2    9 1
   5    3    4 1
   6    3   11 1
   7    4    5 2
   8    4   32 1
   9    5    6 1
  10    5   33 1
  11    6    7 2
  12    7    8 1
  13    8    9 2
  14    9   10 1
  15   10   12 1
  16   10   34 1
  17   10   35 1
  18   11   25 1
  19   11   28 2
  20   12   13 1
  21   12   36 1
  22   13   14 ar
  23   13   18 ar
  24   14   15 ar
  25   14   37 1
  26   15   16 ar
  27   15   38 1
  28   16   17 ar
  29   17   18 ar
  30   17   19 ar
  31   18   22 ar
  32   19   20 ar
  33   19   39 1
  34   20   21 ar
  35   20   23 1
  36   21   22 ar
  37   21   40 1
  38   23   24 1
  39   24   41 1
  40   24   42 1
  41   24   43 1
  42   25   26 1
  43   26   27 2
  44   27   28 1
  45   27   29 1
  46   28   44 1
  47   29   30 1
  48   29   31 1
  49   29   45 1
  50   30   46 1
  51   30   47 1
  52   30   48 1
  53   31   49 1
  54   31   50 1
  55   31   51 1

#	End of record

