#	Name: ASD05660010
#	Creating user name:	WinNT
#	Creation time:	15. 06. 2019 21:01

#	Modifying user name:	WinNT
#	Modification time:	15. 06. 2019 21:01

#	Program:	/corina/corina34_cracker 3.40 0067  02.08.2006

@<TRIPOS>MOLECULE
ASD05660010
  51   54    0    0    0
SMALL
NO_CHARGES


@<TRIPOS>ATOM
   1 C1            -0.0187     1.4070    -0.1218 C.ar    
   2 C2             0.2260     0.2437     0.6187 C.ar    
   3 C3             1.4255    -0.4199     0.4754 C.ar    
   4 C4             2.3869     0.0601    -0.3975 C.ar    
   5 C5             2.1534     1.2095    -1.1331 C.ar    
   6 C6             0.9594     1.8855    -1.0025 C.ar    
   7 C7             3.6953    -0.6724    -0.5474 C.3     
   8 C8             3.8656    -1.1199    -2.0006 C.3     
   9 C9             4.8475     0.2574    -0.1617 C.3     
  10 C10           -1.2953     2.1170     0.0197 C.2     
  11 C11           -1.3110     3.4775     0.1302 C.2     
  12 C12           -2.4891     4.3503     0.0534 C.2     
  13 C13           -2.0937     5.6272     0.2098 C.2     
  14 C14           -0.6412     5.6794     0.3984 C.ar    
  15 C15           -0.1464     4.3585     0.3569 C.ar    
  16 C16            1.2137     4.1216     0.5158 C.ar    
  17 C17            2.0762     5.1811     0.7172 C.ar    
  18 C18            1.5945     6.4801     0.7624 C.ar    
  19 C19            0.2499     6.7369     0.5987 C.ar    
  20 C20           -3.9079     3.8918    -0.1652 C.3     
  21 C21           -3.0080     6.8249     0.1927 C.3     
  22 C22           -3.3999     7.1879     1.6265 C.3     
  23 C23           -4.3142     8.3857     1.6094 C.2     
  24 N24           -5.5385     8.4702     2.1624 N.pl3   
  25 N25           -5.9816     9.6583     1.9246 N.2     
  26 N26           -5.0932    10.3063     1.2550 N.2     
  27 N27           -4.0694     9.5494     1.0580 N.2     
  28 H28           -0.5227    -0.1319     1.3004 H       
  29 H29            1.6161    -1.3169     1.0459 H       
  30 H30            2.9090     1.5773    -1.8115 H       
  31 H31            0.7787     2.7816    -1.5777 H       
  32 H32            3.6994    -1.5459     0.1046 H       
  33 H33            3.8615    -0.2464    -2.6526 H       
  34 H34            4.8120    -1.6497    -2.1090 H       
  35 H35            3.0448    -1.7823    -2.2754 H       
  36 H36            4.7261     0.5762     0.8735 H       
  37 H37            5.7938    -0.2724    -0.2701 H       
  38 H38            4.8433     1.1309    -0.8137 H       
  39 H39           -2.2223     1.5631     0.0364 H       
  40 H40            1.5950     3.1117     0.4823 H       
  41 H41            3.1331     4.9964     0.8407 H       
  42 H42            2.2800     7.2995     0.9210 H       
  43 H43           -0.1155     7.7526     0.6365 H       
  44 H44           -3.9287     2.8060    -0.2580 H       
  45 H45           -4.5226     4.1958     0.6821 H       
  46 H46           -4.2988     4.3420    -1.0777 H       
  47 H47           -2.4935     7.6683    -0.2679 H       
  48 H48           -3.9048     6.5893    -0.3804 H       
  49 H49           -3.9144     6.3446     2.0871 H       
  50 H50           -2.5031     7.4235     2.1996 H       
  51 H51           -6.0008     7.7693     2.6481 H       
@<TRIPOS>BOND
   1    1    2 ar
   2    1    6 ar
   3    1   10 1
   4    2    3 ar
   5    2   28 1
   6    3    4 ar
   7    3   29 1
   8    4    5 ar
   9    4    7 1
  10    5    6 ar
  11    5   30 1
  12    6   31 1
  13    7    8 1
  14    7    9 1
  15    7   32 1
  16    8   33 1
  17    8   34 1
  18    8   35 1
  19    9   36 1
  20    9   37 1
  21    9   38 1
  22   10   11 2
  23   10   39 1
  24   11   12 1
  25   11   15 1
  26   12   13 2
  27   12   20 1
  28   13   14 1
  29   13   21 1
  30   14   19 ar
  31   14   15 ar
  32   15   16 ar
  33   16   17 ar
  34   16   40 1
  35   17   18 ar
  36   17   41 1
  37   18   19 ar
  38   18   42 1
  39   19   43 1
  40   20   44 1
  41   20   45 1
  42   20   46 1
  43   21   22 1
  44   21   47 1
  45   21   48 1
  46   22   23 1
  47   22   49 1
  48   22   50 1
  49   23   24 1
  50   23   27 2
  51   24   25 1
  52   24   51 1
  53   25   26 2
  54   26   27 1

#	End of record

