#	Name: ASD03930252
#	Creating user name:	WinNT
#	Creation time:	15. 06. 2019 20:47

#	Modifying user name:	WinNT
#	Modification time:	15. 06. 2019 20:47

#	Program:	/corina/corina34_cracker 3.40 0067  02.08.2006

@<TRIPOS>MOLECULE
ASD03930252
  42   46    0    0    0
SMALL
NO_CHARGES


@<TRIPOS>ATOM
   1 C1            -0.0171     1.4119     0.0098 C.ar    
   2 C2             0.0021    -0.0041     0.0020 C.ar    
   3 C3            -1.1810    -0.7280     0.0089 C.ar    
   4 C4            -2.4002    -0.0512     0.0237 C.ar    
   5 C5            -2.4190     1.3647     0.0315 C.ar    
   6 C6            -1.2355     2.0887     0.0193 C.ar    
   7 N7             1.1619     2.0854     0.0022 N.2     
   8 C8             2.3016     1.4650    -0.0120 C.2     
   9 N9             2.4168     0.1106    -0.0208 N.am    
  10 C10            1.3153    -0.6752    -0.0141 C.2     
  11 N11           -3.5750    -0.7314     0.0302 N.2     
  12 N12           -4.7090    -0.1314     0.0434 N.2     
  13 N13           -4.8343     1.2600     0.0521 N.am    
  14 C14           -3.7294     2.0419     0.0467 C.2     
  15 C15            3.7464    -0.5042    -0.0372 C.3     
  16 C16            4.4998    -0.0565    -1.2913 C.3     
  17 C17            4.5241    -0.0706     1.2070 C.3     
  18 N18            3.8189    -0.5739    -2.4808 N.pl3   
  19 N19            2.8846     0.0317    -3.1300 N.2     
  20 C20            2.5245    -0.7365    -4.1286 C.2     
  21 N21            3.2765    -1.8354    -4.0631 N.2     
  22 N22            4.0620    -1.7040    -3.0483 N.2     
  23 O23            1.4048    -1.8886    -0.0217 O.2     
  24 O24           -3.8138     3.2559     0.0545 O.2     
  25 C25           -6.1643     1.8741     0.0666 C.3     
  26 C26           -7.1000     1.5607    -1.1027 C.3     
  27 C27           -7.3665     0.9509     0.2750 C.3     
  28 H28           -1.1582    -1.8077     0.0025 H       
  29 H29           -1.2581     3.1684     0.0254 H       
  30 H30            3.2058     2.0556    -0.0175 H       
  31 H31            3.6448    -1.5894    -0.0423 H       
  32 H32            4.5240     1.0325    -1.3313 H       
  33 H33            5.5190    -0.4417    -1.2598 H       
  34 H34            5.5134    -0.5281     1.1948 H       
  35 H35            4.6257     1.0146     1.2121 H       
  36 H36            3.9874    -0.3895     2.1005 H       
  37 H37            1.7638    -0.5207    -4.8643 H       
  38 H38           -6.2160     2.8735     0.4985 H       
  39 H39           -7.7675     2.3537    -1.4397 H       
  40 H40           -6.7260     0.8975    -1.8827 H       
  41 H41           -7.1678    -0.1133     0.4014 H       
  42 H42           -8.2093     1.3429     0.8444 H       
@<TRIPOS>BOND
   1    1    2 ar
   2    1    7 1
   3    1    6 ar
   4    2    3 ar
   5    2   10 1
   6    3    4 ar
   7    3   28 1
   8    4    5 ar
   9    4   11 1
  10    5    6 ar
  11    5   14 1
  12    6   29 1
  13    7    8 2
  14    8    9 1
  15    8   30 1
  16    9   10 am
  17    9   15 1
  18   10   23 2
  19   11   12 2
  20   12   13 1
  21   13   14 am
  22   13   25 1
  23   14   24 2
  24   15   16 1
  25   15   17 1
  26   15   31 1
  27   16   18 1
  28   16   32 1
  29   16   33 1
  30   17   34 1
  31   17   35 1
  32   17   36 1
  33   18   19 1
  34   18   22 1
  35   19   20 2
  36   20   21 1
  37   20   37 1
  38   21   22 2
  39   25   26 1
  40   25   27 1
  41   25   38 1
  42   26   27 1
  43   26   39 1
  44   26   40 1
  45   27   41 1
  46   27   42 1

#	End of record

