#	Name: ASD02198433
#	Creating user name:	WinNT
#	Creation time:	15. 06. 2019 20:19

#	Modifying user name:	WinNT
#	Modification time:	15. 06. 2019 20:19

#	Program:	/corina/corina34_cracker 3.40 0067  02.08.2006

@<TRIPOS>MOLECULE
ASD02198433
  32   34    0    0    0
SMALL
NO_CHARGES


@<TRIPOS>ATOM
   1 C1             0.1717     1.8691     0.1928 C.ar    
   2 S2             0.0777     0.1157     0.0458 S.o2    
   3 N3             0.0238    -0.5027     1.5810 N.am    
   4 C4            -1.0184    -0.1515     2.4378 C.ar    
   5 C5            -0.7782     0.0144     3.8198 C.ar    
   6 C6            -1.8552     0.3721     4.6672 C.ar    
   7 C7            -3.1374     0.5547     4.1252 C.ar    
   8 C8            -3.3400     0.3875     2.7879 C.ar    
   9 C9            -2.2893     0.0420     1.9421 C.ar    
  10 N10            0.4424    -0.1609     4.3326 N.ar    
  11 C11            0.6719    -0.0089     5.6143 C.ar    
  12 C12           -0.3419     0.3416     6.5035 C.ar    
  13 C13           -1.6132     0.5369     6.0446 C.ar    
  14 O14           -1.1819    -0.1703    -0.5465 O.2     
  15 O15            1.3136    -0.3069    -0.5139 O.2     
  16 C16            1.4039     2.4914     0.2660 C.ar    
  17 Br17          -5.0715     0.6363     2.0695 Br      
  18 C18            1.4777     3.8670     0.3814 C.ar    
  19 C19            0.3193     4.6202     0.4231 C.ar    
  20 C20           -0.9128     3.9979     0.3489 C.ar    
  21 C21           -0.9865     2.6227     0.2291 C.ar    
  22 H22            0.7174    -1.1093     1.8841 H       
  23 H23           -3.9620     0.8271     4.7672 H       
  24 H24           -2.4746    -0.0849     0.8857 H       
  25 H25            1.6728    -0.1595     5.9909 H       
  26 H26           -0.1226     0.4587     7.5545 H       
  27 H27           -2.4111     0.8096     6.7195 H       
  28 H28            2.3089     1.9030     0.2335 H       
  29 H29            2.4403     4.3532     0.4394 H       
  30 H30            0.3769     5.6948     0.5139 H       
  31 H31           -1.8179     4.5864     0.3817 H       
  32 H32           -1.9492     2.1365     0.1711 H       
@<TRIPOS>BOND
   1    1    2 1
   2    1   16 ar
   3    1   21 ar
   4    2    3 am
   5    2   14 2
   6    2   15 2
   7    3    4 1
   8    3   22 1
   9    4    5 ar
  10    4    9 ar
  11    5    6 ar
  12    5   10 ar
  13    6    7 ar
  14    6   13 ar
  15    7    8 ar
  16    7   23 1
  17    8    9 ar
  18    8   17 1
  19    9   24 1
  20   10   11 ar
  21   11   12 ar
  22   11   25 1
  23   12   13 ar
  24   12   26 1
  25   13   27 1
  26   16   18 ar
  27   16   28 1
  28   18   19 ar
  29   18   29 1
  30   19   20 ar
  31   19   30 1
  32   20   21 ar
  33   20   31 1
  34   21   32 1

#	End of record

