#	Name: ASD02198224
#	Creating user name:	WinNT
#	Creation time:	15. 06. 2019 20:19

#	Modifying user name:	WinNT
#	Modification time:	15. 06. 2019 20:19

#	Program:	/corina/corina34_cracker 3.40 0067  02.08.2006

@<TRIPOS>MOLECULE
ASD02198224
  47   50    0    0    0
SMALL
NO_CHARGES


@<TRIPOS>ATOM
   1 C1            -0.0166     1.3753     0.0096 C.2     
   2 C2             0.0021    -0.0041     0.0020 C.2     
   3 C3            -1.1878    -0.8008     0.0091 C.1     
   4 S4             1.5675     2.0054    -0.0021 S.3     
   5 C5             2.2772     0.3990    -0.0175 C.2     
   6 C6             1.2824    -0.5520    -0.0132 C.2     
   7 C7             3.6579     0.1249    -0.0329 C.2     
   8 C8             4.6307     1.2351    -0.0365 C.2     
   9 O9             4.0505    -1.0301    -0.0433 O.2     
  10 N10            1.5294    -1.9154    -0.0224 N.pl3   
  11 N11           -1.1593     2.1393     0.0194 N.pl3   
  12 N12           -2.1317    -1.4328     0.0147 N.1     
  13 C13           -1.0630     3.6011     0.0268 C.3     
  14 C14           -2.3387     4.2164    -0.5745 C.3     
  15 O15            4.3523     2.5520    -0.0260 O.3     
  16 C16           -2.9729     5.0847     0.5317 C.3     
  17 C17           -1.7894     5.4291     1.4696 C.3     
  18 C18           -0.9665     4.1169     1.4775 C.3     
  19 N19            5.3580     3.2224    -0.0321 N.2     
  20 C20            6.4372     2.4802    -0.0472 C.2     
  21 C21            5.9936     1.1303    -0.0452 C.2     
  22 C22            7.8438     2.9548    -0.0592 C.ar    
  23 C23            8.1210     4.3201    -0.0542 C.ar    
  24 C24            8.8914     2.0365    -0.0697 C.ar    
  25 C25           10.1973     2.4832    -0.0803 C.ar    
  26 C26           10.4668     3.8399    -0.0802 C.ar    
  27 C27            9.4305     4.7560    -0.0650 C.ar    
  28 N28           11.8693     4.3131    -0.0907 N.pl3   
  29 O29           12.7835     3.5084    -0.0994 O.2     
  30 O30           12.1091     5.5073    -0.0905 O.2     
  31 H31            2.4424    -2.2428    -0.0326 H       
  32 H32            0.7893    -2.5424    -0.0187 H       
  33 H33           -2.0294     1.7105     0.0213 H       
  34 H34           -0.1902     3.9204    -0.5426 H       
  35 H35           -2.0850     4.8351    -1.4353 H       
  36 H36           -3.0295     3.4274    -0.8719 H       
  37 H37           -3.3994     5.9931     0.1062 H       
  38 H38           -3.7345     4.5204     1.0700 H       
  39 H39           -1.2010     6.2516     1.0630 H       
  40 H40           -2.1470     5.6669     2.4715 H       
  41 H41           -1.4040     3.3964     2.1685 H       
  42 H42            0.0714     4.3191     1.7422 H       
  43 H43            6.5928     0.2319    -0.0544 H       
  44 H44            7.3126     5.0362    -0.0423 H       
  45 H45            8.6820     0.9770    -0.0691 H       
  46 H46           11.0102     1.7722    -0.0885 H       
  47 H47            9.6465     5.8141    -0.0649 H       
@<TRIPOS>BOND
   1    1    2 2
   2    1    4 1
   3    1   11 1
   4    2    3 1
   5    2    6 1
   6    3   12 3
   7    4    5 1
   8    5    6 2
   9    5    7 1
  10    6   10 1
  11    7    8 1
  12    7    9 2
  13    8   15 1
  14    8   21 2
  15   10   31 1
  16   10   32 1
  17   11   13 1
  18   11   33 1
  19   13   14 1
  20   13   18 1
  21   13   34 1
  22   14   16 1
  23   14   35 1
  24   14   36 1
  25   15   19 1
  26   16   17 1
  27   16   37 1
  28   16   38 1
  29   17   18 1
  30   17   39 1
  31   17   40 1
  32   18   41 1
  33   18   42 1
  34   19   20 2
  35   20   21 1
  36   20   22 1
  37   21   43 1
  38   22   23 ar
  39   22   24 ar
  40   23   27 ar
  41   23   44 1
  42   24   25 ar
  43   24   45 1
  44   25   26 ar
  45   25   46 1
  46   26   27 ar
  47   26   28 1
  48   27   47 1
  49   28   29 2
  50   28   30 2

#	End of record

