#	Name: ASD03731494
#	Creating user name:	WinNT
#	Creation time:	15. 06. 2019 20:45

#	Modifying user name:	WinNT
#	Modification time:	15. 06. 2019 20:45

#	Program:	/corina/corina34_cracker 3.40 0067  02.08.2006

@<TRIPOS>MOLECULE
ASD03731494
  58   63    0    0    0
SMALL
NO_CHARGES


@<TRIPOS>ATOM
   1 O1            -0.0160     1.3323     0.0094 O.3     
   2 C2             0.0021    -0.0041     0.0020 C.2     
   3 C3             1.3022    -0.4169    -0.0126 C.2     
   4 C4             2.1079     0.8128    -0.0137 C.2     
   5 C5             1.2311     1.8283     0.0001 C.2     
   6 C6             1.7959    -1.8055    -0.0248 C.2     
   7 O7             1.0073    -2.7313    -0.0222 O.2     
   8 N8             3.1213    -2.0494    -0.0387 N.am    
   9 C9             3.6121    -3.4297    -0.0508 C.3     
  10 C10            5.1420    -3.4269    -0.0654 C.3     
  11 C11            5.6545    -4.8685    -0.0781 C.3     
  12 O12           10.6339    -0.1343     2.0396 O.3     
  13 C13           11.9964     0.2695     2.2710 C.3     
  14 O14           12.6255    -0.9228     2.7767 O.3     
  15 C15           11.9127    -1.9630     2.2525 C.ar    
  16 C16           10.6877    -1.4776     1.8004 C.ar    
  17 C17           12.2153    -3.3064     2.1216 C.ar    
  18 C18           11.3021    -4.1816     1.5413 C.ar    
  19 C19           10.0784    -3.6865     1.1009 C.ar    
  20 C20            9.7762    -2.3464     1.2244 C.ar    
  21 O21           11.4074    -5.5206     1.3043 O.3     
  22 C22            9.3111    -4.8616     0.5567 C.3     
  23 C23           10.0930    -6.0699     1.0897 C.3     
  24 N24            7.1194    -4.8658    -0.0920 N.am    
  25 C25            7.8826    -4.8709     1.0191 C.2     
  26 C26            9.2441    -4.8552    -0.9418 C.ar    
  27 C27           10.1961    -4.8476    -1.9367 C.ar    
  28 C28            9.8100    -4.8443    -3.2652 C.ar    
  29 C29            8.4660    -4.8480    -3.5914 C.ar    
  30 C30            7.5087    -4.8547    -2.5985 C.ar    
  31 C31            7.8882    -4.8585    -1.2584 C.ar    
  32 O32            7.4919    -4.8814     2.1673 O.2     
  33 C33            1.5893     3.2921     0.0041 C.3     
  34 C34           -1.2081    -0.9022     0.0087 C.3     
  35 H35            3.1855     0.8842    -0.0231 H       
  36 H36            3.7503    -1.3110    -0.0408 H       
  37 H37            3.2581    -3.9489     0.8398 H       
  38 H38            3.2412    -3.9394    -0.9401 H       
  39 H39            5.4959    -2.9076    -0.9561 H       
  40 H40            5.5129    -2.9172     0.8238 H       
  41 H41            5.3006    -5.3877     0.8125 H       
  42 H42            5.2836    -5.3782    -0.9673 H       
  43 H43           12.4660     0.5845     1.3391 H       
  44 H44           12.0386     1.0683     3.0114 H       
  45 H45           13.1667    -3.6786     2.4721 H       
  46 H46            8.8259    -1.9738     0.8714 H       
  47 H47           10.1236    -6.8688     0.3487 H       
  48 H48            9.6644    -6.4257     2.0266 H       
  49 H49           11.2451    -4.8445    -1.6797 H       
  50 H50           10.5564    -4.8392    -4.0458 H       
  51 H51            8.1647    -4.8453    -4.6285 H       
  52 H52            6.4611    -4.8570    -2.8611 H       
  53 H53            0.6775     3.8893     0.0161 H       
  54 H54            2.1835     3.5183     0.8895 H       
  55 H55            2.1660     3.5275    -0.8904 H       
  56 H56           -2.1122    -0.2935     0.0202 H       
  57 H57           -1.2019    -1.5268    -0.8845 H       
  58 H58           -1.1853    -1.5358     0.8954 H       
@<TRIPOS>BOND
   1    1    2 1
   2    1    5 1
   3    2    3 2
   4    2   34 1
   5    3    4 1
   6    3    6 1
   7    4    5 2
   8    4   35 1
   9    5   33 1
  10    6    7 2
  11    6    8 am
  12    8    9 1
  13    8   36 1
  14    9   10 1
  15    9   37 1
  16    9   38 1
  17   10   11 1
  18   10   39 1
  19   10   40 1
  20   11   24 1
  21   11   41 1
  22   11   42 1
  23   12   13 1
  24   12   16 1
  25   13   14 1
  26   13   43 1
  27   13   44 1
  28   14   15 1
  29   15   16 ar
  30   15   17 ar
  31   16   20 ar
  32   17   18 ar
  33   17   45 1
  34   18   19 ar
  35   18   21 1
  36   19   20 ar
  37   19   22 1
  38   20   46 1
  39   21   23 1
  40   22   23 1
  41   22   25 1
  42   22   26 1
  43   23   47 1
  44   23   48 1
  45   24   25 am
  46   24   31 1
  47   25   32 2
  48   26   27 ar
  49   26   31 ar
  50   27   28 ar
  51   27   49 1
  52   28   29 ar
  53   28   50 1
  54   29   30 ar
  55   29   51 1
  56   30   31 ar
  57   30   52 1
  58   33   53 1
  59   33   54 1
  60   33   55 1
  61   34   56 1
  62   34   57 1
  63   34   58 1

#	End of record

