#	Name: ASD01900599
#	Creating user name:	WinNT
#	Creation time:	15. 06. 2019 19:52

#	Modifying user name:	WinNT
#	Modification time:	15. 06. 2019 19:52

#	Program:	/corina/corina34_cracker 3.40 0067  02.08.2006

@<TRIPOS>MOLECULE
ASD01900599
  37   40    0    0    0
SMALL
NO_CHARGES


@<TRIPOS>ATOM
   1 S1            -0.0218     1.7575     0.0117 S.3     
   2 C2             0.0021    -0.0041     0.0020 C.2     
   3 N3             1.2402    -0.4130    -0.0120 N.2     
   4 C4             2.1723     0.5073    -0.0160 C.2     
   5 C5             1.7406     1.7762    -0.0050 C.2     
   6 C6            -1.1859    -0.8752     0.0091 C.2     
   7 N7            -1.1594    -2.2456     0.0015 N.pl3   
   8 C8            -2.4705    -2.6790     0.0122 C.ar    
   9 C9            -3.2679    -1.5198     0.0263 C.ar    
  10 N10           -2.4295    -0.4564     0.0294 N.2     
  11 C11           -4.6612    -1.6446     0.0394 C.ar    
  12 C12           -5.2337    -2.8849     0.0384 C.ar    
  13 C13           -4.4470    -4.0278     0.0245 C.ar    
  14 C14           -3.0712    -3.9299     0.0110 C.ar    
  15 S15           -6.9892    -3.0350     0.0556 S.o2    
  16 O16           -7.2268    -4.3007     0.6563 O.2     
  17 O17           -7.4374    -1.8357     0.6721 O.2     
  18 C18           -7.4581    -3.0638    -1.6965 C.3     
  19 C19           -8.9552    -3.1910    -1.8138 C.ar    
  20 C20           -9.7446    -2.0554    -1.8600 C.ar    
  21 C21          -11.1187    -2.1729    -1.9682 C.ar    
  22 C22          -11.7023    -3.4245    -2.0300 C.ar    
  23 C23          -10.9133    -4.5584    -1.9834 C.ar    
  24 C24           -9.5394    -4.4415    -1.8810 C.ar    
  25 Cl25          -9.0109    -0.4840    -1.7817 Cl      
  26 H26            3.2233     0.2591    -0.0270 H       
  27 H27            2.3647     2.6576    -0.0068 H       
  28 H28           -0.3678    -2.8061    -0.0096 H       
  29 H29           -5.2833    -0.7618     0.0507 H       
  30 H30           -4.9153    -5.0010     0.0239 H       
  31 H31           -2.4641    -4.8231     0.0004 H       
  32 H32           -7.1334    -2.1398    -2.1748 H       
  33 H33           -6.9819    -3.9133    -2.1862 H       
  34 H34          -11.7353    -1.2870    -2.0039 H       
  35 H35          -12.7751    -3.5163    -2.1145 H       
  36 H36          -11.3698    -5.5360    -2.0310 H       
  37 H37           -8.9231    -5.3278    -1.8491 H       
@<TRIPOS>BOND
   1    1    2 1
   2    1    5 1
   3    2    3 2
   4    2    6 1
   5    3    4 1
   6    4    5 2
   7    4   26 1
   8    5   27 1
   9    6    7 1
  10    6   10 2
  11    7    8 1
  12    7   28 1
  13    8    9 ar
  14    8   14 ar
  15    9   10 1
  16    9   11 ar
  17   11   12 ar
  18   11   29 1
  19   12   13 ar
  20   12   15 1
  21   13   14 ar
  22   13   30 1
  23   14   31 1
  24   15   16 2
  25   15   17 2
  26   15   18 1
  27   18   19 1
  28   18   32 1
  29   18   33 1
  30   19   20 ar
  31   19   24 ar
  32   20   21 ar
  33   20   25 1
  34   21   22 ar
  35   21   34 1
  36   22   23 ar
  37   22   35 1
  38   23   24 ar
  39   23   36 1
  40   24   37 1

#	End of record

