#	Name: ASD03731559
#	Creating user name:	WinNT
#	Creation time:	15. 06. 2019 20:45

#	Modifying user name:	WinNT
#	Modification time:	15. 06. 2019 20:45

#	Program:	/corina/corina34_cracker 3.40 0067  02.08.2006

@<TRIPOS>MOLECULE
ASD03731559
  39   40    0    0    0
SMALL
NO_CHARGES


@<TRIPOS>ATOM
   1 C1             0.0995     1.4721    -0.0121 C.2     
   2 C2             0.0886    -0.0038    -0.0145 C.ar    
   3 C3             1.2835    -0.7130    -0.1664 C.ar    
   4 C4             1.2688    -2.0915    -0.1676 C.ar    
   5 C5             0.0655    -2.7759    -0.0182 C.ar    
   6 C6            -1.1232    -2.0729     0.1325 C.ar    
   7 C7            -1.1152    -0.6953     0.1408 C.ar    
   8 O8             1.1488     2.0725    -0.1424 O.2     
   9 N9            -1.0542     2.1543     0.1289 N.am    
  10 S10           -1.0420     3.8103     0.1316 S.o2    
  11 O11           -2.4032     4.1705     0.3228 O.2     
  12 O12           -0.0519     4.1519     1.0920 O.2     
  13 C13           -0.4924     4.2616    -1.5372 C.3     
  14 F14            2.4226    -2.7788    -0.3143 F       
  15 O15            0.0538    -4.1332    -0.0201 O.3     
  16 C16            0.2809    -4.7750     1.1563 C.ar    
  17 C17            0.2100    -6.1594     1.2171 C.ar    
  18 C18            0.4410    -6.8102     2.4132 C.ar    
  19 C19            0.7427    -6.0817     3.5517 C.ar    
  20 C20            0.8134    -4.7004     3.4927 C.ar    
  21 C21            0.5893    -4.0470     2.2961 C.ar    
  22 F22            0.9680    -6.7196     4.7211 F       
  23 C23           -0.1193    -6.9525    -0.0213 C.3     
  24 C24            1.1597    -7.1999    -0.8237 C.3     
  25 H25            2.2167    -0.1819    -0.2830 H       
  26 H26           -2.0546    -2.6073     0.2478 H       
  27 H27           -2.0396    -0.1503     0.2625 H       
  28 H28           -1.8918     1.6754     0.2288 H       
  29 H29           -1.1920     3.8610    -2.2708 H       
  30 H30           -0.4547     5.3473    -1.6261 H       
  31 H31            0.4997     3.8476    -1.7174 H       
  32 H32            0.3859    -7.8878     2.4609 H       
  33 H33            1.0485    -4.1335     4.3814 H       
  34 H34            0.6496    -2.9697     2.2492 H       
  35 H35           -0.5589    -7.9079     0.2653 H       
  36 H36           -0.8291    -6.3946    -0.6320 H       
  37 H37            1.5993    -6.2445    -1.1102 H       
  38 H38            1.8696    -7.7578    -0.2130 H       
  39 H39            0.9215    -7.7735    -1.7194 H       
@<TRIPOS>BOND
   1    1    2 1
   2    1    8 2
   3    1    9 am
   4    2    3 ar
   5    2    7 ar
   6    3    4 ar
   7    3   25 1
   8    4    5 ar
   9    4   14 1
  10    5    6 ar
  11    5   15 1
  12    6    7 ar
  13    6   26 1
  14    7   27 1
  15    9   10 am
  16    9   28 1
  17   10   11 2
  18   10   12 2
  19   10   13 1
  20   13   29 1
  21   13   30 1
  22   13   31 1
  23   15   16 1
  24   16   17 ar
  25   16   21 ar
  26   17   18 ar
  27   17   23 1
  28   18   19 ar
  29   18   32 1
  30   19   20 ar
  31   19   22 1
  32   20   21 ar
  33   20   33 1
  34   21   34 1
  35   23   24 1
  36   23   35 1
  37   23   36 1
  38   24   37 1
  39   24   38 1
  40   24   39 1

#	End of record

