#	Name: ASD01910807
#	Creating user name:	WinNT
#	Creation time:	15. 06. 2019 19:56

#	Modifying user name:	WinNT
#	Modification time:	15. 06. 2019 19:56

#	Program:	/corina/corina34_cracker 3.40 0067  02.08.2006

@<TRIPOS>MOLECULE
ASD01910807
  52   55    0    0    0
SMALL
NO_CHARGES


@<TRIPOS>ATOM
   1 C1            -0.4324     0.9749     0.7767 C.ar    
   2 C2             0.1315     0.1947     1.7658 C.ar    
   3 N3             1.3131    -0.3673     1.5935 N.ar    
   4 C4             2.0012    -0.2073     0.4737 C.ar    
   5 C5             1.4930     0.5663    -0.5652 C.ar    
   6 C6             0.2570     1.1678    -0.4134 C.ar    
   7 N7             3.2425    -0.8173     0.3349 N.3     
   8 C8             3.1114    -2.2803     0.3197 C.3     
   9 C9             4.4687    -2.9080    -0.0149 C.3     
  10 N10            5.4706    -2.3831     0.9252 N.am    
  11 C11            5.5672    -0.9256     1.0972 C.3     
  12 C12            4.1666    -0.3759     1.3880 C.3     
  13 C13            6.2786    -3.2156     1.6112 C.2     
  14 C14            7.3589    -2.6662     2.4583 C.ar    
  15 O15            6.1192    -4.4182     1.5335 O.2     
  16 C16            7.7369    -3.3293     3.6279 C.ar    
  17 C17            8.7459    -2.8184     4.4206 C.ar    
  18 C18            9.3882    -1.6500     4.0639 C.ar    
  19 C19            9.0203    -0.9752     2.8956 C.ar    
  20 C20            8.0056    -1.4890     2.0883 C.ar    
  21 C21            9.6869     0.2372     2.5266 C.1     
  22 C22           10.2334     1.2312     2.2240 C.1     
  23 C23           10.9001     2.4437     1.8550 C.ar    
  24 C24           10.5336     3.1191     0.6879 C.ar    
  25 C25           11.1798     4.2865     0.3391 C.ar    
  26 C26           12.1891     4.7890     1.1414 C.ar    
  27 C27           12.5577     4.1254     2.2984 C.ar    
  28 C28           11.9162     2.9602     2.6632 C.ar    
  29 C29            2.2790     0.7467    -1.8383 C.3     
  30 F30            1.5207     1.4839    -2.7540 F       
  31 F31            3.4675     1.4302    -1.5597 F       
  32 F32            2.5786    -0.5066    -2.3829 F       
  33 H33           -1.4018     1.4271     0.9250 H       
  34 H34           -0.4009     0.0424     2.6930 H       
  35 H35           -0.1630     1.7736    -1.2028 H       
  36 H36            2.7823    -2.6262     1.2996 H       
  37 H37            2.3800    -2.5722    -0.4339 H       
  38 H38            4.4054    -3.9916     0.0847 H       
  39 H39            4.7513    -2.6471    -1.0347 H       
  40 H40            6.2302    -0.6986     1.9320 H       
  41 H41            5.9554    -0.4741     0.1842 H       
  42 H42            4.2005     0.7133     1.4091 H       
  43 H43            3.8229    -0.7483     2.3530 H       
  44 H44            7.2385    -4.2439     3.9134 H       
  45 H45            9.0336    -3.3355     5.3240 H       
  46 H46           10.1762    -1.2559     4.6885 H       
  47 H47            7.7171    -0.9724     1.1848 H       
  48 H48            9.7466     2.7277     0.0603 H       
  49 H49           10.8977     4.8097    -0.5627 H       
  50 H50           12.6918     5.7034     0.8631 H       
  51 H51           13.3467     4.5230     2.9194 H       
  52 H52           12.2049     2.4432     3.5665 H       
@<TRIPOS>BOND
   1    1    2 ar
   2    1    6 ar
   3    1   33 1
   4    2    3 ar
   5    2   34 1
   6    3    4 ar
   7    4    5 ar
   8    4    7 1
   9    5    6 ar
  10    5   29 1
  11    6   35 1
  12    7    8 1
  13    7   12 1
  14    8    9 1
  15    8   36 1
  16    8   37 1
  17    9   10 1
  18    9   38 1
  19    9   39 1
  20   10   11 1
  21   10   13 am
  22   11   12 1
  23   11   40 1
  24   11   41 1
  25   12   42 1
  26   12   43 1
  27   13   14 1
  28   13   15 2
  29   14   16 ar
  30   14   20 ar
  31   16   17 ar
  32   16   44 1
  33   17   18 ar
  34   17   45 1
  35   18   19 ar
  36   18   46 1
  37   19   20 ar
  38   19   21 1
  39   20   47 1
  40   21   22 3
  41   22   23 1
  42   23   24 ar
  43   23   28 ar
  44   24   25 ar
  45   24   48 1
  46   25   26 ar
  47   25   49 1
  48   26   27 ar
  49   26   50 1
  50   27   28 ar
  51   27   51 1
  52   28   52 1
  53   29   30 1
  54   29   31 1
  55   29   32 1

#	End of record

