#	Name: ASD04590799
#	Creating user name:	WinNT
#	Creation time:	15. 06. 2019 20:51

#	Modifying user name:	WinNT
#	Modification time:	15. 06. 2019 20:51

#	Program:	/corina/corina34_cracker 3.40 0067  02.08.2006

@<TRIPOS>MOLECULE
ASD04590799
  41   42    0    0    0
SMALL
NO_CHARGES


@<TRIPOS>ATOM
   1 C1            -0.0184     1.5028     0.0103 C.2     
   2 C2             0.0021    -0.0041     0.0020 C.3     
   3 O3             1.0236     2.1234     0.0037 O.2     
   4 N4            -1.1946     2.1607     0.0195 N.am    
   5 Cl5            1.7099    -0.5819    -0.0174 Cl      
   6 C6            -1.2145     3.6256     0.0275 C.3     
   7 N7            -4.8179     5.5136    -1.2838 N.3     
   8 C8            -4.1406     6.1219    -0.1316 C.3     
   9 C9            -2.6882     5.6424    -0.0803 C.3     
  10 C10           -2.6637     4.1159     0.0371 C.3     
  11 C11           -3.4173     3.5085    -1.1494 C.3     
  12 C12           -4.8485     4.0499    -1.1697 C.3     
  13 O13           -3.2936     3.7206     1.2573 O.3     
  14 C14           -6.1729     6.0575    -1.4453 C.3     
  15 C15           -6.7433     5.6015    -2.7636 C.ar    
  16 C16           -7.4584     4.4207    -2.8359 C.ar    
  17 C17           -7.9816     4.0025    -4.0452 C.ar    
  18 C18           -7.7901     4.7653    -5.1820 C.ar    
  19 C19           -7.0758     5.9465    -5.1095 C.ar    
  20 C20           -6.5563     6.3670    -3.8994 C.ar    
  21 H21           -0.4983    -0.3791     0.8948 H       
  22 H22           -0.5153    -0.3696    -0.8850 H       
  23 H23           -2.0280     1.6644     0.0207 H       
  24 H24           -0.7014     3.9910     0.9171 H       
  25 H25           -0.7098     4.0007    -0.8628 H       
  26 H26           -4.1615     7.2073    -0.2295 H       
  27 H27           -4.6519     5.8304     0.7858 H       
  28 H28           -2.1725     5.9456    -0.9914 H       
  29 H29           -2.1902     6.0819     0.7839 H       
  30 H30           -2.9130     3.7781    -2.0774 H       
  31 H31           -3.4400     2.4233    -1.0490 H       
  32 H32           -5.3565     3.7680    -0.2474 H       
  33 H33           -5.3835     3.6303    -2.0217 H       
  34 H34           -3.3156     2.7639     1.3966 H       
  35 H35           -6.8065     5.7017    -0.6328 H       
  36 H36           -6.1322     7.1465    -1.4243 H       
  37 H37           -7.6081     3.8248    -1.9478 H       
  38 H38           -8.5397     3.0796    -4.1018 H       
  39 H39           -8.1982     4.4382    -6.1269 H       
  40 H40           -6.9258     6.5423    -5.9977 H       
  41 H41           -6.0013     7.2917    -3.8420 H       
@<TRIPOS>BOND
   1    1    2 1
   2    1    3 2
   3    1    4 am
   4    2    5 1
   5    2   21 1
   6    2   22 1
   7    4    6 1
   8    4   23 1
   9    6   10 1
  10    6   24 1
  11    6   25 1
  12    7    8 1
  13    7   12 1
  14    7   14 1
  15    8    9 1
  16    8   26 1
  17    8   27 1
  18    9   10 1
  19    9   28 1
  20    9   29 1
  21   10   11 1
  22   10   13 1
  23   11   12 1
  24   11   30 1
  25   11   31 1
  26   12   32 1
  27   12   33 1
  28   13   34 1
  29   14   15 1
  30   14   35 1
  31   14   36 1
  32   15   16 ar
  33   15   20 ar
  34   16   17 ar
  35   16   37 1
  36   17   18 ar
  37   17   38 1
  38   18   19 ar
  39   18   39 1
  40   19   20 ar
  41   19   40 1
  42   20   41 1

#	End of record

