#	Name: ASD01940555
#	Creating user name:	WinNT
#	Creation time:	15. 06. 2019 20:12

#	Modifying user name:	WinNT
#	Modification time:	15. 06. 2019 20:12

#	Program:	/corina/corina34_cracker 3.40 0067  02.08.2006

@<TRIPOS>MOLECULE
ASD01940555
 109  113    0    0    0
SMALL
NO_CHARGES


@<TRIPOS>ATOM
   1 C1             0.8515    -8.0204     7.1509 C.2     
   2 C2             2.3106    -7.8047     7.0439 C.ar    
   3 C3             2.8701    -7.4013     5.8306 C.ar    
   4 C4             4.2386    -7.1988     5.7296 C.ar    
   5 C5             5.0556    -7.3968     6.8336 C.ar    
   6 C6             4.5028    -7.7999     8.0492 C.ar    
   7 C7             3.1277    -7.9982     8.1559 C.ar    
   8 O8             0.1387    -7.8466     6.1818 O.2     
   9 N9             0.3127    -8.4153     8.3215 N.am    
  10 C10           -1.1327    -8.6290     8.4275 C.3     
  11 C11           -1.4801    -9.0699     9.8508 C.3     
  12 O12           -1.1869    -8.0095    10.7628 O.3     
  13 C13           -1.4766    -8.3197    12.1273 C.3     
  14 C14           -1.1258    -7.1193    13.0088 C.3     
  15 O15           -1.9802    -6.0218    12.6809 O.3     
  16 C16           -1.7342    -4.8435    13.4512 C.3     
  17 C17           -2.7010    -3.7398    13.0176 C.3     
  18 O18           -4.0393    -4.1268    13.3356 O.3     
  19 C19           -5.0263    -3.1603    12.9699 C.3     
  20 C20            5.3468    -8.0039     9.1879 C.1     
  21 C21            6.0388    -8.1712    10.1214 C.1     
  22 N22            4.7963    -6.7947     4.5123 N.pl3   
  23 C23            4.2564    -7.2462     3.3192 C.ar    
  24 N24            4.7228    -6.7656     2.1762 N.ar    
  25 C25            4.2268    -7.1784     1.0160 C.ar    
  26 C26            3.2049    -8.1276     1.0155 C.ar    
  27 C27            2.7464    -8.6038     2.2292 C.ar    
  28 N28            3.2901    -8.1519     3.3493 N.ar    
  29 O29            4.7061    -6.6843    -0.1510 O.3     
  30 C30            5.6274    -5.6869    -0.0911 C.ar    
  31 C31            5.2253    -4.3714    -0.1325 C.ar    
  32 C32            6.1557    -3.3384    -0.0722 C.ar    
  33 C33            7.5029    -3.6068     0.0304 C.ar    
  34 C34            7.9467    -4.9449     0.0751 C.ar    
  35 C35            9.3124    -5.2548     0.1795 C.ar    
  36 C36            9.7068    -6.5571     0.2203 C.ar    
  37 C37            8.7743    -7.5908     0.1596 C.ar    
  38 C38            7.4426    -7.3275     0.0577 C.ar    
  39 C39            6.9981    -5.9955     0.0196 C.ar    
  40 N40            8.4261    -2.5577     0.0895 N.am    
  41 C41            8.1125    -1.3540    -0.4293 C.2     
  42 O42            7.0692    -1.2067    -1.0364 O.2     
  43 N43            8.9551    -0.3135    -0.2751 N.am    
  44 C44            8.5793     0.9637    -0.7138 C.ar    
  45 C45            9.5373     1.8369    -1.2176 C.ar    
  46 C46            9.1583     3.1028    -1.6519 C.ar    
  47 C47            7.8264     3.4889    -1.5806 C.ar    
  48 C48            6.8782     2.6177    -1.0787 C.ar    
  49 C49            7.2493     1.3567    -0.6514 C.ar    
  50 S50            9.9655     5.6144    -1.8979 S.o2    
  51 O51           11.1522     6.1704    -2.4472 O.2     
  52 O52            8.6893     5.9372    -2.4330 O.2     
  53 N53           10.1181     3.9863    -2.1596 N.am    
  54 C54            9.9599     5.7840    -0.0918 C.3     
  55 O55           10.8417     1.4541    -1.2851 O.3     
  56 C56           11.2676     0.8110    -2.4880 C.3     
  57 C57            5.4341     3.0419    -1.0026 C.3     
  58 C58            4.9257     3.3751    -2.4066 C.3     
  59 C59            4.5984     1.9031    -0.4145 C.3     
  60 C60            5.3121     4.2780    -0.1092 C.3     
  61 H61            2.2369    -7.2471     4.9694 H       
  62 H62            6.1209    -7.2389     6.7515 H       
  63 H63            2.6967    -8.3060     9.0971 H       
  64 H64            0.8820    -8.5579     9.0938 H       
  65 H65           -1.6552    -7.7006     8.1970 H       
  66 H66           -1.4383    -9.4025     7.7228 H       
  67 H67           -2.5408    -9.3144     9.9068 H       
  68 H68           -0.8904    -9.9483    10.1132 H       
  69 H69           -2.5373    -8.5486    12.2306 H       
  70 H70           -0.8869    -9.1825    12.4370 H       
  71 H71           -1.2627    -7.3858    14.0568 H       
  72 H72           -0.0874    -6.8349    12.8388 H       
  73 H73           -1.8837    -5.0628    14.5084 H       
  74 H74           -0.7084    -4.5119    13.2904 H       
  75 H75           -2.4559    -2.8157    13.5413 H       
  76 H76           -2.6140    -3.5822    11.9426 H       
  77 H77           -6.0148    -3.5287    13.2443 H       
  78 H78           -4.8294    -2.2243    13.4925 H       
  79 H79           -4.9876    -2.9908    11.8939 H       
  80 H80            6.6577    -8.3208    10.9563 H       
  81 H81            5.5612    -6.1982     4.5035 H       
  82 H82            2.7812    -8.4823     0.0875 H       
  83 H83            1.9562    -9.3392     2.2638 H       
  84 H84            4.1739    -4.1378    -0.2132 H       
  85 H85            5.8173    -2.3134    -0.1067 H       
  86 H86           10.0462    -4.4638     0.2268 H       
  87 H87           10.7578    -6.7926     0.3006 H       
  88 H88            9.1130    -8.6158     0.1935 H       
  89 H89            6.7311    -8.1386     0.0108 H       
  90 H90            9.2921    -2.6965     0.5039 H       
  91 H91            9.8216    -0.4484     0.1394 H       
  92 H92            7.5311     4.4716    -1.9176 H       
  93 H93            6.5040     0.6777    -0.2641 H       
  94 H94           10.8726     3.6449    -2.6646 H       
  95 H95            9.8618     6.8365     0.1740 H       
  96 H96            9.1213     5.2248     0.3230 H       
  97 H97           10.8933     5.3925     0.3128 H       
  98 H98           12.3252     0.5588    -2.4103 H       
  99 H99           10.6872    -0.0992    -2.6386 H       
 100 H100          11.1155     1.4829    -3.3327 H       
 101 H101           5.0126     2.4945    -3.0430 H       
 102 H102           3.8812     3.6819    -2.3515 H       
 103 H103           5.5210     4.1863    -2.8256 H       
 104 H104           4.9606     1.6657     0.5858 H       
 105 H105           3.5540     2.2099    -0.3594 H       
 106 H106           4.6854     1.0225    -1.0509 H       
 107 H107           5.9074     5.0892    -0.5282 H       
 108 H108           4.2676     4.5848    -0.0541 H       
 109 H109           5.6743     4.0406     0.8910 H       
@<TRIPOS>BOND
   1    1    2 1
   2    1    8 2
   3    1    9 am
   4    2    3 ar
   5    2    7 ar
   6    3    4 ar
   7    3   61 1
   8    4    5 ar
   9    4   22 1
  10    5    6 ar
  11    5   62 1
  12    6    7 ar
  13    6   20 1
  14    7   63 1
  15    9   10 1
  16    9   64 1
  17   10   11 1
  18   10   65 1
  19   10   66 1
  20   11   12 1
  21   11   67 1
  22   11   68 1
  23   12   13 1
  24   13   14 1
  25   13   69 1
  26   13   70 1
  27   14   15 1
  28   14   71 1
  29   14   72 1
  30   15   16 1
  31   16   17 1
  32   16   73 1
  33   16   74 1
  34   17   18 1
  35   17   75 1
  36   17   76 1
  37   18   19 1
  38   19   77 1
  39   19   78 1
  40   19   79 1
  41   20   21 3
  42   21   80 1
  43   22   23 1
  44   22   81 1
  45   23   24 ar
  46   23   28 ar
  47   24   25 ar
  48   25   26 ar
  49   25   29 1
  50   26   27 ar
  51   26   82 1
  52   27   28 ar
  53   27   83 1
  54   29   30 1
  55   30   31 ar
  56   30   39 ar
  57   31   32 ar
  58   31   84 1
  59   32   33 ar
  60   32   85 1
  61   33   34 ar
  62   33   40 1
  63   34   35 ar
  64   34   39 ar
  65   35   36 ar
  66   35   86 1
  67   36   37 ar
  68   36   87 1
  69   37   38 ar
  70   37   88 1
  71   38   39 ar
  72   38   89 1
  73   40   41 am
  74   40   90 1
  75   41   42 2
  76   41   43 am
  77   43   44 1
  78   43   91 1
  79   44   45 ar
  80   44   49 ar
  81   45   46 ar
  82   45   55 1
  83   46   47 ar
  84   46   53 1
  85   47   48 ar
  86   47   92 1
  87   48   49 ar
  88   48   57 1
  89   49   93 1
  90   50   51 2
  91   50   52 2
  92   50   53 am
  93   50   54 1
  94   53   94 1
  95   54   95 1
  96   54   96 1
  97   54   97 1
  98   55   56 1
  99   56   98 1
 100   56   99 1
 101   56  100 1
 102   57   58 1
 103   57   60 1
 104   57   59 1
 105   58  101 1
 106   58  102 1
 107   58  103 1
 108   59  104 1
 109   59  105 1
 110   59  106 1
 111   60  107 1
 112   60  108 1
 113   60  109 1

#	End of record

