#	Name: ASD01811854
#	Creating user name:	WinNT
#	Creation time:	15. 06. 2019 19:27

#	Modifying user name:	WinNT
#	Modification time:	15. 06. 2019 19:27

#	Program:	/corina/corina34_cracker 3.40 0067  02.08.2006

@<TRIPOS>MOLECULE
ASD01811854
  56   59    0    0    0
SMALL
NO_CHARGES


@<TRIPOS>ATOM
   1 C1             0.0459     1.1217     0.5695 C.ar    
   2 C2             0.1523    -0.2537     0.5297 C.ar    
   3 C3             1.3901    -0.8548     0.3569 C.ar    
   4 C4             2.5317    -0.0921     0.2218 C.ar    
   5 C5             2.4488     1.2991     0.2584 C.ar    
   6 C6             1.1942     1.9067     0.4340 C.ar    
   7 C7             1.1208     3.3779     0.4718 C.2     
   8 N8             3.5828     2.0720     0.1240 N.pl3   
   9 C9             3.5555     3.4108     0.1523 C.2     
  10 C10            2.3836     4.1185     0.3208 C.2     
  11 C11            2.3955     5.5894     0.3473 C.2     
  12 N12            1.2344     6.2721     0.3942 N.am    
  13 O13            3.4534     6.1895     0.3268 O.2     
  14 C14            1.2470     7.7297     0.5401 C.3     
  15 C15           -0.0536     9.7125     1.3271 C.3     
  16 C16           -0.0668     8.1902     1.1748 C.3     
  17 C17            1.4032     8.3787    -0.8367 C.3     
  18 C18            1.4164     9.9010    -0.6844 C.3     
  19 C19            0.1026    10.3614    -0.0496 C.3     
  20 C20            4.8721     1.4003    -0.0569 C.3     
  21 C21            5.1557     1.2454    -1.5288 C.ar    
  22 C22            4.6255     0.1749    -2.2249 C.ar    
  23 C23            5.9410     2.1771    -2.1822 C.ar    
  24 C24            6.2021     2.0376    -3.5315 C.ar    
  25 C25            5.6759     0.9613    -4.2310 C.ar    
  26 C26            4.8839     0.0306    -3.5743 C.ar    
  27 O27            5.9309     0.8221    -5.5586 O.3     
  28 C28            5.3564    -0.3102    -6.2143 C.3     
  29 O29           -0.2127     7.5841     2.4606 O.3     
  30 O30            0.0589     3.9571     0.6213 O.2     
  31 F31           -1.1613     1.7057     0.7329 F       
  32 F32            3.7300    -0.6932     0.0546 F       
  33 H33           -0.7322    -0.8646     0.6340 H       
  34 H34            1.4612    -1.9320     0.3281 H       
  35 H35            4.4822     3.9543     0.0413 H       
  36 H36            0.3903     5.7982     0.3315 H       
  37 H37            2.0810     8.0239     1.1772 H       
  38 H38           -0.9896    10.0405     1.7793 H       
  39 H39            0.7804    10.0067     1.9642 H       
  40 H40           -0.9008     7.8960     0.5377 H       
  41 H41            2.3392     8.0506    -1.2888 H       
  42 H42            0.5692     8.0845    -1.4738 H       
  43 H43            2.2504    10.1952    -0.0472 H       
  44 H44            1.5277    10.3633    -1.6652 H       
  45 H45           -0.7314    10.0672    -0.6868 H       
  46 H46            0.1120    11.4460     0.0589 H       
  47 H47            5.6600     1.9960     0.4042 H       
  48 H48            4.8385     0.4169     0.4121 H       
  49 H49            4.0090    -0.5494    -1.7132 H       
  50 H50            6.3505     3.0149    -1.6372 H       
  51 H51            6.8150     2.7660    -4.0416 H       
  52 H52            4.4698    -0.8060    -4.1175 H       
  53 H53            5.7231    -1.2248    -5.7482 H       
  54 H54            4.2707    -0.2682    -6.1274 H       
  55 H55            5.6373    -0.3014    -7.2675 H       
  56 H56           -1.0256     7.8317     2.9222 H       
@<TRIPOS>BOND
   1    1    2 ar
   2    1    6 ar
   3    1   31 1
   4    2    3 ar
   5    2   33 1
   6    3    4 ar
   7    3   34 1
   8    4    5 ar
   9    4   32 1
  10    5    6 ar
  11    5    8 1
  12    6    7 1
  13    7   10 1
  14    7   30 2
  15    8    9 1
  16    8   20 1
  17    9   10 2
  18    9   35 1
  19   10   11 1
  20   11   12 am
  21   11   13 2
  22   12   14 1
  23   12   36 1
  24   14   17 1
  25   14   16 1
  26   14   37 1
  27   15   16 1
  28   15   19 1
  29   15   38 1
  30   15   39 1
  31   16   29 1
  32   16   40 1
  33   17   18 1
  34   17   41 1
  35   17   42 1
  36   18   19 1
  37   18   43 1
  38   18   44 1
  39   19   45 1
  40   19   46 1
  41   20   21 1
  42   20   47 1
  43   20   48 1
  44   21   23 ar
  45   21   22 ar
  46   22   26 ar
  47   22   49 1
  48   23   24 ar
  49   23   50 1
  50   24   25 ar
  51   24   51 1
  52   25   26 ar
  53   25   27 1
  54   26   52 1
  55   27   28 1
  56   28   53 1
  57   28   54 1
  58   28   55 1
  59   29   56 1

#	End of record

