#	Name: ASD07730004
#	Creating user name:	WinNT
#	Creation time:	15. 06. 2019 21:11

#	Modifying user name:	WinNT
#	Modification time:	15. 06. 2019 21:11

#	Program:	/corina/corina34_cracker 3.40 0067  02.08.2006

@<TRIPOS>MOLECULE
ASD07730004
  41   43    0    0    0
SMALL
NO_CHARGES


@<TRIPOS>ATOM
   1 N1            -0.0205     1.3455    -0.0323 N.am    
   2 C2             0.0004    -0.0020    -0.0233 C.2     
   3 O3             1.0623    -0.5936    -0.0446 O.2     
   4 N4            -1.1558    -0.6938     0.0094 N.am    
   5 C5            -1.1402    -2.0906    -0.1041 C.ar    
   6 C6            -2.0846    -2.8572     0.5755 C.ar    
   7 C7            -2.0643    -4.2372     0.4597 C.ar    
   8 C8            -1.1085    -4.8513    -0.3288 C.ar    
   9 C9            -0.1710    -4.0914    -1.0029 C.ar    
  10 C10           -0.1883    -2.7130    -0.8974 C.ar    
  11 O11           -3.0235    -2.2520     1.3508 O.3     
  12 C12           -3.9596    -3.1011     2.0178 C.3     
  13 C13            1.1669     2.0559    -0.0659 C.2     
  14 N14            2.3615     1.5222    -0.0912 N.2     
  15 C15            3.2996     2.5045    -0.1211 C.ar    
  16 C16            2.6139     3.7308    -0.1130 C.ar    
  17 N17            1.2657     3.4173    -0.0834 N.pl3   
  18 C18            4.6961     2.4979    -0.1555 C.ar    
  19 C19            5.3851     3.6898    -0.1811 C.ar    
  20 C20            4.7033     4.8974    -0.1725 C.ar    
  21 C21            3.3242     4.9212    -0.1391 C.ar    
  22 C22            0.1524     4.3694    -0.0697 C.3     
  23 C23           -0.2032     4.7176     1.3771 C.3     
  24 H24           -0.8679     1.8175    -0.0194 H       
  25 H25           -1.9988    -0.2249     0.1114 H       
  26 H26           -2.7949    -4.8339     0.9856 H       
  27 H27           -1.0942    -5.9276    -0.4179 H       
  28 H28            0.5740    -4.5754    -1.6170 H       
  29 H29            0.5423    -2.1215    -1.4290 H       
  30 H30           -3.4249    -3.7803     2.6819 H       
  31 H31           -4.6510    -2.4925     2.6006 H       
  32 H32           -4.5167    -3.6781     1.2798 H       
  33 H33            5.2335     1.5611    -0.1616 H       
  34 H34            6.4648     3.6842    -0.2077 H       
  35 H35            5.2556     5.8254    -0.1922 H       
  36 H36            2.7991     5.8650    -0.1330 H       
  37 H37            0.4430     5.2759    -0.6006 H       
  38 H38           -0.7133     3.9233    -0.5593 H       
  39 H39           -1.0316     5.4260     1.3873 H       
  40 H40           -0.4939     3.8111     1.9080 H       
  41 H41            0.6624     5.1637     1.8667 H       
@<TRIPOS>BOND
   1    1    2 am
   2    1   13 1
   3    1   24 1
   4    2    3 2
   5    2    4 am
   6    4    5 1
   7    4   25 1
   8    5    6 ar
   9    5   10 ar
  10    6    7 ar
  11    6   11 1
  12    7    8 ar
  13    7   26 1
  14    8    9 ar
  15    8   27 1
  16    9   10 ar
  17    9   28 1
  18   10   29 1
  19   11   12 1
  20   12   30 1
  21   12   31 1
  22   12   32 1
  23   13   14 2
  24   13   17 1
  25   14   15 1
  26   15   16 ar
  27   15   18 ar
  28   16   17 1
  29   16   21 ar
  30   17   22 1
  31   18   19 ar
  32   18   33 1
  33   19   20 ar
  34   19   34 1
  35   20   21 ar
  36   20   35 1
  37   21   36 1
  38   22   23 1
  39   22   37 1
  40   22   38 1
  41   23   39 1
  42   23   40 1
  43   23   41 1

#	End of record

