#	Name: ASD05213050
#	Creating user name:	WinNT
#	Creation time:	15. 06. 2019 20:57

#	Modifying user name:	WinNT
#	Modification time:	15. 06. 2019 20:57

#	Program:	/corina/corina34_cracker 3.40 0067  02.08.2006

@<TRIPOS>MOLECULE
ASD05213050
  25   28    0    0    0
SMALL
NO_CHARGES


@<TRIPOS>ATOM
   1 O1             0.0021    -0.0041     0.0020 O.2     
   2 C2            -0.0144     1.2133     0.0087 C.2     
   3 C3             1.2471     1.9864     0.0008 C.ar    
   4 C4             2.4656     1.2988    -0.0126 C.ar    
   5 C5             3.6526     1.9955    -0.0206 C.ar    
   6 C6             3.6567     3.3823    -0.0152 C.ar    
   7 C7             2.4691     4.0827    -0.0015 C.ar    
   8 C8             1.2563     3.3988     0.0069 C.ar    
   9 C9            -0.0206     4.1358     0.0236 C.2     
  10 C10           -1.2286     3.3331     0.0315 C.ar    
  11 C11           -1.2877     1.9467     0.0186 C.ar    
  12 C12           -2.5555     1.3710     0.0297 C.ar    
  13 C13           -3.6639     2.2095     0.0531 C.ar    
  14 C14           -3.5707     3.5915     0.0652 C.ar    
  15 C15           -2.3176     4.1964     0.0478 C.ar    
  16 N16           -1.7487     5.4402     0.0491 N.pl3   
  17 N17           -0.4516     5.3725     0.0345 N.2     
  18 H18            2.4747     0.2189    -0.0163 H       
  19 H19            4.5890     1.4575    -0.0309 H       
  20 H20            4.5953     3.9166    -0.0214 H       
  21 H21            2.4796     5.1626     0.0030 H       
  22 H22           -2.6749     0.2976     0.0200 H       
  23 H23           -4.6464     1.7612     0.0618 H       
  24 H24           -4.4654     4.1960     0.0831 H       
  25 H25           -2.2513     6.2697     0.0658 H       
@<TRIPOS>BOND
   1    1    2 2
   2    2    3 1
   3    2   11 1
   4    3    4 ar
   5    3    8 ar
   6    4    5 ar
   7    4   18 1
   8    5    6 ar
   9    5   19 1
  10    6    7 ar
  11    6   20 1
  12    7    8 ar
  13    7   21 1
  14    8    9 1
  15    9   10 1
  16    9   17 2
  17   10   11 ar
  18   10   15 ar
  19   11   12 ar
  20   12   13 ar
  21   12   22 1
  22   13   14 ar
  23   13   23 1
  24   14   15 ar
  25   14   24 1
  26   15   16 1
  27   16   17 1
  28   16   25 1

#	End of record

