#	Name: ASD01882396
#	Creating user name:	WinNT
#	Creation time:	15. 06. 2019 19:44

#	Modifying user name:	WinNT
#	Modification time:	15. 06. 2019 19:44

#	Program:	/corina/corina34_cracker 3.40 0067  02.08.2006

@<TRIPOS>MOLECULE
ASD01882396
  54   58    0    0    0
SMALL
NO_CHARGES


@<TRIPOS>ATOM
   1 C1             0.3620     1.3744    -1.2952 C.2     
   2 C2             0.4669    -0.0175    -1.1328 C.2     
   3 C3             0.9139    -0.5178     0.0599 C.2     
   4 C4             1.2602     0.3697     1.1020 C.2     
   5 C5             1.1518     1.7009     0.9246 C.2     
   6 N6             0.7073     2.2099    -0.2607 N.pl3   
   7 N7             0.0618     3.3821    -1.9489 N.2     
   8 N8            -0.0207     2.1471    -2.3003 N.2     
   9 C9             0.4990     3.4770    -0.7209 C.2     
  10 C10            0.0916    -0.9474    -2.2577 C.3     
  11 F11           -1.2374    -1.3556    -2.1015 F       
  12 F12            0.2345    -0.2821    -3.4801 F       
  13 F13            0.9293    -2.0677    -2.2358 F       
  14 N14            1.0258    -1.8926     0.2447 N.pl3   
  15 C15            2.3386    -2.5215     0.4552 C.3     
  16 C16            2.2607    -3.4040     1.7056 C.3     
  17 N17            1.1375    -4.3410     1.5705 N.3     
  18 C18           -0.1447    -3.6284     1.4937 C.3     
  19 C19           -0.1660    -2.7544     0.2407 C.3     
  20 C20            3.5650    -4.1890     1.8585 C.3     
  21 C21            1.1323    -5.2698     2.6135 C.ar    
  22 C22            1.1212    -4.8344     3.9323 C.ar    
  23 C23            1.1161    -5.7561     4.9639 C.ar    
  24 C24            1.1225    -7.1120     4.6824 C.ar    
  25 C25            1.1340    -7.5483     3.3682 C.ar    
  26 C26            1.1324    -6.6301     2.3334 C.ar    
  27 F27            1.1406    -8.8717     3.0964 F       
  28 F28            1.1053    -5.3332     6.2470 F       
  29 C29            0.7325     4.7532     0.0458 C.3     
  30 C30            2.1680     5.2305    -0.1834 C.3     
  31 C31            2.5687     6.5789     0.4183 C.3     
  32 C32            3.0982     5.2805     1.0303 C.3     
  33 H33            1.6131    -0.0201     2.0454 H       
  34 H34            1.4189     2.3713     1.7281 H       
  35 H35            2.5943    -3.1337    -0.4096 H       
  36 H36            3.0955    -1.7502     0.5980 H       
  37 H37            2.1078    -2.7772     2.5842 H       
  38 H38           -0.9601    -4.3505     1.4490 H       
  39 H39           -0.2642    -2.9985     2.3752 H       
  40 H40           -1.0643    -2.1369     0.2418 H       
  41 H41           -0.1558    -3.3893    -0.6451 H       
  42 H42            4.4084    -3.4986     1.8448 H       
  43 H43            3.5543    -4.7307     2.8043 H       
  44 H44            3.6616    -4.8970     1.0354 H       
  45 H45            1.1169    -3.7771     4.1523 H       
  46 H46            1.1188    -7.8302     5.4890 H       
  47 H47            1.1361    -6.9709     1.3086 H       
  48 H48            0.0361     5.5172    -0.2996 H       
  49 H49            0.5753     4.5722     1.1091 H       
  50 H50            2.6066     4.9574    -1.1432 H       
  51 H51            3.2712     7.1928    -0.1454 H       
  52 H52            1.8097     7.1260     0.9775 H       
  53 H53            2.6875     4.9733     1.9921 H       
  54 H54            4.1491     5.0401     0.8692 H       
@<TRIPOS>BOND
   1    1    2 1
   2    1    6 1
   3    1    8 2
   4    2    3 2
   5    2   10 1
   6    3    4 1
   7    3   14 1
   8    4    5 2
   9    4   33 1
  10    5    6 1
  11    5   34 1
  12    6    9 1
  13    7    8 1
  14    7    9 2
  15    9   29 1
  16   10   11 1
  17   10   12 1
  18   10   13 1
  19   14   15 1
  20   14   19 1
  21   15   16 1
  22   15   35 1
  23   15   36 1
  24   16   17 1
  25   16   20 1
  26   16   37 1
  27   17   18 1
  28   17   21 1
  29   18   19 1
  30   18   38 1
  31   18   39 1
  32   19   40 1
  33   19   41 1
  34   20   42 1
  35   20   43 1
  36   20   44 1
  37   21   22 ar
  38   21   26 ar
  39   22   23 ar
  40   22   45 1
  41   23   24 ar
  42   23   28 1
  43   24   25 ar
  44   24   46 1
  45   25   26 ar
  46   25   27 1
  47   26   47 1
  48   29   30 1
  49   29   48 1
  50   29   49 1
  51   30   31 1
  52   30   32 1
  53   30   50 1
  54   31   32 1
  55   31   51 1
  56   31   52 1
  57   32   53 1
  58   32   54 1

#	End of record

