#	Name: ASD01811849
#	Creating user name:	WinNT
#	Creation time:	15. 06. 2019 19:27

#	Modifying user name:	WinNT
#	Modification time:	15. 06. 2019 19:27

#	Program:	/corina/corina34_cracker 3.40 0067  02.08.2006

@<TRIPOS>MOLECULE
ASD01811849
  54   57    0    0    0
SMALL
NO_CHARGES


@<TRIPOS>ATOM
   1 C1            -0.0166     1.3751     0.0096 C.ar    
   2 C2             0.0021    -0.0041     0.0020 C.ar    
   3 C3             1.2080    -0.6826    -0.0131 C.ar    
   4 C4             2.4019     0.0162    -0.0208 C.ar    
   5 C5             2.3972     1.3959    -0.0129 C.ar    
   6 C6             1.1845     2.0864     0.0020 C.ar    
   7 C7             1.2208    -2.1896    -0.0209 C.3     
   8 C8             1.1720     3.5648     0.0095 C.2     
   9 N9            -0.0008     4.2287     0.0238 N.am    
  10 O10            2.2194     4.1815     0.0028 O.2     
  11 C11           -0.0133     5.6936     0.0313 C.3     
  12 C12            3.7104    -0.7312    -0.0373 C.3     
  13 C13            4.0716    -1.0802    -1.4581 C.ar    
  14 C14            3.6412    -2.2746    -2.0060 C.ar    
  15 C15            4.8281    -0.2028    -2.2132 C.ar    
  16 C16            5.1604    -0.5198    -3.5158 C.ar    
  17 C17            4.7341    -1.7206    -4.0669 C.ar    
  18 C18            3.9707    -2.5973    -3.3079 C.ar    
  19 C19           -1.3630     7.7207     0.5779 C.3     
  20 C20           -1.3249     6.1918     0.6461 C.3     
  21 C21            0.0947     6.2143    -1.4052 C.3     
  22 C22            0.0018     7.7424    -1.3941 C.3     
  23 O23           -1.2270     8.1391    -0.7818 O.3     
  24 O24           -1.4026     5.7725     2.0100 O.3     
  25 N25            5.0698    -2.0451    -5.3888 N.pl3   
  26 C26            4.7209    -3.1755    -6.0439 C.2     
  27 C27            5.2386    -3.1043    -7.2921 C.2     
  28 C28            5.9265    -1.8911    -7.4047 C.2     
  29 N29            5.8209    -1.2531    -6.2668 N.2     
  30 H30           -0.9585     1.9036     0.0169 H       
  31 H31           -0.9265    -0.5556     0.0083 H       
  32 H32            3.3299     1.9403    -0.0181 H       
  33 H33            1.2138    -2.5477    -1.0503 H       
  34 H34            2.1188    -2.5479     0.4825 H       
  35 H35            0.3389    -2.5631     0.4997 H       
  36 H36           -0.8367     3.7366     0.0292 H       
  37 H37            0.8287     6.0624     0.6171 H       
  38 H38            4.4919    -0.1049     0.3929 H       
  39 H39            3.6140    -1.6455     0.5482 H       
  40 H40            3.0470    -2.9560    -1.4151 H       
  41 H41            5.1591     0.7313    -1.7840 H       
  42 H42            5.7509     0.1660    -4.1051 H       
  43 H43            3.6348    -3.5307    -3.7350 H       
  44 H44           -2.3129     8.0787     0.9750 H       
  45 H45           -0.5440     8.1315     1.1683 H       
  46 H46           -2.1672     5.7812     0.0892 H       
  47 H47            1.0507     5.9107    -1.8318 H       
  48 H48           -0.7189     5.8042    -2.0034 H       
  49 H49            0.8386     8.1534    -0.8295 H       
  50 H50            0.0351     8.1160    -2.4176 H       
  51 H51           -2.2073     6.0579     2.4639 H       
  52 H52            4.1345    -3.9889    -5.6429 H       
  53 H53            5.1389    -3.8521    -8.0649 H       
  54 H54            6.4506    -1.5396    -8.2811 H       
@<TRIPOS>BOND
   1    1    2 ar
   2    1    6 ar
   3    1   30 1
   4    2    3 ar
   5    2   31 1
   6    3    4 ar
   7    3    7 1
   8    4    5 ar
   9    4   12 1
  10    5    6 ar
  11    5   32 1
  12    6    8 1
  13    7   33 1
  14    7   34 1
  15    7   35 1
  16    8    9 am
  17    8   10 2
  18    9   11 1
  19    9   36 1
  20   11   21 1
  21   11   20 1
  22   11   37 1
  23   12   13 1
  24   12   38 1
  25   12   39 1
  26   13   15 ar
  27   13   14 ar
  28   14   18 ar
  29   14   40 1
  30   15   16 ar
  31   15   41 1
  32   16   17 ar
  33   16   42 1
  34   17   18 ar
  35   17   25 1
  36   18   43 1
  37   19   20 1
  38   19   23 1
  39   19   44 1
  40   19   45 1
  41   20   24 1
  42   20   46 1
  43   21   22 1
  44   21   47 1
  45   21   48 1
  46   22   23 1
  47   22   49 1
  48   22   50 1
  49   24   51 1
  50   25   26 1
  51   25   29 1
  52   26   27 2
  53   26   52 1
  54   27   28 1
  55   27   53 1
  56   28   29 2
  57   28   54 1

#	End of record

