#	Name: ASD01885910
#	Creating user name:	WinNT
#	Creation time:	15. 06. 2019 19:50

#	Modifying user name:	WinNT
#	Modification time:	15. 06. 2019 19:50

#	Program:	/corina/corina34_cracker 3.40 0067  02.08.2006

@<TRIPOS>MOLECULE
ASD01885910
  51   54    0    0    0
SMALL
NO_CHARGES


@<TRIPOS>ATOM
   1 C1            -0.0170     1.4037     0.0098 C.ar    
   2 C2            -1.2665     2.0740     0.0193 C.ar    
   3 C3            -1.2874     3.4920     0.0272 C.ar    
   4 C4            -0.0700     4.1597     0.0250 C.ar    
   5 C5             1.1199     3.4234     0.0154 C.ar    
   6 N6             1.1178     2.1038     0.0027 N.ar    
   7 C7             0.0021    -0.0041     0.0020 C.ar    
   8 C8            -1.1700    -0.6951     0.0090 C.ar    
   9 C9            -2.3952    -0.0320     0.0237 C.ar    
  10 C10           -2.4530     1.3298     0.0204 C.ar    
  11 C11           -2.5666     4.2367     0.0368 C.ar    
  12 C12           -2.7764     5.2544     0.9685 C.ar    
  13 C13           -3.9686     5.9460     0.9742 C.ar    
  14 C14           -3.5634     3.9267    -0.8894 C.ar    
  15 C15            2.4157     4.1442     0.0060 C.2     
  16 N16            3.5718     3.4518    -0.0152 N.am    
  17 O17            2.4352     5.3590     0.0175 O.2     
  18 C18           -1.1424    -2.2019     0.0132 C.3     
  19 C19           -4.9605     5.6312     0.0543 C.ar    
  20 C20           -4.7531     4.6225    -0.8778 C.ar    
  21 O21           -6.1341     6.3148     0.0628 O.3     
  22 C22           -1.1528    -2.7162    -1.4277 C.3     
  23 C23           -7.1106     5.9396    -0.9107 C.3     
  24 C24           -1.1251    -4.2229    -1.4235 C.ar    
  25 C25            0.0673    -4.9092    -1.5411 C.ar    
  26 N26            0.0541    -6.2349    -1.5331 N.ar    
  27 C27           -1.0761    -6.9018    -1.4151 C.ar    
  28 N28           -2.2367    -6.2881    -1.3008 N.ar    
  29 C29           -2.3043    -4.9602    -1.2947 C.ar    
  30 N30           -3.5261    -4.3182    -1.1744 N.pl3   
  31 H31           -0.0416     5.2393     0.0305 H       
  32 H32            0.9434    -0.5334    -0.0098 H       
  33 H33           -3.3109    -0.6043     0.0376 H       
  34 H34           -3.4089     1.8323     0.0276 H       
  35 H35           -2.0058     5.4995     1.6843 H       
  36 H36           -4.1318     6.7334     1.6951 H       
  37 H37           -3.4027     3.1427    -1.6147 H       
  38 H38            3.5562     2.4820    -0.0243 H       
  39 H39            4.4195     3.9233    -0.0213 H       
  40 H40           -0.2389    -2.5473     0.5158 H       
  41 H41           -2.0184    -2.5799     0.5402 H       
  42 H42           -5.5265     4.3803    -1.5916 H       
  43 H43           -2.0562    -2.3708    -1.9303 H       
  44 H44           -0.2767    -2.3382    -1.9547 H       
  45 H45           -6.6987     6.0774    -1.9104 H       
  46 H46           -7.3803     4.8929    -0.7700 H       
  47 H47           -7.9977     6.5622    -0.7942 H       
  48 H48            0.9994    -4.3725    -1.6387 H       
  49 H49           -1.0507    -7.9815    -1.4122 H       
  50 H50           -4.3411    -4.8379    -1.0937 H       
  51 H51           -3.5665    -3.3491    -1.1709 H       
@<TRIPOS>BOND
   1    1    7 ar
   2    1    6 ar
   3    1    2 ar
   4    2    3 ar
   5    2   10 ar
   6    3   11 1
   7    3    4 ar
   8    4    5 ar
   9    4   31 1
  10    5   15 1
  11    5    6 ar
  12    7    8 ar
  13    7   32 1
  14    8    9 ar
  15    8   18 1
  16    9   10 ar
  17    9   33 1
  18   10   34 1
  19   11   12 ar
  20   11   14 ar
  21   12   13 ar
  22   12   35 1
  23   13   19 ar
  24   13   36 1
  25   14   20 ar
  26   14   37 1
  27   15   16 am
  28   15   17 2
  29   16   38 1
  30   16   39 1
  31   18   22 1
  32   18   40 1
  33   18   41 1
  34   19   20 ar
  35   19   21 1
  36   20   42 1
  37   21   23 1
  38   22   24 1
  39   22   43 1
  40   22   44 1
  41   23   45 1
  42   23   46 1
  43   23   47 1
  44   24   25 ar
  45   24   29 ar
  46   25   26 ar
  47   25   48 1
  48   26   27 ar
  49   27   28 ar
  50   27   49 1
  51   28   29 ar
  52   29   30 1
  53   30   50 1
  54   30   51 1

#	End of record

