#	Name: ASD02610003
#	Creating user name:	WinNT
#	Creation time:	15. 06. 2019 20:25

#	Modifying user name:	WinNT
#	Modification time:	15. 06. 2019 20:25

#	Program:	/corina/corina34_cracker 3.40 0067  02.08.2006

@<TRIPOS>MOLECULE
ASD02610003
  90   92    0    0    0
SMALL
NO_CHARGES


@<TRIPOS>ATOM
   1 C1             0.3139     1.1214    -0.2530 C.3     
   2 C2             0.6867    -0.3731    -0.3605 C.3     
   3 C3             2.1909    -0.4274    -0.4507 C.2     
   4 C4             2.7261     0.7555    -0.3720 C.2     
   5 C5             1.6691     1.7996    -0.1264 C.3     
   6 C6             4.1706     1.1196    -0.6095 C.3     
   7 C7             4.5528     2.2886     0.2714 C.3     
   8 C8             4.2476     3.6377    -0.2951 C.3     
   9 C9             2.8172     4.0457    -0.0487 C.3     
  10 C10            1.8504     3.1102    -0.7764 C.3     
  11 O11            0.0941    -0.9506    -1.5537 O.3     
  12 C12           -0.2239    -2.2597    -1.5069 C.2     
  13 O13           -0.0116    -2.9009    -0.4965 O.2     
  14 C14           -0.8271    -2.9116    -2.6776 C.2     
  15 C15           -1.0903    -2.1166    -3.9305 C.3     
  16 C16           -1.1411    -4.2040    -2.6314 C.2     
  17 C17           -0.8779    -4.9991    -1.3786 C.3     
  18 C18            2.9804    -1.7008    -0.6123 C.3     
  19 O19           -0.4956     1.3658     0.9274 O.3     
  20 C20           -1.8277     1.2966     0.7778 C.2     
  21 C21           -2.7321     1.5386     1.9587 C.3     
  22 O22           -2.3017     1.0403    -0.3037 O.2     
  23 H23            1.7568     2.0165     0.9382 H       
  24 O24            0.5567     3.7632    -0.8663 O.3     
  25 C25            2.3727     2.8803    -2.1960 C.3     
  26 C26           -0.0368     4.1016     0.2892 C.2     
  27 O27            4.4917     3.6145    -1.7263 O.3     
  28 C28            4.8770     4.7665    -2.2974 C.2     
  29 C29            5.1487     4.8192    -3.7788 C.3     
  30 O30            5.0060     5.7613    -1.6238 O.2     
  31 O31            5.1021     0.0623    -0.2592 O.3     
  32 C32            6.2955     0.6548    -0.0097 C.2     
  33 C33            6.0291     2.0256     0.5958 C.3     
  34 H34            4.3127     1.3887    -1.6562 H       
  35 O35            3.8180     2.1633     1.4906 O.3     
  36 O36            6.8609     3.0141    -0.0149 O.3     
  37 C37            6.2497     1.9964     2.1095 C.3     
  38 O38            7.3833     0.1770    -0.2300 O.2     
  39 C39           -4.1914     1.4009     1.5200 C.3     
  40 C40           -5.1097     1.6465     2.7189 C.3     
  41 C41           -6.5690     1.5088     2.2803 C.3     
  42 C42           -7.4872     1.7545     3.4792 C.3     
  43 C43            5.5686     6.2374    -4.1702 C.3     
  44 C44            5.8444     6.2908    -5.6742 C.3     
  45 C45           -1.3233     4.8861     0.2740 C.3     
  46 O46            0.4606     3.7771     1.3414 O.2     
  47 H47           -0.2026     1.4561    -1.1526 H       
  48 H48            0.3450    -0.9090     0.5250 H       
  49 H49            4.9094     4.3723     0.1635 H       
  50 H50            2.6135     4.0097     1.0215 H       
  51 H51            2.6682     5.0643    -0.4071 H       
  52 H52           -0.2174    -2.1648    -4.5815 H       
  53 H53           -1.9541    -2.5319    -4.4496 H       
  54 H54           -1.2898    -1.0780    -3.6666 H       
  55 H55           -1.5844    -4.6831    -3.4918 H       
  56 H56            0.1882    -4.9788    -1.1526 H       
  57 H57           -1.4336    -4.5633    -0.5483 H       
  58 H58           -1.1980    -6.0302    -1.5286 H       
  59 H59            2.2973    -2.5493    -0.6519 H       
  60 H60            3.5577    -1.6557    -1.5358 H       
  61 H61            3.6573    -1.8185     0.2339 H       
  62 H62           -2.5163     0.8072     2.7375 H       
  63 H63           -2.5626     2.5431     2.3464 H       
  64 H64            1.5939     2.4128    -2.7984 H       
  65 H65            2.6510     3.8361    -2.6400 H       
  66 H66            3.2454     2.2282    -2.1609 H       
  67 H67            5.9490     4.1219    -4.0264 H       
  68 H68            4.2456     4.5442    -4.3238 H       
  69 H69            3.9921     2.8685     2.1290 H       
  70 H70            7.8048     2.8953     0.1581 H       
  71 H71            5.6444     1.2039     2.5497 H       
  72 H72            7.3026     1.8087     2.3197 H       
  73 H73            5.9592     2.9558     2.5376 H       
  74 H74           -4.4073     2.1322     0.7412 H       
  75 H75           -4.3610     0.3964     1.1323 H       
  76 H76           -4.8938     0.9152     3.4978 H       
  77 H77           -4.9401     2.6510     3.1067 H       
  78 H78           -6.7848     2.2402     1.5015 H       
  79 H79           -6.7386     0.5043     1.8926 H       
  80 H80           -7.2714     1.0231     4.2581 H       
  81 H81           -7.3177     2.7589     3.8670 H       
  82 H82           -8.5269     1.6563     3.1667 H       
  83 H83            4.7682     6.9347    -3.9226 H       
  84 H84            6.4716     6.5124    -3.6252 H       
  85 H85            4.9414     6.0158    -6.2192 H       
  86 H86            6.1436     7.3012    -5.9531 H       
  87 H87            6.6448     5.5935    -5.9218 H       
  88 H88           -2.0876     4.3203    -0.2587 H       
  89 H89           -1.6516     5.0655     1.2978 H       
  90 H90           -1.1614     5.8399    -0.2280 H       
@<TRIPOS>BOND
   1    1    2 1
   2    1    5 1
   3    1   19 1
   4    1   47 1
   5    2    3 1
   6    2   11 1
   7    2   48 1
   8    3    4 2
   9    3   18 1
  10    4    5 1
  11    4    6 1
  12    5   10 1
  13    5   23 1
  14    6    7 1
  15    6   31 1
  16    6   34 1
  17    7   33 1
  18    7   35 1
  19    7    8 1
  20    8    9 1
  21    8   27 1
  22    8   49 1
  23    9   10 1
  24    9   50 1
  25    9   51 1
  26   10   24 1
  27   10   25 1
  28   11   12 1
  29   12   13 2
  30   12   14 1
  31   14   15 1
  32   14   16 2
  33   15   52 1
  34   15   53 1
  35   15   54 1
  36   16   17 1
  37   16   55 1
  38   17   56 1
  39   17   57 1
  40   17   58 1
  41   18   59 1
  42   18   60 1
  43   18   61 1
  44   19   20 1
  45   20   21 1
  46   20   22 2
  47   21   39 1
  48   21   62 1
  49   21   63 1
  50   24   26 1
  51   25   64 1
  52   25   65 1
  53   25   66 1
  54   26   45 1
  55   26   46 2
  56   27   28 1
  57   28   29 1
  58   28   30 2
  59   29   43 1
  60   29   67 1
  61   29   68 1
  62   31   32 1
  63   32   33 1
  64   32   38 2
  65   33   36 1
  66   33   37 1
  67   35   69 1
  68   36   70 1
  69   37   71 1
  70   37   72 1
  71   37   73 1
  72   39   40 1
  73   39   74 1
  74   39   75 1
  75   40   41 1
  76   40   76 1
  77   40   77 1
  78   41   42 1
  79   41   78 1
  80   41   79 1
  81   42   80 1
  82   42   81 1
  83   42   82 1
  84   43   44 1
  85   43   83 1
  86   43   84 1
  87   44   85 1
  88   44   86 1
  89   44   87 1
  90   45   88 1
  91   45   89 1
  92   45   90 1

#	End of record

