#	Name: ASD03320069
#	Creating user name:	WinNT
#	Creation time:	15. 06. 2019 20:36

#	Modifying user name:	WinNT
#	Modification time:	15. 06. 2019 20:36

#	Program:	/corina/corina34_cracker 3.40 0067  02.08.2006

@<TRIPOS>MOLECULE
ASD03320069
  52   55    0    0    0
SMALL
NO_CHARGES


@<TRIPOS>ATOM
   1 C1            -0.0248     1.3859    -0.0237 C.2     
   2 C2            -0.1096    -0.0871    -0.0187 C.ar    
   3 C3             1.0545    -0.8648    -0.0699 C.ar    
   4 C4             0.9220    -2.2508    -0.0630 C.ar    
   5 C5            -0.3659    -2.8114    -0.0052 C.ar    
   6 N6            -1.4396    -2.0371     0.0420 N.ar    
   7 C7            -1.3514    -0.7237     0.0429 C.ar    
   8 O8             1.0605     1.9322    -0.0725 O.2     
   9 N9            -1.1504     2.1259     0.0202 N.am    
  10 C10           -1.0683     3.5191     0.1359 C.ar    
  11 C11           -2.0991     4.3177    -0.3416 C.ar    
  12 C12           -2.0177     5.6914    -0.2268 C.ar    
  13 C13           -0.9066     6.2736     0.3655 C.ar    
  14 C14            0.1238     5.4765     0.8424 C.ar    
  15 C15            0.0412     4.1024     0.7334 C.ar    
  16 O16           -0.8271     7.6263     0.4783 O.3     
  17 C17            0.3452     8.1579     1.0988 C.3     
  18 F18            0.4460     7.6653     2.4043 F       
  19 F19            1.4745     7.7747     0.3673 F       
  20 Cl20           0.2392     9.9572     1.1419 Cl      
  21 N21            2.2466    -4.2735    -0.8301 N.pl3   
  22 N22            3.5330    -4.7770    -0.5983 N.2     
  23 C23            4.1557    -3.9661     0.2189 C.2     
  24 C24            3.2976    -2.9148     0.5424 C.2     
  25 C25            2.1176    -3.1197    -0.1160 C.2     
  26 N26           -0.5134    -4.1862     0.0020 N.3     
  27 C27           -1.8366    -4.5801    -0.5287 C.3     
  28 C28           -2.2786    -5.8353     0.2462 C.3     
  29 C29           -1.1440    -6.1035     1.2614 C.3     
  30 C30           -0.4572    -4.7204     1.3868 C.3     
  31 C31           -2.4296    -7.0223    -0.7074 C.3     
  32 O32           -2.9509    -8.1443     0.0076 O.3     
  33 H33            2.0291    -0.4014    -0.1140 H       
  34 H34           -2.2523    -0.1297     0.0874 H       
  35 H35           -2.0173     1.6935    -0.0284 H       
  36 H36           -2.9640     3.8646    -0.8031 H       
  37 H37           -2.8192     6.3126    -0.5984 H       
  38 H38            0.9887     5.9305     1.3031 H       
  39 H39            0.8412     3.4817     1.1090 H       
  40 H40            1.5704    -4.6721    -1.4000 H       
  41 H41            5.1652    -4.0901     0.5821 H       
  42 H42            3.5252    -2.0865     1.1970 H       
  43 H43           -2.5543    -3.7749    -0.3717 H       
  44 H44           -1.7573    -4.8085    -1.5915 H       
  45 H45           -3.2167    -5.6468     0.7682 H       
  46 H46           -1.5522    -6.4199     2.2213 H       
  47 H47           -0.4471    -6.8465     0.8736 H       
  48 H48            0.5764    -4.8324     1.7142 H       
  49 H49           -1.0107    -4.0765     2.0702 H       
  50 H50           -3.1129    -6.7559    -1.5138 H       
  51 H51           -1.4561    -7.2783    -1.1257 H       
  52 H52           -3.0728    -8.9348    -0.5358 H       
@<TRIPOS>BOND
   1    1    2 1
   2    1    8 2
   3    1    9 am
   4    2    3 ar
   5    2    7 ar
   6    3    4 ar
   7    3   33 1
   8    4    5 ar
   9    4   25 1
  10    5    6 ar
  11    5   26 1
  12    6    7 ar
  13    7   34 1
  14    9   10 1
  15    9   35 1
  16   10   11 ar
  17   10   15 ar
  18   11   12 ar
  19   11   36 1
  20   12   13 ar
  21   12   37 1
  22   13   14 ar
  23   13   16 1
  24   14   15 ar
  25   14   38 1
  26   15   39 1
  27   16   17 1
  28   17   18 1
  29   17   19 1
  30   17   20 1
  31   21   22 1
  32   21   25 1
  33   21   40 1
  34   22   23 2
  35   23   24 1
  36   23   41 1
  37   24   25 2
  38   24   42 1
  39   26   27 1
  40   26   30 1
  41   27   28 1
  42   27   43 1
  43   27   44 1
  44   28   29 1
  45   28   31 1
  46   28   45 1
  47   29   30 1
  48   29   46 1
  49   29   47 1
  50   30   48 1
  51   30   49 1
  52   31   32 1
  53   31   50 1
  54   31   51 1
  55   32   52 1

#	End of record

