#	Name: ASD01180141
#	Creating user name:	WinNT
#	Creation time:	15. 06. 2019 19:06

#	Modifying user name:	WinNT
#	Modification time:	15. 06. 2019 19:06

#	Program:	/corina/corina34_cracker 3.40 0067  02.08.2006

@<TRIPOS>MOLECULE
ASD01180141
  45   46    0    0    0
SMALL
NO_CHARGES


@<TRIPOS>ATOM
   1 C1            -0.0180     1.4754     0.0102 C.2     
   2 C2             0.0021    -0.0041     0.0020 C.ar    
   3 C3             1.2207    -0.6851    -0.0133 C.ar    
   4 C4             1.2405    -2.0626    -0.0209 C.ar    
   5 C5             0.0397    -2.7785    -0.0132 C.ar    
   6 C6            -1.1801    -2.0956     0.0021 C.ar    
   7 C7            -1.1976    -0.7181     0.0154 C.ar    
   8 O8             1.0253     2.0968     0.0035 O.2     
   9 O9            -1.1934     2.1329     0.0193 O.3     
  10 C10            0.0597    -4.2525    -0.0218 C.2     
  11 O11            1.1176    -4.8442    -0.0355 O.2     
  12 C12           -1.2350    -5.0236    -0.0136 C.3     
  13 C13           -1.1166    -6.4326    -0.6183 C.3     
  14 C14           -2.0428    -6.9103     0.5126 C.3     
  15 C15           -1.5343    -5.7106     1.3293 C.3     
  16 C16           -3.5300    -6.8276     0.1629 C.3     
  17 C17           -1.6437    -8.2653     1.1005 C.3     
  18 C18           -1.1371     3.5838     0.0269 C.3     
  19 C19           -0.4026     4.0722    -1.2232 C.3     
  20 C20           -2.5587     4.1493     0.0367 C.3     
  21 C21           -0.3907     4.0587     1.2752 C.3     
  22 H22            2.1482    -0.1319    -0.0195 H       
  23 H23            2.1833    -2.5893    -0.0331 H       
  24 H24           -2.1083    -2.6477     0.0080 H       
  25 H25           -2.1397    -0.1903     0.0317 H       
  26 H26           -2.0728    -4.4484    -0.4076 H       
  27 H27           -1.5584    -6.5203    -1.6109 H       
  28 H28           -0.1104    -6.8481    -0.5635 H       
  29 H29           -0.6423    -5.9287     1.9165 H       
  30 H30           -2.3133    -5.2154     1.9090 H       
  31 H31           -3.7335    -7.4496    -0.7088 H       
  32 H32           -4.1220    -7.1806     1.0074 H       
  33 H33           -3.7941    -5.7936    -0.0589 H       
  34 H34           -0.6360    -8.2007     1.5108 H       
  35 H35           -2.3416    -8.5376     1.8922 H       
  36 H36           -1.6692    -9.0229     0.3172 H       
  37 H37           -0.9343     3.7339    -2.1125 H       
  38 H38           -0.3603     5.1614    -1.2175 H       
  39 H39            0.6102     3.6694    -1.2302 H       
  40 H40           -3.0820     3.8013     0.9273 H       
  41 H41           -2.5165     5.2385     0.0425 H       
  42 H42           -3.0905     3.8110    -0.8526 H       
  43 H43            0.6221     3.6558     1.2682 H       
  44 H44           -0.3484     5.1478     1.2810 H       
  45 H45           -0.9140     3.7107     2.1658 H       
@<TRIPOS>BOND
   1    1    2 1
   2    1    8 2
   3    1    9 1
   4    2    3 ar
   5    2    7 ar
   6    3    4 ar
   7    3   22 1
   8    4    5 ar
   9    4   23 1
  10    5    6 ar
  11    5   10 1
  12    6    7 ar
  13    6   24 1
  14    7   25 1
  15    9   18 1
  16   10   11 2
  17   10   12 1
  18   12   13 1
  19   12   15 1
  20   12   26 1
  21   13   14 1
  22   13   27 1
  23   13   28 1
  24   14   15 1
  25   14   16 1
  26   14   17 1
  27   15   29 1
  28   15   30 1
  29   16   31 1
  30   16   32 1
  31   16   33 1
  32   17   34 1
  33   17   35 1
  34   17   36 1
  35   18   19 1
  36   18   21 1
  37   18   20 1
  38   19   37 1
  39   19   38 1
  40   19   39 1
  41   20   40 1
  42   20   41 1
  43   20   42 1
  44   21   43 1
  45   21   44 1
  46   21   45 1

#	End of record

