#	Name: ASD00431171
#	Creating user name:	WinNT
#	Creation time:	15. 06. 2019 18:35

#	Modifying user name:	WinNT
#	Modification time:	15. 06. 2019 18:35

#	Program:	/corina/corina34_cracker 3.40 0067  02.08.2006

@<TRIPOS>MOLECULE
ASD00431171
  47   49    0    0    0
SMALL
NO_CHARGES


@<TRIPOS>ATOM
   1 C1             0.0406     1.4553     0.1526 C.2     
   2 C2             0.1106    -0.0488     0.2152 C.3     
   3 O3             1.0605     2.1072     0.0773 O.2     
   4 N4            -1.1557     2.0757     0.1748 N.am    
   5 C5            -1.2238     3.5378     0.1139 C.3     
   6 C6            -1.1809     3.9900    -1.3471 C.3     
   7 O7            -3.7145     3.4346     0.6301 O.3     
   8 N8            -4.5608     4.0338     1.2519 N.2     
   9 C9            -4.0536     5.0774     1.8661 C.2     
  10 C10           -2.6651     5.0875     1.5446 C.2     
  11 C11           -2.5077     4.0078     0.7478 C.2     
  12 S12           -4.0693     7.4399     3.5293 S.3     
  13 C13           -5.5969     7.8491     4.1784 C.2     
  14 N14           -6.4941     6.9955     3.7911 N.2     
  15 C15           -6.0927     6.0175     3.0091 C.2     
  16 C16           -4.7755     6.0452     2.7167 C.2     
  17 O17           -5.8363     8.9120     4.9826 O.3     
  18 C18           -7.4222    10.1683     6.2412 C.ar    
  19 C19           -7.1279     9.1929     5.3018 C.ar    
  20 C20           -8.1711     8.5044     4.6887 C.ar    
  21 C21           -9.4700     8.8236     5.0441 C.ar    
  22 C22           -9.6883     9.8128     5.9936 C.ar    
  23 N23           -8.6729    10.4462     6.5560 N.ar    
  24 O24          -10.9587    10.1332     6.3490 O.3     
  25 C25          -11.1187    11.1590     7.3309 C.3     
  26 C26          -12.4375    11.8958     7.0885 C.3     
  27 C27          -11.1341    10.5314     8.7262 C.3     
  28 H28            1.1529    -0.3657     0.1813 H       
  29 H29           -0.3445    -0.3954     1.1430 H       
  30 H30           -0.4261    -0.4731    -0.6333 H       
  31 H31           -1.9716     1.5541     0.2310 H       
  32 H32           -0.3763     3.9637     0.6511 H       
  33 H33           -2.0284     3.5642    -1.8842 H       
  34 H34           -1.2316     5.0779    -1.3924 H       
  35 H35           -0.2523     3.6501    -1.8055 H       
  36 H36           -1.9133     5.7941     1.8638 H       
  37 H37           -6.7603     5.2563     2.6332 H       
  38 H38           -6.6184    10.7037     6.7246 H       
  39 H39           -7.9714     7.7396     3.9529 H       
  40 H40          -10.3034     8.3098     4.5882 H       
  41 H41          -10.2902    11.8636     7.2585 H       
  42 H42          -13.2660    11.1912     7.1609 H       
  43 H43          -12.5594    12.6783     7.8375 H       
  44 H44          -12.4265    12.3429     6.0945 H       
  45 H45          -10.1945    10.0065     8.8988 H       
  46 H46          -11.2560    11.3139     9.4752 H       
  47 H47          -11.9626     9.8268     8.7986 H       
@<TRIPOS>BOND
   1    1    2 1
   2    1    3 2
   3    1    4 am
   4    2   28 1
   5    2   29 1
   6    2   30 1
   7    4    5 1
   8    4   31 1
   9    5    6 1
  10    5   11 1
  11    5   32 1
  12    6   33 1
  13    6   34 1
  14    6   35 1
  15    7    8 1
  16    7   11 1
  17    8    9 2
  18    9   10 1
  19    9   16 1
  20   10   11 2
  21   10   36 1
  22   12   13 1
  23   12   16 1
  24   13   14 2
  25   13   17 1
  26   14   15 1
  27   15   16 2
  28   15   37 1
  29   17   19 1
  30   18   19 ar
  31   18   23 ar
  32   18   38 1
  33   19   20 ar
  34   20   21 ar
  35   20   39 1
  36   21   22 ar
  37   21   40 1
  38   22   23 ar
  39   22   24 1
  40   24   25 1
  41   25   26 1
  42   25   27 1
  43   25   41 1
  44   26   42 1
  45   26   43 1
  46   26   44 1
  47   27   45 1
  48   27   46 1
  49   27   47 1

#	End of record

