#	Name: ASD00843456
#	Creating user name:	WinNT
#	Creation time:	15. 06. 2019 18:46

#	Modifying user name:	WinNT
#	Modification time:	15. 06. 2019 18:46

#	Program:	/corina/corina34_cracker 3.40 0067  02.08.2006

@<TRIPOS>MOLECULE
ASD00843456
  87   92    0    0    0
SMALL
NO_CHARGES


@<TRIPOS>ATOM
   1 F1             5.6092    -2.3682    -2.1892 F       
   2 N2             0.7575     1.1419    -0.6227 N.ar    
   3 C3             0.9636    -0.1481    -0.8287 C.ar    
   4 C4             0.8563    -1.0577     0.2159 C.ar    
   5 C5             0.5300    -0.5966     1.4792 C.ar    
   6 C6             0.3216     0.7648     1.6538 C.ar    
   7 C7             0.4451     1.6113     0.5704 C.ar    
   8 C8             1.0915    -2.5268    -0.0236 C.3     
   9 C9             0.7850    -3.3237     1.2265 C.2     
  10 C10            0.2409    -3.0203    -1.1958 C.3     
  11 C11           -1.2053    -2.6781    -0.9461 C.2     
  12 N12           -2.1530    -3.0814    -1.8154 N.am    
  13 O13           -1.5164    -2.0398     0.0371 O.2     
  14 C14           -3.5499    -2.6572    -1.6499 C.3     
  15 C15           -4.4445    -3.9007    -1.6358 C.3     
  16 C16           -4.1836    -4.7262    -2.8978 C.3     
  17 C17           -2.7229    -5.1822    -2.9181 C.3     
  18 C18           -1.8078    -3.9487    -2.9500 C.3     
  19 N19           -5.0637    -5.9024    -2.9038 N.3     
  20 C20           -4.9262    -6.6566    -4.1576 C.3     
  21 C21           -5.7970    -7.9135    -4.0918 C.3     
  22 N22           -7.1962    -7.5256    -3.8646 N.3     
  23 C23           -7.3336    -6.7714    -2.6109 C.3     
  24 C24           -6.4628    -5.5145    -2.6766 C.3     
  25 H25           -7.5564    -6.9977    -4.6455 H       
  26 O26           -0.2869    -3.3969     1.7893 O.2     
  27 N27            1.9232    -3.9353     1.5950 N.am    
  28 C28            2.5570    -2.7935    -0.2799 C.ar    
  29 C29            2.9822    -3.6450     0.7321 C.ar    
  30 C30            3.4291    -2.3657    -1.2554 C.ar    
  31 C31            4.7496    -2.7857    -1.2342 C.ar    
  32 C32            5.1853    -3.6351    -0.2298 C.ar    
  33 C33            4.3105    -4.0641     0.7485 C.ar    
  34 Cl34           6.8391    -4.1624    -0.2015 Cl      
  35 C35            1.6894    -6.5594     2.3909 C.ar    
  36 C36            0.4178    -6.8742     1.9350 C.ar    
  37 C37            2.6705    -7.5317     2.4240 C.ar    
  38 C38            2.3857    -8.8173     2.0029 C.ar    
  39 C39            1.1188    -9.1337     1.5480 C.ar    
  40 C40            0.1344    -8.1654     1.5133 C.ar    
  41 H41            0.8988   -10.1387     1.2195 H       
  42 O42           -0.5490    -5.9197     1.9018 O.3     
  43 C43           -1.8350    -6.3154     1.4204 C.3     
  44 C44           -2.7843    -5.1160     1.4567 C.3     
  45 S45            2.0554    -4.9192     2.9204 S.o2    
  46 O46            3.4276    -4.9134     3.2892 O.2     
  47 O47            1.0108    -4.5412     3.8065 O.2     
  48 O48            1.2824    -0.5875    -2.0721 O.3     
  49 C49            1.2874     0.3825    -3.1214 C.3     
  50 C50            1.7698    -0.2712    -4.4179 C.3     
  51 F51            3.0277    -0.8470    -4.2099 F       
  52 F52            0.8618    -1.2622    -4.8064 F       
  53 H53            0.4392    -1.2804     2.3102 H       
  54 H54            0.0653     1.1573     2.6267 H       
  55 H55            0.2844     2.6713     0.7010 H       
  56 H56            0.5747    -2.5388    -2.1150 H       
  57 H57            0.3472    -4.1008    -1.2923 H       
  58 H58           -3.6590    -2.1179    -0.7090 H       
  59 H59           -3.8361    -2.0105    -2.4794 H       
  60 H60           -4.2185    -4.5015    -0.7549 H       
  61 H61           -5.4907    -3.5959    -1.6103 H       
  62 H62           -4.3861    -4.1169    -3.7786 H       
  63 H63           -2.5131    -5.7710    -2.0251 H       
  64 H64           -2.5437    -5.7897    -3.8053 H       
  65 H65           -1.9533    -3.4099    -3.8862 H       
  66 H66           -0.7676    -4.2631    -2.8648 H       
  67 H67           -5.2476    -6.0348    -4.9931 H       
  68 H68           -3.8839    -6.9433    -4.2971 H       
  69 H69           -5.7191    -8.4595    -5.0320 H       
  70 H70           -5.4581    -8.5483    -3.2731 H       
  71 H71           -8.3760    -6.4847    -2.4713 H       
  72 H72           -7.0122    -7.3932    -1.7753 H       
  73 H73           -6.5407    -4.9685    -1.7364 H       
  74 H74           -6.8017    -4.8797    -3.4953 H       
  75 H75            3.0846    -1.7040    -2.0363 H       
  76 H76            4.6570    -4.7261     1.5284 H       
  77 H77            3.6608    -7.2871     2.7789 H       
  78 H78            3.1542    -9.5758     2.0290 H       
  79 H79           -0.8552    -8.4131     1.1585 H       
  80 H80           -1.7443    -6.6761     0.3958 H       
  81 H81           -2.2304    -7.1109     2.0520 H       
  82 H82           -2.8751    -4.7553     2.4812 H       
  83 H83           -2.3889    -4.3205     0.8251 H       
  84 H84           -3.7652    -5.4178     1.0895 H       
  85 H85            0.2783     0.7695    -3.2632 H       
  86 H86            1.9566     1.2011    -2.8564 H       
  87 H87            1.8407     0.4837    -5.2010 H       
@<TRIPOS>BOND
   1    1   31 1
   2    2    3 ar
   3    2    7 ar
   4    3    4 ar
   5    3   48 1
   6    4    5 ar
   7    4    8 1
   8    5    6 ar
   9    5   53 1
  10    6    7 ar
  11    6   54 1
  12    7   55 1
  13    8    9 1
  14    8   10 1
  15    8   28 1
  16    9   26 2
  17    9   27 am
  18   10   11 1
  19   10   56 1
  20   10   57 1
  21   11   12 am
  22   11   13 2
  23   12   14 1
  24   12   18 1
  25   14   15 1
  26   14   58 1
  27   14   59 1
  28   15   16 1
  29   15   60 1
  30   15   61 1
  31   16   17 1
  32   16   19 1
  33   16   62 1
  34   17   18 1
  35   17   63 1
  36   17   64 1
  37   18   65 1
  38   18   66 1
  39   19   20 1
  40   19   24 1
  41   20   21 1
  42   20   67 1
  43   20   68 1
  44   21   22 1
  45   21   69 1
  46   21   70 1
  47   22   23 1
  48   22   25 1
  49   23   24 1
  50   23   71 1
  51   23   72 1
  52   24   73 1
  53   24   74 1
  54   27   45 am
  55   27   29 1
  56   28   29 ar
  57   28   30 ar
  58   29   33 ar
  59   30   31 ar
  60   30   75 1
  61   31   32 ar
  62   32   33 ar
  63   32   34 1
  64   33   76 1
  65   35   36 ar
  66   35   37 ar
  67   35   45 1
  68   36   42 1
  69   36   40 ar
  70   37   38 ar
  71   37   77 1
  72   38   39 ar
  73   38   78 1
  74   39   40 ar
  75   39   41 1
  76   40   79 1
  77   42   43 1
  78   43   44 1
  79   43   80 1
  80   43   81 1
  81   44   82 1
  82   44   83 1
  83   44   84 1
  84   45   46 2
  85   45   47 2
  86   48   49 1
  87   49   50 1
  88   49   85 1
  89   49   86 1
  90   50   51 1
  91   50   52 1
  92   50   87 1

#	End of record

