#	Name: ASD01910520
#	Creating user name:	WinNT
#	Creation time:	15. 06. 2019 19:56

#	Modifying user name:	WinNT
#	Modification time:	15. 06. 2019 19:56

#	Program:	/corina/corina34_cracker 3.40 0067  02.08.2006

@<TRIPOS>MOLECULE
ASD01910520
  47   51    0    0    0
SMALL
NO_CHARGES


@<TRIPOS>ATOM
   1 N1            -0.0634     2.8998     0.8062 N.2     
   2 C2            -0.1438     1.8732    -0.0030 C.2     
   3 N3             1.1220     1.5279    -0.3355 N.2     
   4 C4             1.8952     2.3736     0.2980 C.2     
   5 O5             1.0986     3.1968     0.9871 O.3     
   6 C6            -1.3846     1.2147    -0.4660 C.2     
   7 N7            -2.6613     1.5874    -0.1112 N.pl3   
   8 C8            -3.5753     0.7601    -0.7230 C.ar    
   9 C9            -2.8524    -0.1706    -1.4934 C.ar    
  10 C10           -1.4394     0.1547    -1.3097 C.2     
  11 C11            3.9555     2.2148     1.6724 C.3     
  12 C12            3.4011     2.4117     0.2579 C.3     
  13 C13            3.8636     3.7667    -0.2829 C.3     
  14 C14            5.3920     3.7944    -0.3549 C.3     
  15 C15            5.9689     3.6131     1.0527 C.3     
  16 N16            5.4145     2.3840     1.6363 N.am    
  17 C17            6.2289     1.4297     2.1288 C.2     
  18 C18            7.6894     1.5559     1.9752 C.2     
  19 O19            5.7587     0.4645     2.7000 O.2     
  20 C20           -4.9655     0.6978    -0.7077 C.ar    
  21 C21           -5.6158    -0.2688    -1.4426 C.ar    
  22 C22           -4.8986    -1.1850    -2.2007 C.ar    
  23 C23           -3.5339    -1.1434    -2.2312 C.ar    
  24 C24            8.4538     1.9804     0.7922 C.2     
  25 N25            9.7019     1.9284     1.1527 N.2     
  26 O26            9.8337     1.5639     2.2953 O.3     
  27 C27            8.6722     1.3120     2.9033 C.2     
  28 C28            8.4785     0.8426     4.3221 C.3     
  29 H29           -2.8833     2.3225     0.4815 H       
  30 H30           -0.5988    -0.3560    -1.7559 H       
  31 H31            3.5182     2.9549     2.3425 H       
  32 H32            3.7125     1.2120     2.0237 H       
  33 H33            3.7685     1.6165    -0.3908 H       
  34 H34            3.4502     3.9200    -1.2797 H       
  35 H35            3.5168     4.5596     0.3798 H       
  36 H36            5.7407     2.9862    -0.9978 H       
  37 H37            5.7198     4.7509    -0.7620 H       
  38 H38            7.0544     3.5330     0.9951 H       
  39 H39            5.6958     4.4673     1.6723 H       
  40 H40           -5.5328     1.4051    -0.1209 H       
  41 H41           -6.6947    -0.3148    -1.4288 H       
  42 H42           -5.4244    -1.9366    -2.7708 H       
  43 H43           -2.9831    -1.8593    -2.8231 H       
  44 H44            8.0617     2.2729    -0.1706 H       
  45 H45            9.4499     0.7315     4.8039 H       
  46 H46            7.8833     1.5741     4.8688 H       
  47 H47            7.9621    -0.1173     4.3199 H       
@<TRIPOS>BOND
   1    1    2 2
   2    1    5 1
   3    2    3 1
   4    2    6 1
   5    3    4 2
   6    4    5 1
   7    4   12 1
   8    6    7 1
   9    6   10 2
  10    7    8 1
  11    7   29 1
  12    8    9 ar
  13    8   20 ar
  14    9   10 1
  15    9   23 ar
  16   10   30 1
  17   11   12 1
  18   11   16 1
  19   11   31 1
  20   11   32 1
  21   12   13 1
  22   12   33 1
  23   13   14 1
  24   13   34 1
  25   13   35 1
  26   14   15 1
  27   14   36 1
  28   14   37 1
  29   15   16 1
  30   15   38 1
  31   15   39 1
  32   16   17 am
  33   17   18 1
  34   17   19 2
  35   18   24 1
  36   18   27 2
  37   20   21 ar
  38   20   40 1
  39   21   22 ar
  40   21   41 1
  41   22   23 ar
  42   22   42 1
  43   23   43 1
  44   24   25 2
  45   24   44 1
  46   25   26 1
  47   26   27 1
  48   27   28 1
  49   28   45 1
  50   28   46 1
  51   28   47 1

#	End of record

