#	Name: ASD04550063
#	Creating user name:	WinNT
#	Creation time:	15. 06. 2019 20:49

#	Modifying user name:	WinNT
#	Modification time:	15. 06. 2019 20:49

#	Program:	/corina/corina34_cracker 3.40 0067  02.08.2006

@<TRIPOS>MOLECULE
ASD04550063
  35   35    0    0    0
SMALL
NO_CHARGES


@<TRIPOS>ATOM
   1 C1            -0.0167     1.3831     0.0096 C.ar    
   2 C2             0.0021    -0.0041     0.0020 C.ar    
   3 C3             1.2141    -0.6789    -0.0132 C.ar    
   4 C4             2.3989     0.0314    -0.0207 C.ar    
   5 C5             2.3774     1.4139    -0.0126 C.ar    
   6 C6             1.1708     2.0889     0.0021 C.ar    
   7 C7             3.6714     2.1863    -0.0198 C.3     
   8 C8             3.7284     3.0742    -1.2645 C.3     
   9 O9            -1.1648    -0.7006     0.0099 O.3     
  10 S10           -1.7101    -1.0105    -1.3769 S.o2    
  11 O11           -3.0259    -1.4906    -1.1368 O.2     
  12 O12           -1.4892     0.1834    -2.1151 O.2     
  13 C13            3.7497     3.0468     1.2149 C.2     
  14 O14            2.8439     3.0340     2.0214 O.2     
  15 N15            4.8262     3.8305     1.4230 N.am    
  16 S16            4.9122     4.7760     2.7799 S.o2    
  17 O17            6.1476     5.4659     2.6485 O.2     
  18 O18            3.6780     5.4800     2.7952 O.2     
  19 C19           -0.6479    -2.3457    -1.9931 C.3     
  20 F20           -0.7408    -3.4482    -1.1370 F       
  21 F21           -1.0619    -2.7160    -3.2771 F       
  22 F22            0.6781    -1.9024    -2.0404 F       
  23 C23            4.9870     3.5923     4.1524 C.3     
  24 F24            6.1182     2.7818     4.0081 F       
  25 F25            5.0630     4.2874     5.3641 F       
  26 F26            3.8377     2.7948     4.1436 F       
  27 H27           -0.9590     1.9108     0.0170 H       
  28 H28            1.2314    -1.7588    -0.0188 H       
  29 H29            3.3426    -0.4935    -0.0325 H       
  30 H30            1.1567     3.1688     0.0084 H       
  31 H31            4.5100     1.4902    -0.0313 H       
  32 H32            2.8898     3.7703    -1.2530 H       
  33 H33            4.6643     3.6329    -1.2698 H       
  34 H34            3.6718     2.4518    -2.1576 H       
  35 H35            5.5506     3.8407     0.7781 H       
@<TRIPOS>BOND
   1    1    2 ar
   2    1    6 ar
   3    1   27 1
   4    2    3 ar
   5    2    9 1
   6    3    4 ar
   7    3   28 1
   8    4    5 ar
   9    4   29 1
  10    5    6 ar
  11    5    7 1
  12    6   30 1
  13    7    8 1
  14    7   13 1
  15    7   31 1
  16    8   32 1
  17    8   33 1
  18    8   34 1
  19    9   10 1
  20   10   11 2
  21   10   12 2
  22   10   19 1
  23   13   14 2
  24   13   15 am
  25   15   16 am
  26   15   35 1
  27   16   17 2
  28   16   18 2
  29   16   23 1
  30   19   20 1
  31   19   21 1
  32   19   22 1
  33   23   24 1
  34   23   25 1
  35   23   26 1

#	End of record

