#	Name: ASD03090173
#	Creating user name:	WinNT
#	Creation time:	15. 06. 2019 20:28

#	Modifying user name:	WinNT
#	Modification time:	15. 06. 2019 20:28

#	Program:	/corina/corina34_cracker 3.40 0067  02.08.2006

@<TRIPOS>MOLECULE
ASD03090173
  45   47    0    0    0
SMALL
NO_CHARGES


@<TRIPOS>ATOM
   1 C1             0.2724     1.1462     0.7991 C.ar    
   2 N2            -0.8386     1.5636     1.3850 N.ar    
   3 C3            -1.9790     0.9183     1.2501 C.ar    
   4 C4            -2.0531    -0.2395     0.4769 C.ar    
   5 C5            -0.8953    -0.7085    -0.1569 C.ar    
   6 C6             0.2768     0.0035     0.0073 C.ar    
   7 C7            -3.3349    -0.9620     0.3284 C.2     
   8 N8            -6.8379    -1.2296     0.4589 N.pl3   
   9 C9            -7.3455    -0.0366     0.9837 C.ar    
  10 C10           -6.6094     0.6813     1.9171 C.ar    
  11 C11           -7.1127     1.8593     2.4340 C.ar    
  12 C12           -8.3503     2.3241     2.0225 C.ar    
  13 C13           -9.0863     1.6095     1.0920 C.ar    
  14 C14           -8.5842     0.4349     0.5677 C.ar    
  15 N15           -4.5353    -0.4671     0.5571 N.2     
  16 C16           -5.4592    -1.4006     0.3206 C.2     
  17 N17           -4.8630    -2.5057    -0.0627 N.2     
  18 N18           -3.4832    -2.2451    -0.0714 N.pl3   
  19 C19           -2.4154    -3.1809    -0.4326 C.3     
  20 C20           -2.1561    -3.0992    -1.9149 C.2     
  21 O21           -1.2127    -3.8727    -2.4747 O.3     
  22 F22           -8.8408     3.4762     2.5297 F       
  23 O23           -2.7974    -2.3375    -2.5993 O.2     
  24 O24            1.4215     1.8461     0.9691 O.3     
  25 C25            1.3540     3.0148     1.7886 C.3     
  26 C26            2.7363     3.6664     1.8625 C.3     
  27 C27          -10.4333     2.1178     0.6465 C.3     
  28 F28          -10.9794     1.2329    -0.2894 F       
  29 F29          -11.2853     2.2116     1.7521 F       
  30 F30          -10.2855     3.3808     0.0632 F       
  31 H31           -2.8651     1.2894     1.7435 H       
  32 H32           -0.9195    -1.6022    -0.7627 H       
  33 H33            1.1886    -0.3289    -0.4667 H       
  34 H34           -7.4438    -1.9383     0.1912 H       
  35 H35           -5.6444     0.3188     2.2389 H       
  36 H36           -6.5406     2.4180     3.1599 H       
  37 H37           -9.1584    -0.1219    -0.1581 H       
  38 H38           -1.5063    -2.9219     0.1101 H       
  39 H39           -2.7177    -4.1952    -0.1720 H       
  40 H40           -1.0825    -3.7851    -3.4289 H       
  41 H41            0.6426     3.7197     1.3583 H       
  42 H42            1.0291     2.7372     2.7914 H       
  43 H43            3.4477     2.9615     2.2928 H       
  44 H44            3.0612     3.9440     0.8598 H       
  45 H45            2.6848     4.5579     2.4876 H       
@<TRIPOS>BOND
   1    1    2 ar
   2    1   24 1
   3    1    6 ar
   4    2    3 ar
   5    3    4 ar
   6    3   31 1
   7    4    5 ar
   8    4    7 1
   9    5    6 ar
  10    5   32 1
  11    6   33 1
  12    7   15 2
  13    7   18 1
  14    8    9 1
  15    8   16 1
  16    8   34 1
  17    9   10 ar
  18    9   14 ar
  19   10   11 ar
  20   10   35 1
  21   11   12 ar
  22   11   36 1
  23   12   13 ar
  24   12   22 1
  25   13   14 ar
  26   13   27 1
  27   14   37 1
  28   15   16 1
  29   16   17 2
  30   17   18 1
  31   18   19 1
  32   19   20 1
  33   19   38 1
  34   19   39 1
  35   20   21 1
  36   20   23 2
  37   21   40 1
  38   24   25 1
  39   25   26 1
  40   25   41 1
  41   25   42 1
  42   26   43 1
  43   26   44 1
  44   26   45 1
  45   27   28 1
  46   27   29 1
  47   27   30 1

#	End of record

