#	Name: ASD03430987
#	Creating user name:	WinNT
#	Creation time:	15. 06. 2019 20:41

#	Modifying user name:	WinNT
#	Modification time:	15. 06. 2019 20:41

#	Program:	/corina/corina34_cracker 3.40 0067  02.08.2006

@<TRIPOS>MOLECULE
ASD03430987
  47   52    0    0    0
SMALL
NO_CHARGES


@<TRIPOS>ATOM
   1 O1            -0.0173     1.4276     0.0099 O.3     
   2 C2             0.0021    -0.0041     0.0020 C.3     
   3 C3             1.0262    -0.4755     1.0433 C.3     
   4 O4             2.3071     0.0539     0.6847 O.3     
   5 C5             2.3521     1.3711     0.3428 C.ar    
   6 C6             1.1911     2.0552     0.0017 C.ar    
   7 C7             3.5703     2.0295     0.3379 C.ar    
   8 C8             3.6443     3.3739    -0.0124 C.ar    
   9 C9             2.4774     4.0445    -0.3658 C.ar    
  10 C10            1.2621     3.3933    -0.3538 C.ar    
  11 O11            4.7253     4.2040    -0.0630 O.3     
  12 C12            2.8810     5.4508    -0.7202 C.3     
  13 C13            4.4051     5.3524    -0.8716 C.3     
  14 N14            1.5436     7.0476    -1.6617 N.am    
  15 C15            2.2236     5.9289    -1.9829 C.2     
  16 C16            2.4854     6.4417     0.3338 C.ar    
  17 C17            2.7611     6.5626     1.6784 C.ar    
  18 C18            2.2331     7.6183     2.4019 C.ar    
  19 C19            1.4290     8.5504     1.7719 C.ar    
  20 C20            1.1504     8.4333     0.4261 C.ar    
  21 C21            1.6778     7.3752    -0.3104 C.ar    
  22 O22            2.2916     5.4104    -3.0772 O.2     
  23 C23            0.7557     7.8287    -2.6184 C.3     
  24 C24           -0.6602     7.3134    -2.6422 C.ar    
  25 C25           -1.6213     7.9199    -1.8553 C.ar    
  26 C26           -2.9209     7.4384    -1.8849 C.ar    
  27 C27           -3.2067     6.3600    -2.7086 C.ar    
  28 C28           -2.1937     5.8051    -3.4671 C.ar    
  29 N29           -0.9692     6.2927    -3.4175 N.ar    
  30 Br30           3.8607     5.2855     2.5361 Br      
  31 H31           -0.9858    -0.3866     0.2585 H       
  32 H32            0.2907    -0.3625    -0.9861 H       
  33 H33            0.7412    -0.1111     2.0302 H       
  34 H34            1.0678    -1.5646     1.0509 H       
  35 H35            4.4693     1.4957     0.6083 H       
  36 H36            0.3626     3.9273    -0.6224 H       
  37 H37            4.8914     6.2472    -0.4830 H       
  38 H38            4.6805     5.1819    -1.9124 H       
  39 H39            2.4485     7.7135     3.4560 H       
  40 H40            1.0170     9.3738     2.3364 H       
  41 H41            0.5207     9.1648    -0.0585 H       
  42 H42            0.7559     8.8769    -2.3191 H       
  43 H43            1.1934     7.7346    -3.6122 H       
  44 H44           -1.3629     8.7580    -1.2251 H       
  45 H45           -3.6925     7.8921    -1.2806 H       
  46 H46           -4.2082     5.9587    -2.7564 H       
  47 H47           -2.4080     4.9651    -4.1112 H       
@<TRIPOS>BOND
   1    1    2 1
   2    1    6 1
   3    2    3 1
   4    2   31 1
   5    2   32 1
   6    3    4 1
   7    3   33 1
   8    3   34 1
   9    4    5 1
  10    5    6 ar
  11    5    7 ar
  12    6   10 ar
  13    7    8 ar
  14    7   35 1
  15    8    9 ar
  16    8   11 1
  17    9   10 ar
  18    9   12 1
  19   10   36 1
  20   11   13 1
  21   12   13 1
  22   12   15 1
  23   12   16 1
  24   13   37 1
  25   13   38 1
  26   14   15 am
  27   14   21 1
  28   14   23 1
  29   15   22 2
  30   16   17 ar
  31   16   21 ar
  32   17   18 ar
  33   17   30 1
  34   18   19 ar
  35   18   39 1
  36   19   20 ar
  37   19   40 1
  38   20   21 ar
  39   20   41 1
  40   23   24 1
  41   23   42 1
  42   23   43 1
  43   24   25 ar
  44   24   29 ar
  45   25   26 ar
  46   25   44 1
  47   26   27 ar
  48   26   45 1
  49   27   28 ar
  50   27   46 1
  51   28   29 ar
  52   28   47 1

#	End of record

