#	Name: ASD08150696
#	Creating user name:	WinNT
#	Creation time:	15. 06. 2019 21:16

#	Modifying user name:	WinNT
#	Modification time:	15. 06. 2019 21:16

#	Program:	/corina/corina34_cracker 3.40 0067  02.08.2006

@<TRIPOS>MOLECULE
ASD08150696
  52   56    0    0    0
SMALL
NO_CHARGES


@<TRIPOS>ATOM
   1 C1            -0.0174     1.3320     0.1140 C.2     
   2 N2            -0.0007     0.0025     0.2068 N.2     
   3 C3             1.1325    -0.6707     0.2939 C.2     
   4 C4             2.3480     0.0113     0.2899 C.2     
   5 C5             2.3333     1.4188     0.1919 C.2     
   6 N6             1.1443     2.0531     0.1050 N.am    
   7 C7            -1.2508     2.0012     0.0181 C.2     
   8 C8            -1.2710     3.3608    -0.0769 C.2     
   9 C9            -0.0631     4.0722    -0.0777 C.2     
  10 C10            1.1134     3.4117     0.0093 C.2     
  11 O11            3.3764     2.0516     0.1860 O.2     
  12 C12            1.1110    -2.1740     0.3978 C.3     
  13 C13            0.4483    -2.5848     1.7142 C.3     
  14 C14            0.5377    -4.1034     1.8781 C.3     
  15 N15            0.3524    -2.7303    -0.7253 N.pl3   
  16 N16           -1.0980    -4.1227    -3.0509 N.2     
  17 C17           -1.4143    -5.0567    -3.9001 C.2     
  18 N18           -0.6530    -6.1655    -3.6778 N.pl3   
  19 C19            0.1808    -5.8875    -2.6244 C.ar    
  20 N20            1.1225    -6.5593    -1.9702 N.ar    
  21 C21            1.7700    -6.0031    -0.9680 C.ar    
  22 N22            1.5252    -4.7704    -0.5630 N.ar    
  23 C23            0.6014    -4.0215    -1.1565 C.ar    
  24 C24           -0.1166    -4.5713    -2.2319 C.ar    
  25 C25            2.4054     4.1875     0.0017 C.3     
  26 C26            3.6287    -0.7261     0.3872 C.ar    
  27 C27            4.5285    -0.7098    -0.6784 C.ar    
  28 C28            5.7217    -1.3999    -0.5813 C.ar    
  29 C29            6.0237    -2.1066     0.5721 C.ar    
  30 C30            5.1339    -2.1256     1.6305 C.ar    
  31 C31            3.9421    -1.4348     1.5470 C.ar    
  32 F32            6.5948    -1.3862    -1.6122 F       
  33 H33           -2.1748     1.4421     0.0194 H       
  34 H34           -2.2115     3.8866    -0.1515 H       
  35 H35           -0.0722     5.1495    -0.1527 H       
  36 H36            2.1320    -2.5547     0.3706 H       
  37 H37            0.9594    -2.0989     2.5454 H       
  38 H38           -0.5986    -2.2815     1.7041 H       
  39 H39            0.0656    -4.3960     2.8159 H       
  40 H40            0.0266    -4.5892     1.0469 H       
  41 H41            1.5846    -4.4067     1.8881 H       
  42 H42           -0.3245    -2.1937    -1.1666 H       
  43 H43           -2.1690    -4.9669    -4.6674 H       
  44 H44           -0.6937    -6.9984    -4.1733 H       
  45 H45            2.5295    -6.5767    -0.4577 H       
  46 H46            3.0128     3.8734    -0.8471 H       
  47 H47            2.1892     5.2526    -0.0805 H       
  48 H48            2.9488     3.9974     0.9274 H       
  49 H49            4.2931    -0.1594    -1.5773 H       
  50 H50            6.9572    -2.6449     0.6443 H       
  51 H51            5.3745    -2.6783     2.5267 H       
  52 H52            3.2509    -1.4466     2.3767 H       
@<TRIPOS>BOND
   1    1    2 2
   2    1    6 1
   3    1    7 1
   4    2    3 1
   5    3    4 2
   6    3   12 1
   7    4    5 1
   8    4   26 1
   9    5    6 am
  10    5   11 2
  11    6   10 1
  12    7    8 2
  13    7   33 1
  14    8    9 1
  15    8   34 1
  16    9   10 2
  17    9   35 1
  18   10   25 1
  19   12   13 1
  20   12   15 1
  21   12   36 1
  22   13   14 1
  23   13   37 1
  24   13   38 1
  25   14   39 1
  26   14   40 1
  27   14   41 1
  28   15   23 1
  29   15   42 1
  30   16   17 2
  31   16   24 1
  32   17   18 1
  33   17   43 1
  34   18   19 1
  35   18   44 1
  36   19   20 ar
  37   19   24 ar
  38   20   21 ar
  39   21   22 ar
  40   21   45 1
  41   22   23 ar
  42   23   24 ar
  43   25   46 1
  44   25   47 1
  45   25   48 1
  46   26   27 ar
  47   26   31 ar
  48   27   28 ar
  49   27   49 1
  50   28   29 ar
  51   28   32 1
  52   29   30 ar
  53   29   50 1
  54   30   31 ar
  55   30   51 1
  56   31   52 1

#	End of record

