#	Name: ASD01940045
#	Creating user name:	WinNT
#	Creation time:	15. 06. 2019 20:11

#	Modifying user name:	WinNT
#	Modification time:	15. 06. 2019 20:11

#	Program:	/corina/corina34_cracker 3.40 0067  02.08.2006

@<TRIPOS>MOLECULE
ASD01940045
  60   63    0    0    0
SMALL
NO_CHARGES


@<TRIPOS>ATOM
   1 C1            -0.1653     1.1879    -0.0603 C.ar    
   2 C2            -0.1626    -0.0642    -0.6614 C.ar    
   3 C3            -1.2727    -0.8794    -0.5627 C.ar    
   4 C4            -2.3909    -0.4478     0.1362 C.ar    
   5 C5            -2.3945     0.8031     0.7365 C.ar    
   6 C6            -1.2829     1.6169     0.6440 C.ar    
   7 N7             0.9596     2.0145    -0.1594 N.pl3   
   8 C8             0.8041     3.3858    -0.2530 C.2     
   9 C9             1.8029     4.3489    -0.2308 C.2     
  10 C10            1.3231     5.6544    -0.3471 C.2     
  11 N11            0.0375     5.7990    -0.4584 N.2     
  12 S12           -0.6675     4.2584    -0.4292 S.3     
  13 O13            2.1613     6.7233    -0.3436 O.3     
  14 C14            3.2324     4.0245    -0.0969 C.2     
  15 N15            3.9973     3.8012    -1.2227 N.pl3   
  16 N16            3.7768     3.9482     1.0888 N.2     
  17 C17            5.4201     3.4784    -1.0894 C.3     
  18 O18           -3.4838    -1.2508     0.2324 O.3     
  19 C19           -3.3712    -2.3978     0.9526 C.ar    
  20 C20           -2.2103    -2.6599     1.6644 C.ar    
  21 C21           -2.0983    -3.8279     2.3964 C.ar    
  22 C22           -3.1430    -4.7347     2.4185 C.ar    
  23 C23           -4.4209    -3.3069     0.9814 C.ar    
  24 C24           -4.3014    -4.4758     1.7092 C.ar    
  25 Cl25          -0.6454    -4.1568     3.2878 Cl      
  26 Cl26          -5.8788    -2.9788     0.0979 Cl      
  27 C27            6.0303     3.2799    -2.4783 C.3     
  28 N28            7.4570     2.9562    -2.3446 N.3     
  29 C29            8.0226     2.5275    -3.6315 C.3     
  30 C30            9.5235     2.2768    -3.4678 C.3     
  31 N31            9.7368     1.2534    -2.4349 N.3     
  32 C32            9.1712     1.6821    -1.1481 C.3     
  33 C33            7.6703     1.9328    -1.3118 C.3     
  34 C34           11.1635     0.9297    -2.3012 C.3     
  35 H35            0.7075    -0.4001    -1.2060 H       
  36 H36           -1.2707    -1.8530    -1.0300 H       
  37 H37           -3.2654     1.1385     1.2800 H       
  38 H38           -1.2858     2.5904     1.1116 H       
  39 H39            1.8483     1.6258    -0.1624 H       
  40 H40            2.4745     6.9803    -1.2216 H       
  41 H41            3.5933     3.8579    -2.1027 H       
  42 H42            4.7188     3.7344     1.1771 H       
  43 H43            5.9320     4.2955    -0.5811 H       
  44 H44            5.5321     2.5626    -0.5091 H       
  45 H45           -1.3942    -1.9527     1.6469 H       
  46 H46           -3.0535    -5.6464     2.9905 H       
  47 H47           -5.1153    -5.1855     1.7275 H       
  48 H48            5.5185     2.4628    -2.9866 H       
  49 H49            5.9184     4.1957    -3.0587 H       
  50 H50            7.5337     1.6088    -3.9556 H       
  51 H51            7.8632     3.3070    -4.3765 H       
  52 H52            9.9397     1.9308    -4.4139 H       
  53 H53           10.0165     3.2022    -3.1700 H       
  54 H54            9.3306     0.9026    -0.4031 H       
  55 H55            9.6601     2.6008    -0.8240 H       
  56 H56            7.2541     2.2787    -0.3656 H       
  57 H57            7.1774     1.0073    -1.6096 H       
  58 H58           11.7152     1.8276    -2.0228 H       
  59 H59           11.2930     0.1700    -1.5304 H       
  60 H60           11.5408     0.5514    -3.2513 H       
@<TRIPOS>BOND
   1    1    2 ar
   2    1    7 1
   3    1    6 ar
   4    2    3 ar
   5    2   35 1
   6    3    4 ar
   7    3   36 1
   8    4    5 ar
   9    4   18 1
  10    5    6 ar
  11    5   37 1
  12    6   38 1
  13    7    8 1
  14    7   39 1
  15    8    9 2
  16    8   12 1
  17    9   10 1
  18    9   14 1
  19   10   11 2
  20   10   13 1
  21   11   12 1
  22   13   40 1
  23   14   15 1
  24   14   16 2
  25   15   17 1
  26   15   41 1
  27   16   42 1
  28   17   27 1
  29   17   43 1
  30   17   44 1
  31   18   19 1
  32   19   20 ar
  33   19   23 ar
  34   20   21 ar
  35   20   45 1
  36   21   22 ar
  37   21   25 1
  38   22   24 ar
  39   22   46 1
  40   23   26 1
  41   23   24 ar
  42   24   47 1
  43   27   28 1
  44   27   48 1
  45   27   49 1
  46   28   29 1
  47   28   33 1
  48   29   30 1
  49   29   50 1
  50   29   51 1
  51   30   31 1
  52   30   52 1
  53   30   53 1
  54   31   32 1
  55   31   34 1
  56   32   33 1
  57   32   54 1
  58   32   55 1
  59   33   56 1
  60   33   57 1
  61   34   58 1
  62   34   59 1
  63   34   60 1

#	End of record

