#	Name: ASD05720269
#	Creating user name:	WinNT
#	Creation time:	15. 06. 2019 21:02

#	Modifying user name:	WinNT
#	Modification time:	15. 06. 2019 21:02

#	Program:	/corina/corina34_cracker 3.40 0067  02.08.2006

@<TRIPOS>MOLECULE
ASD05720269
  74   77    0    0    0
SMALL
NO_CHARGES


@<TRIPOS>ATOM
   1 C1             0.5119     1.0237     1.1164 C.2     
   2 N2             0.4122    -0.2391     0.6808 N.am    
   3 C3             1.6580    -0.6134    -0.0049 C.3     
   4 C4             2.5297     0.6535     0.0955 C.3     
   5 N5             1.6824     1.6071     0.8270 N.am    
   6 O6            -0.3811     1.5906     1.7157 O.2     
   7 C7             2.0587     2.9775     1.1828 C.3     
   8 C8             2.7352     2.9807     2.5551 C.3     
   9 O9             3.9657     2.2578     2.4813 O.3     
  10 C10            4.6809     2.2002     3.7171 C.3     
  11 C11            5.9744     1.4068     3.5211 C.3     
  12 O12            6.8325     2.1096     2.6201 O.3     
  13 C13            8.0749     1.4504     2.3673 C.3     
  14 C14            1.3817    -0.9606    -1.4691 C.3     
  15 C15            0.5224    -2.2245    -1.5401 C.3     
  16 C16            0.6397     0.1988    -2.1369 C.3     
  17 C17           -1.6778    -3.1433     0.6617 C.2     
  18 N18           -0.6243    -2.3357     0.5053 N.2     
  19 C19           -0.6921    -1.0636     0.8499 C.2     
  20 C20           -1.8851    -0.5415     1.3900 C.2     
  21 C21           -2.9530    -1.3558     1.5497 C.2     
  22 N22           -2.8523    -2.6692     1.1834 N.pl3   
  23 N23           -3.7636    -3.7303     1.2267 N.2     
  24 C24           -3.1914    -4.8116     0.7573 C.2     
  25 C25           -1.8788    -4.5014     0.3811 C.2     
  26 C26           -0.8882    -5.4341    -0.2016 C.ar    
  27 C27           -0.6489    -6.6680     0.4062 C.ar    
  28 C28            0.2725    -7.5353    -0.1368 C.ar    
  29 C29            0.9670    -7.1812    -1.2934 C.ar    
  30 C30            0.7285    -5.9487    -1.9011 C.ar    
  31 C31           -0.1968    -5.0827    -1.3625 C.ar    
  32 N32            3.4781    -9.0331    -3.1490 N.pl3   
  33 N33            2.6749    -7.8969    -2.9593 N.2     
  34 C34            1.9599    -8.1156    -1.8770 C.2     
  35 N35            2.2776    -9.3227    -1.3893 N.2     
  36 C36            3.1866    -9.8797    -2.1451 C.2     
  37 H37            2.1383    -1.4495     0.5036 H       
  38 H38            3.4427     0.4464     0.6537 H       
  39 H39            2.7656     1.0352    -0.8979 H       
  40 H40            2.7493     3.3700     0.4364 H       
  41 H41            1.1662     3.6023     1.2162 H       
  42 H42            2.9351     4.0081     2.8593 H       
  43 H43            2.0787     2.5069     3.2849 H       
  44 H44            4.9212     3.2114     4.0453 H       
  45 H45            4.0648     1.7102     4.4710 H       
  46 H46            6.4760     1.2867     4.4814 H       
  47 H47            5.7398     0.4255     3.1086 H       
  48 H48            8.6201     1.3312     3.3037 H       
  49 H49            7.8839     0.4701     1.9308 H       
  50 H50            8.6685     2.0471     1.6747 H       
  51 H51            2.3257    -1.1336    -1.9859 H       
  52 H52           -0.4947    -1.9904    -1.2258 H       
  53 H53            0.5093    -2.5979    -2.5641 H       
  54 H54            0.9403    -2.9855    -0.8812 H       
  55 H55           -0.3043     0.3718    -1.6201 H       
  56 H56            1.2519     1.0992    -2.0863 H       
  57 H57            0.4428    -0.0485    -3.1801 H       
  58 H58           -1.9455     0.4988     1.6739 H       
  59 H59           -3.8748    -0.9730     1.9622 H       
  60 H60           -3.6570    -5.7823     0.6714 H       
  61 H61           -1.1861    -6.9420     1.3021 H       
  62 H62            0.4577    -8.4899     0.3333 H       
  63 H63            1.2666    -5.6751    -2.7966 H       
  64 H64           -0.3844    -4.1301    -1.8354 H       
  65 H65            4.1151    -9.1803    -3.8656 H       
  66 H66            3.6281   -10.8531    -1.9903 H       
  67 C67           14.8399    10.9964    10.6282 C.2     
  68 C68           14.8603     9.4895    10.6199 C.3     
  69 O69           15.8779    11.6147    10.6216 O.2     
  70 O70           13.6685    11.6516    10.6373 O.3     
  71 F71           16.1855     9.0412    10.6049 F       
  72 F72           14.2182     9.0081    11.7658 F       
  73 F73           14.1963     9.0204     9.4814 F       
  74 H74           13.7060    12.6179    10.6424 H       
@<TRIPOS>BOND
   1    1    2 am
   2    1    5 am
   3    1    6 2
   4    2    3 1
   5    2   19 1
   6    3    4 1
   7    3   14 1
   8    3   37 1
   9    4    5 1
  10    4   38 1
  11    4   39 1
  12    5    7 1
  13    7    8 1
  14    7   40 1
  15    7   41 1
  16    8    9 1
  17    8   42 1
  18    8   43 1
  19    9   10 1
  20   10   11 1
  21   10   44 1
  22   10   45 1
  23   11   12 1
  24   11   46 1
  25   11   47 1
  26   12   13 1
  27   13   48 1
  28   13   49 1
  29   13   50 1
  30   14   15 1
  31   14   16 1
  32   14   51 1
  33   15   52 1
  34   15   53 1
  35   15   54 1
  36   16   55 1
  37   16   56 1
  38   16   57 1
  39   17   18 1
  40   17   22 1
  41   17   25 2
  42   18   19 2
  43   19   20 1
  44   20   21 2
  45   20   58 1
  46   21   22 1
  47   21   59 1
  48   22   23 1
  49   23   24 2
  50   24   25 1
  51   24   60 1
  52   25   26 1
  53   26   27 ar
  54   26   31 ar
  55   27   28 ar
  56   27   61 1
  57   28   29 ar
  58   28   62 1
  59   29   30 ar
  60   29   34 1
  61   30   31 ar
  62   30   63 1
  63   31   64 1
  64   32   33 1
  65   32   36 1
  66   32   65 1
  67   33   34 2
  68   34   35 1
  69   35   36 2
  70   36   66 1
  71   67   68 1
  72   67   69 2
  73   67   70 1
  74   68   71 1
  75   68   72 1
  76   68   73 1
  77   70   74 1

#	End of record

