#	Name: ASD01140217
#	Creating user name:	WinNT
#	Creation time:	15. 06. 2019 19:00

#	Modifying user name:	WinNT
#	Modification time:	15. 06. 2019 19:00

#	Program:	/corina/corina34_cracker 3.40 0067  02.08.2006

@<TRIPOS>MOLECULE
ASD01140217
  37   40    0    0    0
SMALL
NO_CHARGES


@<TRIPOS>ATOM
   1 C1             0.1059     1.5224     0.2718 C.ar    
   2 C2             0.0711     0.1256     0.2713 C.ar    
   3 C3             1.2548    -0.5974     0.1901 C.ar    
   4 C4             2.4864     0.0642     0.1085 C.ar    
   5 C5             2.5036     1.4621     0.0858 C.ar    
   6 C6             1.3132     2.1773     0.1796 C.ar    
   7 C7             3.7049    -0.7527     0.0829 C.2     
   8 N8             4.7598    -0.5774    -0.6329 N.2     
   9 C9             4.8678     0.5229    -1.5975 C.3     
  10 C10            4.7510     1.8167    -0.8325 C.2     
  11 N11            3.6925     2.1771    -0.0637 N.pl3   
  12 C12            4.0188     3.3751     0.4895 C.2     
  13 N13            5.6226     2.7820    -0.7711 N.2     
  14 N14            5.1937     3.7035     0.0186 N.2     
  15 C15           -1.1832    -0.5601     0.3548 C.1     
  16 C16           -2.2116    -1.1223     0.4233 C.1     
  17 C17            3.1858     4.1725     1.4597 C.3     
  18 C18            3.7232    -1.9215     0.9921 C.ar    
  19 C19            3.7551    -3.2145     0.4701 C.ar    
  20 C20            3.7719    -4.2995     1.3223 C.ar    
  21 C21            3.7567    -4.1078     2.6924 C.ar    
  22 C22            3.7250    -2.8286     3.2176 C.ar    
  23 C23            3.7142    -1.7338     2.3756 C.ar    
  24 Cl24           3.6751    -0.1287     3.0357 Cl      
  25 H25           -0.8124     2.0868     0.3399 H       
  26 H26            1.2249    -1.6770     0.1904 H       
  27 H27            1.3369     3.2571     0.1800 H       
  28 H28            5.8328     0.4782    -2.1025 H       
  29 H29            4.0633     0.4527    -2.3296 H       
  30 H30           -3.1313    -1.6251     0.4845 H       
  31 H31            3.3605     3.8094     2.4725 H       
  32 H32            3.4636     5.2246     1.3979 H       
  33 H33            2.1306     4.0601     1.2104 H       
  34 H34            3.7662    -3.3661    -0.5992 H       
  35 H35            3.7966    -5.3010     0.9187 H       
  36 H36            3.7692    -4.9608     3.3548 H       
  37 H37            3.7130    -2.6855     4.2880 H       
@<TRIPOS>BOND
   1    1    2 ar
   2    1    6 ar
   3    1   25 1
   4    2    3 ar
   5    2   15 1
   6    3    4 ar
   7    3   26 1
   8    4    5 ar
   9    4    7 1
  10    5    6 ar
  11    5   11 1
  12    6   27 1
  13    7    8 2
  14    7   18 1
  15    8    9 1
  16    9   10 1
  17    9   28 1
  18    9   29 1
  19   10   11 1
  20   10   13 2
  21   11   12 1
  22   12   17 1
  23   12   14 2
  24   13   14 1
  25   15   16 3
  26   16   30 1
  27   17   31 1
  28   17   32 1
  29   17   33 1
  30   18   19 ar
  31   18   23 ar
  32   19   20 ar
  33   19   34 1
  34   20   21 ar
  35   20   35 1
  36   21   22 ar
  37   21   36 1
  38   22   23 ar
  39   22   37 1
  40   23   24 1

#	End of record

