#	Name: ASD01908169
#	Creating user name:	WinNT
#	Creation time:	15. 06. 2019 19:54

#	Modifying user name:	WinNT
#	Modification time:	15. 06. 2019 19:54

#	Program:	/corina/corina34_cracker 3.40 0067  02.08.2006

@<TRIPOS>MOLECULE
ASD01908169
  34   35    0    0    0
SMALL
NO_CHARGES


@<TRIPOS>ATOM
   1 C1             0.0634     4.0754    -0.6205 C.2     
   2 O2             0.2376     5.2439    -0.8981 O.2     
   3 N3             3.2524     2.5417     0.1508 N.pl3   
   4 N4             2.3812     1.4605     0.3228 N.2     
   5 C5             1.1627     1.8545     0.0774 C.2     
   6 C6             1.2079     3.2262    -0.2670 C.2     
   7 C7             2.5342     3.6162    -0.2086 C.2     
   8 C8             4.7050     2.5076     0.3381 C.3     
   9 C9             5.0288     2.7169     1.7949 C.ar    
  10 C10            5.0196     1.6425     2.6652 C.ar    
  11 C11            5.3160     1.8317     4.0011 C.ar    
  12 C12            5.6231     3.1010     4.4693 C.ar    
  13 C13            5.6316     4.1774     3.5941 C.ar    
  14 C14            5.3400     3.9820     2.2580 C.ar    
  15 O15            5.9146     3.2898     5.7832 O.3     
  16 C16            6.2213     4.6235     6.1945 C.3     
  17 C17            3.0725     4.9943    -0.4952 C.3     
  18 C18            3.3075     5.1475    -1.9993 C.3     
  19 Cl19          -1.5398     3.4096    -0.6343 Cl      
  20 H20            0.2750     1.2415     0.1277 H       
  21 H21            5.0903     1.5403     0.0156 H       
  22 H22            5.1663     3.2981    -0.2538 H       
  23 H23            4.7802     0.6546     2.3003 H       
  24 H24            5.3084     0.9923     4.6806 H       
  25 H25            5.8703     5.1665     3.9561 H       
  26 H26            5.3511     4.8188     1.5753 H       
  27 H27            5.3704     5.2725     5.9871 H       
  28 H28            6.4343     4.6342     7.2635 H       
  29 H29            7.0931     4.9813     5.6468 H       
  30 H30            2.3528     5.7420    -0.1619 H       
  31 H31            4.0141     5.1342     0.0358 H       
  32 H32            2.3595     5.0449    -2.5274 H       
  33 H33            3.7321     6.1306    -2.2024 H       
  34 H34            3.9983     4.3760    -2.3395 H       
@<TRIPOS>BOND
   1    1    2 2
   2    1    6 1
   3    1   19 1
   4    3    4 1
   5    3    7 1
   6    3    8 1
   7    4    5 2
   8    5    6 1
   9    5   20 1
  10    6    7 2
  11    7   17 1
  12    8    9 1
  13    8   21 1
  14    8   22 1
  15    9   10 ar
  16    9   14 ar
  17   10   11 ar
  18   10   23 1
  19   11   12 ar
  20   11   24 1
  21   12   13 ar
  22   12   15 1
  23   13   14 ar
  24   13   25 1
  25   14   26 1
  26   15   16 1
  27   16   27 1
  28   16   28 1
  29   16   29 1
  30   17   18 1
  31   17   30 1
  32   17   31 1
  33   18   32 1
  34   18   33 1
  35   18   34 1

#	End of record

