#	Name: ASD03092890
#	Creating user name:	WinNT
#	Creation time:	15. 06. 2019 20:33

#	Modifying user name:	WinNT
#	Modification time:	15. 06. 2019 20:33

#	Program:	/corina/corina34_cracker 3.40 0067  02.08.2006

@<TRIPOS>MOLECULE
ASD03092890
  45   48    0    0    0
SMALL
NO_CHARGES


@<TRIPOS>ATOM
   1 C1            -0.0173     1.4248     0.0099 C.3     
   2 O2             0.0021    -0.0041     0.0020 O.3     
   3 C3            -1.2003    -0.6375     0.0101 C.ar    
   4 C4            -2.3762     0.1115     0.0195 C.ar    
   5 C5            -3.5921    -0.5061     0.0273 C.ar    
   6 C6            -3.6636    -1.9035     0.0257 C.ar    
   7 C7            -4.7660    -2.8603     0.0326 C.2     
   8 N8            -4.2540    -4.0577     0.0275 N.2     
   9 N9            -2.8574    -3.9832     0.0175 N.pl3   
  10 H10           -2.2533    -4.7422     0.0117 H       
  11 C11           -2.4791    -2.6657     0.0162 C.ar    
  12 C12           -1.2473    -2.0178     0.0031 C.ar    
  13 C13           -6.2347    -2.5227     0.0441 C.3     
  14 C14           -6.9059    -3.1162    -1.1975 C.3     
  15 C15           -8.4070    -2.8225    -1.1495 C.3     
  16 N16           -8.9831    -3.4084     0.0676 N.3     
  17 C17           -8.3874    -2.8194     1.2737 C.3     
  18 C18           -6.8856    -3.1131     1.2980 C.3     
  19 C19          -10.3619    -3.2742     0.0786 C.ar    
  20 C20          -11.1132    -3.7590     1.1510 C.ar    
  21 C21          -12.4848    -3.6010     1.1149 C.ar    
  22 N22          -13.0393    -2.9991     0.0722 N.ar    
  23 C23          -12.3023    -2.5523    -0.9248 C.ar    
  24 N24          -10.9907    -2.6766    -0.9295 N.ar    
  25 C25          -13.3408    -4.1072     2.2473 C.3     
  26 F26          -13.4876    -3.1001     3.2072 F       
  27 F27          -14.5993    -4.4691     1.7548 F       
  28 F28          -12.7302    -5.2224     2.8310 F       
  29 H29            1.0053     1.8021     0.0021 H       
  30 H30           -0.5445     1.7859    -0.8732 H       
  31 H31           -0.5275     1.7763     0.9067 H       
  32 H32           -2.3237     1.1902     0.0211 H       
  33 H33           -4.4978     0.0822     0.0349 H       
  34 H34           -0.3325    -2.5917    -0.0083 H       
  35 H35           -6.3595    -1.4399     0.0444 H       
  36 H36           -6.4758    -2.6679    -2.0931 H       
  37 H37           -6.7465    -4.1943    -1.2171 H       
  38 H38           -8.5661    -1.7442    -1.1439 H       
  39 H39           -8.8901    -3.2561    -2.0251 H       
  40 H40           -8.5465    -1.7411     1.2679 H       
  41 H41           -8.8562    -3.2509     2.1581 H       
  42 H42           -6.7259    -4.1912     1.3177 H       
  43 H43           -6.4411    -2.6625     2.1854 H       
  44 H44          -10.6339    -4.2458     1.9875 H       
  45 H45          -12.7866    -2.0666    -1.7590 H       
@<TRIPOS>BOND
   1    1    2 1
   2    1   29 1
   3    1   30 1
   4    1   31 1
   5    2    3 1
   6    3   12 ar
   7    3    4 ar
   8    4    5 ar
   9    4   32 1
  10    5    6 ar
  11    5   33 1
  12    6   11 ar
  13    6    7 1
  14    7    8 2
  15    7   13 1
  16    8    9 1
  17    9   10 1
  18    9   11 1
  19   11   12 ar
  20   12   34 1
  21   13   18 1
  22   13   14 1
  23   13   35 1
  24   14   15 1
  25   14   36 1
  26   14   37 1
  27   15   16 1
  28   15   38 1
  29   15   39 1
  30   16   17 1
  31   16   19 1
  32   17   18 1
  33   17   40 1
  34   17   41 1
  35   18   42 1
  36   18   43 1
  37   19   24 ar
  38   19   20 ar
  39   20   21 ar
  40   20   44 1
  41   21   22 ar
  42   21   25 1
  43   22   23 ar
  44   23   24 ar
  45   23   45 1
  46   25   26 1
  47   25   27 1
  48   25   28 1

#	End of record

