#	Name: ASD01811483
#	Creating user name:	WinNT
#	Creation time:	15. 06. 2019 19:26

#	Modifying user name:	WinNT
#	Modification time:	15. 06. 2019 19:26

#	Program:	/corina/corina34_cracker 3.40 0067  02.08.2006

@<TRIPOS>MOLECULE
ASD01811483
  69   74    0    0    0
SMALL
NO_CHARGES


@<TRIPOS>ATOM
   1 C1             3.7916    15.0018    -3.8394 C.1     
   2 C2             3.0653    13.9160    -3.2526 C.ar    
   3 C3             3.7128    12.7124    -2.9667 C.ar    
   4 C4             3.0071    11.6705    -2.4015 C.ar    
   5 C5             1.6606    11.8161    -2.1183 C.ar    
   6 C6             1.0126    13.0058    -2.3994 C.ar    
   7 C7             1.7077    14.0581    -2.9584 C.ar    
   8 N8             4.3677    15.8631    -4.3049 N.1     
   9 N9            -1.4291     9.4433    -0.4616 N.am    
  10 C10           -0.4232     9.9381     0.4882 C.3     
  11 C11            0.3237    11.1125    -0.1517 C.3     
  12 C12            0.8961    10.6733    -1.5013 C.3     
  13 C13           -0.2466    10.2625    -2.4327 C.3     
  14 C14           -1.0000     9.0784    -1.8186 C.3     
  15 C15           -2.7198     9.3213    -0.0935 C.2     
  16 C16           -3.1167     9.5802     1.3072 C.ar    
  17 C17           -4.2580    10.3311     1.5822 C.ar    
  18 C18           -4.6247    10.5703     2.9043 C.ar    
  19 C19           -3.8479    10.0571     3.9451 C.ar    
  20 C20           -2.7183     9.3139     3.6659 C.ar    
  21 C21           -2.3520     9.0680     2.3574 C.ar    
  22 O22           -3.5576     8.9984    -0.9128 O.2     
  23 C23           -8.7187    13.5104     2.4690 C.3     
  24 C24           -7.6001    12.6420     2.9833 C.2     
  25 C25           -7.4440    12.3110     4.2878 C.2     
  26 C26           -8.3799    12.7858     5.3734 C.3     
  27 C27           -9.1999    13.9546     4.8101 C.3     
  28 N28           -9.7632    13.5803     3.5054 N.3     
  29 C29           -5.8344    11.3668     3.2054 C.2     
  30 N30           -6.5880    12.0523     2.2934 N.pl3   
  31 N31           -6.3682    11.5364     4.3979 N.2     
  32 C32          -10.8356    14.5035     3.1106 C.3     
  33 C33           -4.2431    10.3155     5.3762 C.3     
  34 C34           -4.6831     9.0504     6.1318 C.3     
  35 C35           -3.9174     9.6040     7.3451 C.3     
  36 C36           -3.0488    10.3821     6.3426 C.3     
  37 H37            4.7636    12.5972    -3.1880 H       
  38 H38            3.5066    10.7390    -2.1799 H       
  39 H39           -0.0387    13.1126    -2.1762 H       
  40 H40            1.2019    14.9879    -3.1729 H       
  41 H41           -0.9161    10.2723     1.4012 H       
  42 H42            0.2819     9.1405     0.7222 H       
  43 H43           -0.3656    11.9435    -0.3020 H       
  44 H44            1.1363    11.4271     0.5031 H       
  45 H45            1.5660     9.8262    -1.3533 H       
  46 H46           -0.9305    11.1015    -2.5615 H       
  47 H47            0.1601     9.9720    -3.4014 H       
  48 H48           -0.3419     8.2107    -1.7728 H       
  49 H49           -1.8734     8.8454    -2.4278 H       
  50 H50           -4.8552    10.7261     0.7737 H       
  51 H51           -2.1210     8.9193     4.4746 H       
  52 H52           -1.4698     8.4821     2.1457 H       
  53 H53           -8.3406    14.5112     2.2602 H       
  54 H54           -9.1324    13.0760     1.5589 H       
  55 H55           -9.0466    11.9748     5.6664 H       
  56 H56           -7.8042    13.1210     6.2361 H       
  57 H57          -10.0095    14.1950     5.4992 H       
  58 H58           -8.5555    14.8256     4.6908 H       
  59 H59           -6.4307    12.1072     1.3378 H       
  60 H60          -11.2410    14.1981     2.1460 H       
  61 H61          -11.6267    14.4831     3.8601 H       
  62 H62          -10.4347    15.5141     3.0328 H       
  63 H63           -4.9373    11.1495     5.4796 H       
  64 H64           -5.7601     8.9870     6.2870 H       
  65 H65           -4.2575     8.1312     5.7292 H       
  66 H66           -4.5218    10.2439     7.9880 H       
  67 H67           -3.3686     8.8427     7.8995 H       
  68 H68           -2.1765     9.8270     5.9977 H       
  69 H69           -2.8064    11.3938     6.6681 H       
@<TRIPOS>BOND
   1    1    2 1
   2    1    8 3
   3    2    3 ar
   4    2    7 ar
   5    3    4 ar
   6    3   37 1
   7    4    5 ar
   8    4   38 1
   9    5    6 ar
  10    5   12 1
  11    6    7 ar
  12    6   39 1
  13    7   40 1
  14    9   10 1
  15    9   14 1
  16    9   15 am
  17   10   11 1
  18   10   41 1
  19   10   42 1
  20   11   12 1
  21   11   43 1
  22   11   44 1
  23   12   13 1
  24   12   45 1
  25   13   14 1
  26   13   46 1
  27   13   47 1
  28   14   48 1
  29   14   49 1
  30   15   16 1
  31   15   22 2
  32   16   17 ar
  33   16   21 ar
  34   17   18 ar
  35   17   50 1
  36   18   19 ar
  37   18   29 1
  38   19   20 ar
  39   19   33 1
  40   20   21 ar
  41   20   51 1
  42   21   52 1
  43   23   24 1
  44   23   28 1
  45   23   53 1
  46   23   54 1
  47   24   25 2
  48   24   30 1
  49   25   26 1
  50   25   31 1
  51   26   27 1
  52   26   55 1
  53   26   56 1
  54   27   28 1
  55   27   57 1
  56   27   58 1
  57   28   32 1
  58   29   30 1
  59   29   31 2
  60   30   59 1
  61   32   60 1
  62   32   61 1
  63   32   62 1
  64   33   34 1
  65   33   36 1
  66   33   63 1
  67   34   35 1
  68   34   64 1
  69   34   65 1
  70   35   36 1
  71   35   66 1
  72   35   67 1
  73   36   68 1
  74   36   69 1

#	End of record

