#	Name: ASD01140193
#	Creating user name:	WinNT
#	Creation time:	15. 06. 2019 19:00

#	Modifying user name:	WinNT
#	Modification time:	15. 06. 2019 19:00

#	Program:	/corina/corina34_cracker 3.40 0067  02.08.2006

@<TRIPOS>MOLECULE
ASD01140193
  45   48    0    0    0
SMALL
NO_CHARGES


@<TRIPOS>ATOM
   1 C1            -0.4395    -0.9625    -3.7593 C.1     
   2 C2            -0.4390     0.1159    -3.2953 C.1     
   3 C3            -0.4384     1.4313    -2.7292 C.ar    
   4 C4             0.7549     1.9936    -2.2686 C.ar    
   5 C5             0.7523     3.2627    -1.7353 C.ar    
   6 C6            -0.4293     3.9941    -1.6495 C.ar    
   7 C7            -1.6341     3.4364    -2.0851 C.ar    
   8 C8            -1.6233     2.1515    -2.6430 C.ar    
   9 C9            -2.9269     4.1205    -1.9664 C.2     
  10 N10           -3.1881     5.3600    -2.1950 N.2     
  11 C11           -2.1549     6.2949    -2.6553 C.3     
  12 C12           -1.0854     6.3534    -1.5956 C.2     
  13 N13           -0.3588     5.2977    -1.1504 N.pl3   
  14 C14            0.4562     5.7496    -0.1590 C.2     
  15 N15            0.2794     7.0332    -0.0216 N.2     
  16 C16           -1.1535     8.8279    -1.0789 C.2     
  17 O17           -1.9348     9.0890    -1.9737 O.2     
  18 N18           -0.7318     9.8011    -0.2473 N.am    
  19 C19           -1.1198    11.1924    -0.4915 C.3     
  20 C20            0.1147     9.4675     0.9009 C.3     
  21 C21           -4.0684     3.2841    -1.5318 C.ar    
  22 C22           -5.1339     3.0470    -2.4001 C.ar    
  23 C23           -6.1947     2.2664    -1.9896 C.ar    
  24 C24           -6.2047     1.7179    -0.7192 C.ar    
  25 C25           -5.1530     1.9480     0.1485 C.ar    
  26 C26           -4.0807     2.7236    -0.2517 C.ar    
  27 F27           -3.0503     2.9433     0.5941 F       
  28 C28           -0.6682     7.4480    -0.9040 C.2     
  29 H29           -0.4399    -1.9270    -4.1744 H       
  30 H30            1.6765     1.4341    -2.3304 H       
  31 H31            1.6758     3.6952    -1.3798 H       
  32 H32           -2.5431     1.7159    -3.0043 H       
  33 H33           -1.7270     5.9403    -3.5930 H       
  34 H34           -2.5889     7.2847    -2.7973 H       
  35 H35            1.1380     5.1436     0.4192 H       
  36 H36           -2.2063    11.2765    -0.4657 H       
  37 H37           -0.6876    11.8308     0.2790 H       
  38 H38           -0.7544    11.5052    -1.4696 H       
  39 H39            1.1567     9.4247     0.5838 H       
  40 H40            0.0002    10.2307     1.6706 H       
  41 H41           -0.1829     8.4989     1.3025 H       
  42 H42           -5.1287     3.4741    -3.3920 H       
  43 H43           -7.0200     2.0830    -2.6617 H       
  44 H44           -7.0381     1.1077    -0.4037 H       
  45 H45           -5.1672     1.5176     1.1390 H       
@<TRIPOS>BOND
   1    1    2 3
   2    1   29 1
   3    2    3 1
   4    3    4 ar
   5    3    8 ar
   6    4    5 ar
   7    4   30 1
   8    5    6 ar
   9    5   31 1
  10    6    7 ar
  11    6   13 1
  12    7    8 ar
  13    7    9 1
  14    8   32 1
  15    9   10 2
  16    9   21 1
  17   10   11 1
  18   11   12 1
  19   11   33 1
  20   11   34 1
  21   12   13 1
  22   12   28 2
  23   13   14 1
  24   14   15 2
  25   14   35 1
  26   15   28 1
  27   16   17 2
  28   16   18 am
  29   16   28 1
  30   18   19 1
  31   18   20 1
  32   19   36 1
  33   19   37 1
  34   19   38 1
  35   20   39 1
  36   20   40 1
  37   20   41 1
  38   21   22 ar
  39   21   26 ar
  40   22   23 ar
  41   22   42 1
  42   23   24 ar
  43   23   43 1
  44   24   25 ar
  45   24   44 1
  46   25   26 ar
  47   25   45 1
  48   26   27 1

#	End of record

