#	Name: ASD01810456
#	Creating user name:	WinNT
#	Creation time:	15. 06. 2019 19:24

#	Modifying user name:	WinNT
#	Modification time:	15. 06. 2019 19:24

#	Program:	/corina/corina34_cracker 3.40 0067  02.08.2006

@<TRIPOS>MOLECULE
ASD01810456
  48   50    0    0    0
SMALL
NO_CHARGES


@<TRIPOS>ATOM
   1 C1            -0.0746    -0.0201    -0.0164 C.1     
   2 C2            -0.0790     1.4118    -0.0028 C.ar    
   3 C3             1.1263     2.1167     0.0054 C.ar    
   4 C4             1.1148     3.4961     0.0186 C.ar    
   5 C5            -0.0874     4.1811     0.0240 C.ar    
   6 C6            -1.2854     3.4888     0.0163 C.ar    
   7 C7            -1.2885     2.1095    -0.0036 C.ar    
   8 N8            -0.0712    -1.1561    -0.0272 N.1     
   9 N9            -0.9831     8.2143     0.9464 N.am    
  10 C10           -1.4788     7.7291    -0.3488 C.3     
  11 C11           -1.4869     6.1973    -0.3311 C.3     
  12 C12           -0.0919     5.6880     0.0389 C.3     
  13 C13            0.2801     6.1852     1.4376 C.3     
  14 C14            0.3083     7.7168     1.4400 C.3     
  15 F15            0.8400     6.1660    -0.8886 F       
  16 C16           -1.6968     9.1032     1.6655 C.2     
  17 C17           -1.2315     9.5114     3.0083 C.ar    
  18 C18           -2.0730     9.3716     4.1136 C.ar    
  19 C19           -1.6365     9.7529     5.3658 C.ar    
  20 C20           -0.3667    10.2739     5.5314 C.ar    
  21 C21            0.4786    10.4176     4.4376 C.ar    
  22 C22            0.0513    10.0320     3.1759 C.ar    
  23 O23           -2.7229     9.5691     1.2101 O.2     
  24 C24            0.1023    10.6878     6.9024 C.3     
  25 C25           -3.4584     8.8048     3.9389 C.3     
  26 N26            1.7606    10.9455     4.6100 N.pl3   
  27 H27            2.0654     1.5833     0.0019 H       
  28 H28            2.0463     4.0426     0.0250 H       
  29 H29           -2.2201     4.0297     0.0210 H       
  30 H30           -2.2243     1.5704    -0.0145 H       
  31 H31           -2.4910     8.0980    -0.5141 H       
  32 H32           -0.8243     8.0818    -1.1459 H       
  33 H33           -2.2096     5.8458     0.4052 H       
  34 H34           -1.7608     5.8235    -1.3177 H       
  35 H35           -0.4593     5.8338     2.1572 H       
  36 H36            1.2639     5.8028     1.7099 H       
  37 H37            1.1084     8.0686     0.7887 H       
  38 H38            0.4751     8.0777     2.4549 H       
  39 H39           -2.2891     9.6442     6.2194 H       
  40 H40            0.7081    10.1387     2.3252 H       
  41 H41            0.5828     9.8413     7.3930 H       
  42 H42            0.8153    11.5071     6.8105 H       
  43 H43           -0.7520    11.0144     7.4954 H       
  44 H44           -3.4115     7.7161     3.9658 H       
  45 H45           -4.1008     9.1608     4.7443 H       
  46 H46           -3.8647     9.1274     2.9803 H       
  47 H47            2.0608    11.2118     5.4931 H       
  48 H48            2.3505    11.0458     3.8465 H       
@<TRIPOS>BOND
   1    1    2 1
   2    1    8 3
   3    2    3 ar
   4    2    7 ar
   5    3    4 ar
   6    3   27 1
   7    4    5 ar
   8    4   28 1
   9    5    6 ar
  10    5   12 1
  11    6    7 ar
  12    6   29 1
  13    7   30 1
  14    9   10 1
  15    9   14 1
  16    9   16 am
  17   10   11 1
  18   10   31 1
  19   10   32 1
  20   11   12 1
  21   11   33 1
  22   11   34 1
  23   12   13 1
  24   12   15 1
  25   13   14 1
  26   13   35 1
  27   13   36 1
  28   14   37 1
  29   14   38 1
  30   16   17 1
  31   16   23 2
  32   17   18 ar
  33   17   22 ar
  34   18   19 ar
  35   18   25 1
  36   19   20 ar
  37   19   39 1
  38   20   21 ar
  39   20   24 1
  40   21   22 ar
  41   21   26 1
  42   22   40 1
  43   24   41 1
  44   24   42 1
  45   24   43 1
  46   25   44 1
  47   25   45 1
  48   25   46 1
  49   26   47 1
  50   26   48 1

#	End of record

