#	Name: ASD03330536
#	Creating user name:	WinNT
#	Creation time:	15. 06. 2019 20:37

#	Modifying user name:	WinNT
#	Modification time:	15. 06. 2019 20:37

#	Program:	/corina/corina34_cracker 3.40 0067  02.08.2006

@<TRIPOS>MOLECULE
ASD03330536
  50   51    0    0    0
SMALL
NO_CHARGES


@<TRIPOS>ATOM
   1 C1             0.1605     1.2187     0.7165 C.2     
   2 N2             0.2492    -0.1112     0.9867 N.pl3   
   3 C3             1.4325     1.6939     0.6367 C.2     
   4 N4             2.2728     0.6452     0.8419 N.2     
   5 C5             1.5662    -0.4317     1.0448 C.2     
   6 Br6            2.2638    -2.1596     1.3670 Br      
   7 C7             1.8271     3.0890     0.3757 C.2     
   8 O8             0.9752     3.9407     0.2077 O.2     
   9 C9             3.5245     4.8090     0.0636 C.3     
  10 N10            3.1321     3.4216     0.3231 N.am    
  11 C11            3.5512     5.0576    -1.4459 C.3     
  12 C12            2.1346     4.9280    -2.0092 C.3     
  13 C13            4.0828     6.4656    -1.7215 C.3     
  14 C14            4.4628     4.0279    -2.1163 C.3     
  15 C15            4.8949     5.0594     0.6382 C.2     
  16 N16            5.3856     6.3136     0.6889 N.am    
  17 O17            5.5563     4.1322     1.0551 O.2     
  18 C18            6.7485     6.5480     1.1725 C.3     
  19 C19           -0.8880    -1.0136     1.1893 C.3     
  20 C20           -1.9162    -0.7840     0.0774 C.3     
  21 C21           -2.8751     0.3307     0.4830 C.3     
  22 N22           -2.1929     1.3459     1.2879 N.3     
  23 C23           -1.1158     1.9960     0.5263 C.3     
  24 C24           -3.1463     2.3378     1.8027 C.3     
  25 H25            2.8061     5.4831     0.5301 H       
  26 H26            3.8115     2.7424     0.4571 H       
  27 H27            1.4851     5.6616    -1.5316 H       
  28 H28            2.1536     5.1051    -3.0846 H       
  29 H29            1.7558     3.9250    -1.8128 H       
  30 H30            5.0445     6.5945    -1.2250 H       
  31 H31            4.2072     6.6031    -2.7957 H       
  32 H32            3.3755     7.2021    -1.3404 H       
  33 H33            4.0841     3.0249    -1.9199 H       
  34 H34            4.4819     4.2050    -3.1916 H       
  35 H35            5.4720     4.1202    -1.7149 H       
  36 H36            4.8363     7.0611     0.4052 H       
  37 H37            6.8370     6.1890     2.1979 H       
  38 H38            7.4559     6.0140     0.5382 H       
  39 H39            6.9665     7.6156     1.1412 H       
  40 H40           -0.5429    -2.0471     1.1585 H       
  41 H41           -1.3465    -0.8103     2.1570 H       
  42 H42           -1.4005    -0.5022    -0.8406 H       
  43 H43           -2.4787    -1.7023    -0.0914 H       
  44 H44           -3.2798     0.7985    -0.4145 H       
  45 H45           -3.6936    -0.0952     1.0633 H       
  46 H46           -0.9788     3.0155     0.8866 H       
  47 H47           -1.3773     2.0141    -0.5317 H       
  48 H48           -3.8888     1.8389     2.4255 H       
  49 H49           -2.6132     3.0799     2.3969 H       
  50 H50           -3.6444     2.8305     0.9677 H       
@<TRIPOS>BOND
   1    1    2 1
   2    1    3 2
   3    1   23 1
   4    2   19 1
   5    2    5 1
   6    3    4 1
   7    3    7 1
   8    4    5 2
   9    5    6 1
  10    7    8 2
  11    7   10 am
  12    9   10 1
  13    9   11 1
  14    9   15 1
  15    9   25 1
  16   10   26 1
  17   11   12 1
  18   11   13 1
  19   11   14 1
  20   12   27 1
  21   12   28 1
  22   12   29 1
  23   13   30 1
  24   13   31 1
  25   13   32 1
  26   14   33 1
  27   14   34 1
  28   14   35 1
  29   15   16 am
  30   15   17 2
  31   16   18 1
  32   16   36 1
  33   18   37 1
  34   18   38 1
  35   18   39 1
  36   19   20 1
  37   19   40 1
  38   19   41 1
  39   20   21 1
  40   20   42 1
  41   20   43 1
  42   21   22 1
  43   21   44 1
  44   21   45 1
  45   22   23 1
  46   22   24 1
  47   23   46 1
  48   23   47 1
  49   24   48 1
  50   24   49 1
  51   24   50 1

#	End of record

