#	Name: ASD02560515
#	Creating user name:	WinNT
#	Creation time:	15. 06. 2019 20:25

#	Modifying user name:	WinNT
#	Modification time:	15. 06. 2019 20:25

#	Program:	/corina/corina34_cracker 3.40 0067  02.08.2006

@<TRIPOS>MOLECULE
ASD02560515
  49   52    0    0    0
SMALL
NO_CHARGES


@<TRIPOS>ATOM
   1 C1            -1.3303     2.5128    -0.6354 C.2     
   2 C2            -1.5396     1.6335    -1.7130 C.2     
   3 C3            -2.3147     0.5413    -1.5603 C.2     
   4 N4            -2.9087     0.2711    -0.3566 N.pl3   
   5 C5            -2.7217     1.1129     0.7159 C.2     
   6 C6            -1.9083     2.2566     0.5679 C.2     
   7 C7            -3.7235    -0.7447     0.0606 C.2     
   8 C8            -4.0187    -0.5010     1.3855 C.2     
   9 N9            -3.3941     0.6340     1.7496 N.2     
  10 C10           -4.8744    -1.3413     2.2555 C.ar    
  11 N11           -4.1707    -1.8206    -0.7068 N.3     
  12 C12           -5.5924    -1.6711    -1.0450 C.3     
  13 C13           -4.5535    -2.6811     2.4692 C.ar    
  14 C14           -6.0020    -0.7932     2.8692 C.ar    
  15 C15           -5.7273    -1.2681    -2.5148 C.3     
  16 C16           -6.3145    -2.9998    -0.8122 C.3     
  17 C17           -7.7952    -2.8441    -1.1645 C.3     
  18 C18           -7.9302    -2.4410    -2.6342 C.3     
  19 C19           -7.2081    -1.1123    -2.8671 C.3     
  20 C20           -2.5299    -0.3904    -2.7250 C.3     
  21 C21           -5.3545    -3.4589     3.2806 C.ar    
  22 C22           -6.4739    -2.9122     3.8817 C.ar    
  23 C23           -6.7952    -1.5819     3.6787 C.ar    
  24 Cl24          -6.4059     0.8760     2.6156 Cl      
  25 C25           -0.4626     3.7321    -0.8126 C.3     
  26 H26           -1.0772     1.8347    -2.6680 H       
  27 H27           -1.7523     2.9259     1.4010 H       
  28 H28           -3.6105    -1.9289    -1.5390 H       
  29 H29           -6.0368    -0.9008    -0.4148 H       
  30 H30           -3.6800    -3.1096     2.0004 H       
  31 H31           -5.2129    -0.3215    -2.6807 H       
  32 H32           -5.2830    -2.0384    -3.1451 H       
  33 H33           -5.8701    -3.7701    -1.4425 H       
  34 H34           -6.2184    -3.2869     0.2349 H       
  35 H35           -8.3096    -3.7906    -0.9986 H       
  36 H36           -8.2396    -2.0737    -0.5342 H       
  37 H37           -7.4858    -3.2113    -3.2645 H       
  38 H38           -8.9851    -2.3300    -2.8852 H       
  39 H39           -7.6524    -0.3420    -2.2368 H       
  40 H40           -7.3042    -0.8252    -3.9142 H       
  41 H41           -1.9803    -0.0221    -3.5912 H       
  42 H42           -2.1723    -1.3865    -2.4644 H       
  43 H43           -3.5929    -0.4364    -2.9619 H       
  44 H44           -5.1067    -4.4970     3.4464 H       
  45 H45           -7.0975    -3.5254     4.5154 H       
  46 H46           -7.6706    -1.1607     4.1507 H       
  47 H47           -1.0770     4.5708    -1.1398 H       
  48 H48            0.0146     3.9794     0.1357 H       
  49 H49            0.3023     3.5279    -1.5619 H       
@<TRIPOS>BOND
   1    1    2 1
   2    1   25 1
   3    1    6 2
   4    2    3 2
   5    2   26 1
   6    3    4 1
   7    3   20 1
   8    4    5 1
   9    4    7 1
  10    5    6 1
  11    5    9 2
  12    6   27 1
  13    7    8 2
  14    7   11 1
  15    8    9 1
  16    8   10 1
  17   10   13 ar
  18   10   14 ar
  19   11   12 1
  20   11   28 1
  21   12   16 1
  22   12   15 1
  23   12   29 1
  24   13   21 ar
  25   13   30 1
  26   14   24 1
  27   14   23 ar
  28   15   19 1
  29   15   31 1
  30   15   32 1
  31   16   17 1
  32   16   33 1
  33   16   34 1
  34   17   18 1
  35   17   35 1
  36   17   36 1
  37   18   19 1
  38   18   37 1
  39   18   38 1
  40   19   39 1
  41   19   40 1
  42   20   41 1
  43   20   42 1
  44   20   43 1
  45   21   22 ar
  46   21   44 1
  47   22   23 ar
  48   22   45 1
  49   23   46 1
  50   25   47 1
  51   25   48 1
  52   25   49 1

#	End of record

