#	Name: ASD01238022
#	Creating user name:	WinNT
#	Creation time:	15. 06. 2019 19:15

#	Modifying user name:	WinNT
#	Modification time:	15. 06. 2019 19:15

#	Program:	/corina/corina34_cracker 3.40 0067  02.08.2006

@<TRIPOS>MOLECULE
ASD01238022
  46   48    0    0    0
SMALL
NO_CHARGES


@<TRIPOS>ATOM
   1 N1             0.0175    -1.1399    -0.0042 N.1     
   2 C2             0.0021    -0.0041     0.0020 C.1     
   3 C3            -0.0173     1.4278     0.0099 C.2     
   4 C4             1.1103     2.1913     0.0032 C.2     
   5 C5             2.5104     1.6341    -0.0136 C.3     
   6 C6             2.9701     1.4538    -1.4617 C.3     
   7 S7             0.7418     3.8539     0.0157 S.3     
   8 C8            -0.9876     3.5563     0.0306 C.2     
   9 C9            -1.2348     2.2047     0.0195 C.2     
  10 C10           -2.5901     1.6140     0.0271 C.ar    
  11 C11           -3.4459     1.8151    -1.0587 C.ar    
  12 C12           -4.7073     1.2653    -1.0516 C.ar    
  13 C13           -5.1321     0.5058     0.0413 C.ar    
  14 C14           -4.2761     0.3039     1.1267 C.ar    
  15 C15           -3.0130     0.8500     1.1177 C.ar    
  16 C16           -6.4878    -0.0841     0.0494 C.2     
  17 C17           -6.9076    -1.0527    -0.8301 C.2     
  18 S18           -8.5740    -1.4900    -0.4963 S.3     
  19 C19           -8.6896    -0.3885     0.7973 C.2     
  20 C20           -7.5223     0.2868     0.9866 C.2     
  21 C21           -7.3414     1.2743     2.0077 C.1     
  22 N22           -7.1980     2.0578     2.8177 N.1     
  23 C23           -9.9282    -0.1899     1.6325 C.3     
  24 C24          -10.7982     0.9001     1.0033 C.3     
  25 C25           -6.0856    -1.6341    -1.8902 C.2     
  26 O26           -4.9372    -1.2627    -2.0423 O.2     
  27 O27           -6.6008    -2.5827    -2.6999 O.3     
  28 C28           -2.0159     4.5954     0.0460 C.2     
  29 O29           -3.1926     4.2866     0.0561 O.2     
  30 O30           -1.6599     5.8969     0.0491 O.3     
  31 H31            3.1821     2.3238     0.4976 H       
  32 H32            2.5239     0.6700     0.4946 H       
  33 H33            3.9828     1.0508    -1.4739 H       
  34 H34            2.2985     0.7641    -1.9729 H       
  35 H35            2.9566     2.4179    -1.9700 H       
  36 H36           -3.1175     2.4023    -1.9035 H       
  37 H37           -5.3691     1.4214    -1.8907 H       
  38 H38           -4.6046    -0.2829     1.9717 H       
  39 H39           -2.3512     0.6940     1.9567 H       
  40 H40          -10.4901    -1.1228     1.6768 H       
  41 H41           -9.6423     0.1103     2.6406 H       
  42 H42          -11.6940     1.0438     1.6074 H       
  43 H43          -10.2363     1.8331     0.9590 H       
  44 H44          -11.0841     0.6000    -0.0048 H       
  45 H45           -5.9827    -2.9063    -3.3694 H       
  46 H46           -2.4081     6.5094     0.0596 H       
@<TRIPOS>BOND
   1    1    2 3
   2    2    3 1
   3    3    4 2
   4    3    9 1
   5    4    5 1
   6    4    7 1
   7    5    6 1
   8    5   31 1
   9    5   32 1
  10    6   33 1
  11    6   34 1
  12    6   35 1
  13    7    8 1
  14    8    9 2
  15    8   28 1
  16    9   10 1
  17   10   11 ar
  18   10   15 ar
  19   11   12 ar
  20   11   36 1
  21   12   13 ar
  22   12   37 1
  23   13   14 ar
  24   13   16 1
  25   14   15 ar
  26   14   38 1
  27   15   39 1
  28   16   17 2
  29   16   20 1
  30   17   18 1
  31   17   25 1
  32   18   19 1
  33   19   20 2
  34   19   23 1
  35   20   21 1
  36   21   22 3
  37   23   24 1
  38   23   40 1
  39   23   41 1
  40   24   42 1
  41   24   43 1
  42   24   44 1
  43   25   26 2
  44   25   27 1
  45   27   45 1
  46   28   29 2
  47   28   30 1
  48   30   46 1

#	End of record

