#	Name: ASD03430863
#	Creating user name:	WinNT
#	Creation time:	15. 06. 2019 20:41

#	Modifying user name:	WinNT
#	Modification time:	15. 06. 2019 20:41

#	Program:	/corina/corina34_cracker 3.40 0067  02.08.2006

@<TRIPOS>MOLECULE
ASD03430863
  34   38    0    0    0
SMALL
NO_CHARGES


@<TRIPOS>ATOM
   1 C1            -0.0170     1.4014     0.0097 C.ar    
   2 C2             0.0021    -0.0041     0.0020 C.ar    
   3 C3             1.1786     2.1027     0.0021 C.ar    
   4 C4             2.3889     1.4216    -0.0091 C.ar    
   5 C5             2.3915     0.0232     0.0012 C.ar    
   6 C6             1.2250    -0.6799    -0.0002 C.ar    
   7 O7             3.6592     1.9142    -0.0444 O.3     
   8 C8             3.8357    -0.4013     0.0276 C.3     
   9 C9             4.5782     0.8929     0.3871 C.3     
  10 N10            4.6267    -2.5203     0.3596 N.am    
  11 C11            4.0899    -1.4855     1.0359 C.2     
  12 C12            4.2921    -0.9646    -1.2850 C.ar    
  13 C13            4.3204    -0.4765    -2.5724 C.ar    
  14 C14            4.8166    -1.2588    -3.5998 C.ar    
  15 C15            5.2842    -2.5324    -3.3316 C.ar    
  16 C16            5.2570    -3.0267    -2.0442 C.ar    
  17 C17            4.7581    -2.2466    -1.0038 C.ar    
  18 O18            3.8579    -1.4386     2.2255 O.2     
  19 O19           -1.3120     1.7788     0.0296 O.3     
  20 C20           -1.3967    -0.4380    -0.0016 C.2     
  21 N21           -2.1346     0.6294     0.0197 N.2     
  22 C22           -1.8886    -1.8624    -0.0177 C.3     
  23 H23            1.1689     3.1826     0.0045 H       
  24 H24            1.2452    -1.7597    -0.0037 H       
  25 H25            5.5188     0.9635    -0.1591 H       
  26 H26            4.7484     0.9552     1.4619 H       
  27 H27            4.8914    -3.3575     0.7718 H       
  28 H28            3.9544     0.5181    -2.7802 H       
  29 H29            4.8384    -0.8758    -4.6094 H       
  30 H30            5.6721    -3.1428    -4.1337 H       
  31 H31            5.6235    -4.0223    -1.8422 H       
  32 H32           -2.0062    -2.2178     1.0060 H       
  33 H33           -2.8490    -1.9093    -0.5312 H       
  34 H34           -1.1666    -2.4903    -0.5397 H       
@<TRIPOS>BOND
   1    1    2 ar
   2    1    3 ar
   3    1   19 1
   4    2    6 ar
   5    2   20 1
   6    3    4 ar
   7    3   23 1
   8    4    5 ar
   9    4    7 1
  10    5    6 ar
  11    5    8 1
  12    6   24 1
  13    7    9 1
  14    8    9 1
  15    8   11 1
  16    8   12 1
  17    9   25 1
  18    9   26 1
  19   10   11 am
  20   10   17 1
  21   10   27 1
  22   11   18 2
  23   12   13 ar
  24   12   17 ar
  25   13   14 ar
  26   13   28 1
  27   14   15 ar
  28   14   29 1
  29   15   16 ar
  30   15   30 1
  31   16   17 ar
  32   16   31 1
  33   19   21 1
  34   20   21 2
  35   20   22 1
  36   22   32 1
  37   22   33 1
  38   22   34 1

#	End of record

