#	Name: ASD00170614
#	Creating user name:	WinNT
#	Creation time:	15. 06. 2019 18:32

#	Modifying user name:	WinNT
#	Modification time:	15. 06. 2019 18:32

#	Program:	/corina/corina34_cracker 3.40 0067  02.08.2006

@<TRIPOS>MOLECULE
ASD00170614
  43   46    0    0    0
SMALL
NO_CHARGES


@<TRIPOS>ATOM
   1 C1            -0.0147     1.2144     0.0067 C.2     
   2 O2            -0.0380    -0.0038    -0.0148 O.2     
   3 C3             1.2743     1.9263     0.0033 C.ar    
   4 C4             1.3159     3.3134    -0.0904 C.ar    
   5 C5             2.5263     3.9851    -0.0944 C.ar    
   6 C6             3.7268     3.3123    -0.0064 C.ar    
   7 C7             3.7515     1.9049     0.0909 C.ar    
   8 C8             4.9629     1.2014     0.1804 C.ar    
   9 C9             4.9477    -0.1577     0.2727 C.ar    
  10 C10            3.7465    -0.8618     0.2798 C.ar    
  11 C11            2.5523    -0.2094     0.1940 C.ar    
  12 C12            2.5317     1.1876     0.1043 C.ar    
  13 O13            4.8907     4.0074    -0.0140 O.3     
  14 C14            4.7962     5.4296    -0.1153 C.3     
  15 C15           -3.1114     2.9745     1.0180 C.2     
  16 C16           -1.9967     2.2732     1.2497 C.2     
  17 C17           -1.2688     1.9705     0.0298 C.2     
  18 C18           -1.8725     2.4635    -1.0972 C.2     
  19 S19           -3.3079     3.2874    -0.6987 S.3     
  20 C20           -1.5477     1.8441     2.6375 C.3     
  21 C21           -2.2951     2.6813     3.6779 C.3     
  22 C22           -3.7959     2.6364     3.3751 C.3     
  23 C23           -4.0690     3.4393     2.0987 C.3     
  24 N24           -1.3836     2.3126    -2.3801 N.pl3   
  25 H25            0.3944     3.8721    -0.1612 H       
  26 H26            2.5305     5.0626    -0.1685 H       
  27 H27            5.9020     1.7347     0.1756 H       
  28 H28            5.8809    -0.6969     0.3411 H       
  29 H29            3.7609    -1.9391     0.3540 H       
  30 H30            1.6274    -0.7669     0.1998 H       
  31 H31            4.2291     5.8173     0.7310 H       
  32 H32            5.7970     5.8615    -0.1104 H       
  33 H33            4.2905     5.6950    -1.0437 H       
  34 H34           -1.7760     0.7886     2.7853 H       
  35 H35           -0.4747     2.0059     2.7407 H       
  36 H36           -2.1119     2.2747     4.6725 H       
  37 H37           -1.9455     3.7128     3.6349 H       
  38 H38           -4.1084     1.6019     3.2330 H       
  39 H39           -4.3487     3.0749     4.2059 H       
  40 H40           -3.9181     4.5020     2.2883 H       
  41 H41           -5.0957     3.2655     1.7766 H       
  42 H42           -0.5211     1.8928    -2.5242 H       
  43 H43           -1.9028     2.6265    -3.1370 H       
@<TRIPOS>BOND
   1    1    2 2
   2    1    3 1
   3    1   17 1
   4    3    4 ar
   5    3   12 ar
   6    4    5 ar
   7    4   25 1
   8    5    6 ar
   9    5   26 1
  10    6    7 ar
  11    6   13 1
  12    7    8 ar
  13    7   12 ar
  14    8    9 ar
  15    8   27 1
  16    9   10 ar
  17    9   28 1
  18   10   11 ar
  19   10   29 1
  20   11   12 ar
  21   11   30 1
  22   13   14 1
  23   14   31 1
  24   14   32 1
  25   14   33 1
  26   15   16 2
  27   15   19 1
  28   15   23 1
  29   16   17 1
  30   16   20 1
  31   17   18 2
  32   18   19 1
  33   18   24 1
  34   20   21 1
  35   20   34 1
  36   20   35 1
  37   21   22 1
  38   21   36 1
  39   21   37 1
  40   22   23 1
  41   22   38 1
  42   22   39 1
  43   23   40 1
  44   23   41 1
  45   24   42 1
  46   24   43 1

#	End of record

