#	Name: ASD01815818
#	Creating user name:	WinNT
#	Creation time:	15. 06. 2019 19:34

#	Modifying user name:	WinNT
#	Modification time:	15. 06. 2019 19:34

#	Program:	/corina/corina34_cracker 3.40 0067  02.08.2006

@<TRIPOS>MOLECULE
ASD01815818
  56   60    0    0    0
SMALL
NO_CHARGES


@<TRIPOS>ATOM
   1 C1            -0.0429     1.4358     0.0029 C.ar    
   2 C2            -0.0366     0.0450    -0.0264 C.ar    
   3 C3             1.1351    -0.6507    -0.0602 C.ar    
   4 C4             2.3560     0.0411    -0.0658 C.ar    
   5 C5             2.3456     1.4570    -0.0359 C.ar    
   6 C6             1.1257     2.1400    -0.0015 C.ar    
   7 C7             3.5842    -0.6517    -0.1010 C.ar    
   8 C8             4.7639     0.0136    -0.1070 C.ar    
   9 C9             4.8093     1.4161    -0.0783 C.ar    
  10 C10            3.6209     2.1679    -0.0421 C.ar    
  11 C11            6.0825     2.1479    -0.0855 C.2     
  12 N12            6.0250     3.4997    -0.0570 N.am    
  13 C13            4.8281     4.1373    -0.0229 C.2     
  14 N14            3.6885     3.5095    -0.0164 N.2     
  15 C15            7.2646     4.2804    -0.0626 C.3     
  16 C16            7.2911     5.1891    -1.2956 C.3     
  17 C17            7.3323     5.1405     1.2015 C.3     
  18 C18            8.6422     5.9317     1.2126 C.3     
  19 C19            8.6843     6.8591    -0.0060 C.3     
  20 N20            8.4745     6.0564    -1.2186 N.am    
  21 O21            7.1491     1.5610    -0.1154 O.2     
  22 C22            3.5837    -2.1584    -0.1321 C.3     
  23 C23            3.4356    -2.6315    -1.5553 C.ar    
  24 C24            4.5561    -2.8496    -2.3425 C.ar    
  25 C25            4.3727    -3.2845    -3.6457 C.ar    
  26 C26            3.0865    -3.4851    -4.1145 C.ar    
  27 N27            2.0433    -3.2671    -3.3361 N.ar    
  28 C28            2.1817    -2.8586    -2.0898 C.ar    
  29 Cl29           2.8423    -4.0290    -5.7449 Cl      
  30 O30            7.2753     4.2978     2.3542 O.3     
  31 C31            9.3512     6.1143    -2.2406 C.2     
  32 C32           10.4893     7.1013    -2.2021 C.3     
  33 O33            9.2241     5.3721    -3.1913 O.2     
  34 H34           -0.9843     1.9647     0.0250 H       
  35 H35           -0.9739    -0.4915    -0.0218 H       
  36 H36            1.1239    -1.7304    -0.0824 H       
  37 H37            1.1087     3.2197     0.0210 H       
  38 H38            5.6874    -0.5459    -0.1339 H       
  39 H39            4.8209     5.2170    -0.0001 H       
  40 H40            8.1197     3.6051    -0.0899 H       
  41 H41            7.3430     4.5795    -2.1977 H       
  42 H42            6.3898     5.8017    -1.3175 H       
  43 H43            6.4901     5.8322     1.2156 H       
  44 H44            8.7004     6.5262     2.1244 H       
  45 H45            9.4847     5.2412     1.1736 H       
  46 H46            7.8967     7.6080     0.0774 H       
  47 H47            9.6555     7.3514    -0.0571 H       
  48 H48            4.5222    -2.5306     0.2787 H       
  49 H49            2.7519    -2.5339     0.4640 H       
  50 H50            5.5484    -2.6842    -1.9495 H       
  51 H51            5.2228    -3.4641    -4.2872 H       
  52 H52            1.3044    -2.6910    -1.4827 H       
  53 H53            7.3135     4.7765     3.1936 H       
  54 H54           10.3841     7.7433    -1.3275 H       
  55 H55           11.4354     6.5629    -2.1459 H       
  56 H56           10.4716     7.7117    -3.1050 H       
@<TRIPOS>BOND
   1    1    2 ar
   2    1    6 ar
   3    1   34 1
   4    2    3 ar
   5    2   35 1
   6    3    4 ar
   7    3   36 1
   8    4    5 ar
   9    4    7 ar
  10    5    6 ar
  11    5   10 ar
  12    6   37 1
  13    7    8 ar
  14    7   22 1
  15    8    9 ar
  16    8   38 1
  17    9   10 ar
  18    9   11 1
  19   10   14 1
  20   11   12 am
  21   11   21 2
  22   12   13 1
  23   12   15 1
  24   13   14 2
  25   13   39 1
  26   15   16 1
  27   15   17 1
  28   15   40 1
  29   16   20 1
  30   16   41 1
  31   16   42 1
  32   17   18 1
  33   17   30 1
  34   17   43 1
  35   18   19 1
  36   18   44 1
  37   18   45 1
  38   19   20 1
  39   19   46 1
  40   19   47 1
  41   20   31 am
  42   22   23 1
  43   22   48 1
  44   22   49 1
  45   23   24 ar
  46   23   28 ar
  47   24   25 ar
  48   24   50 1
  49   25   26 ar
  50   25   51 1
  51   26   27 ar
  52   26   29 1
  53   27   28 ar
  54   28   52 1
  55   30   53 1
  56   31   32 1
  57   31   33 2
  58   32   54 1
  59   32   55 1
  60   32   56 1

#	End of record

