#	Name: ASD01913045
#	Creating user name:	WinNT
#	Creation time:	15. 06. 2019 20:00

#	Modifying user name:	WinNT
#	Modification time:	15. 06. 2019 20:00

#	Program:	/corina/corina34_cracker 3.40 0067  02.08.2006

@<TRIPOS>MOLECULE
ASD01913045
  25   25    0    0    0
SMALL
NO_CHARGES


@<TRIPOS>ATOM
   1 C1            -0.0169     1.3945     0.0097 C.ar    
   2 C2             0.0021    -0.0041     0.0020 C.ar    
   3 C3            -1.2601    -0.7608     0.0095 C.2     
   4 C4            -1.2354    -2.2676     0.0012 C.3     
   5 O5            -2.3200    -0.1720     0.0224 O.2     
   6 C6            -2.6477    -2.7933     0.0113 C.2     
   7 C7            -2.8986    -4.2792     0.0056 C.3     
   8 O8            -3.5783    -2.0238     0.0240 O.2     
   9 C9            -4.4059    -4.5419     0.0180 C.3     
  10 C10            1.2262    -0.6796    -0.0133 C.ar    
  11 C11            2.4056     0.0375    -0.0207 C.ar    
  12 C12            2.3777     1.4221    -0.0125 C.ar    
  13 C13            1.1694     2.0970     0.0022 C.ar    
  14 Cl14           3.9271    -0.7981    -0.0397 Cl      
  15 H15           -0.9587     1.9230     0.0171 H       
  16 H16           -0.7238    -2.6176    -0.8954 H       
  17 H17           -0.7075    -2.6272     0.8845 H       
  18 H18           -2.4607    -4.7182    -0.8908 H       
  19 H19           -2.4444    -4.7278     0.8891 H       
  20 H20           -4.8601    -4.0933    -0.8654 H       
  21 H21           -4.5874    -5.6167     0.0139 H       
  22 H22           -4.8438    -4.1029     0.9144 H       
  23 H23            1.2488    -1.7593    -0.0190 H       
  24 H24            3.3036     1.9782    -0.0177 H       
  25 H25            1.1558     3.1769     0.0081 H       
@<TRIPOS>BOND
   1    1    2 ar
   2    1   13 ar
   3    1   15 1
   4    2    3 1
   5    2   10 ar
   6    3    4 1
   7    3    5 2
   8    4    6 1
   9    4   16 1
  10    4   17 1
  11    6    7 1
  12    6    8 2
  13    7    9 1
  14    7   18 1
  15    7   19 1
  16    9   20 1
  17    9   21 1
  18    9   22 1
  19   10   11 ar
  20   10   23 1
  21   11   12 ar
  22   11   14 1
  23   12   13 ar
  24   12   24 1
  25   13   25 1

#	End of record

