#	Name: ASD01420351
#	Creating user name:	WinNT
#	Creation time:	15. 06. 2019 19:20

#	Modifying user name:	WinNT
#	Modification time:	15. 06. 2019 19:20

#	Program:	/corina/corina34_cracker 3.40 0067  02.08.2006

@<TRIPOS>MOLECULE
ASD01420351
  70   75    0    0    0
SMALL
NO_CHARGES


@<TRIPOS>ATOM
   1 N1            -0.8194     1.6981    -1.2085 N.3     
   2 C2            -0.9251     0.2408    -1.3552 C.3     
   3 C3            -0.0528    -0.2200    -2.5252 C.3     
   4 C4             1.4010     0.1810    -2.2605 C.3     
   5 C5             1.4762     1.6976    -2.0635 C.3     
   6 C6             0.5596     2.1028    -0.9069 C.3     
   7 O7             1.8712    -0.4775    -1.0827 O.3     
   8 C8             4.9017    -1.3757    -6.5622 C.3     
   9 N9             5.9621    -1.9898    -5.7313 N.3     
  10 C10            5.8212    -1.3161    -4.4205 C.3     
  11 C11            4.3678    -0.9116    -4.3232 C.ar    
  12 C12            3.5838    -0.5471    -3.2453 C.ar    
  13 C13            2.2553    -0.2170    -3.4365 C.ar    
  14 C14            1.7100    -0.2523    -4.7065 C.ar    
  15 C15            2.4934    -0.6173    -5.7852 C.ar    
  16 C16            3.8218    -0.9470    -5.5949 C.ar    
  17 C17            7.2907    -1.7457    -6.3085 C.3     
  18 C18            7.9025     2.4593    -6.7454 C.ar    
  19 C19           10.2845    -3.3598    -3.7241 C.ar    
  20 C20            7.5485    -3.6277   -10.1346 C.ar    
  21 C21            7.3533     1.7293    -7.7829 C.ar    
  22 C22            7.1557     0.3684    -7.6417 C.ar    
  23 C23            7.5067    -0.2623    -6.4627 C.ar    
  24 C24            8.0553     0.4678    -5.4250 C.ar    
  25 C25            8.2534     1.8286    -5.5664 C.ar    
  26 C26            8.9755    -3.7916    -3.6198 C.ar    
  27 C27            8.0066    -3.2690    -4.4559 C.ar    
  28 C28            8.3469    -2.3150    -5.3967 C.ar    
  29 C29            9.6560    -1.8836    -5.5013 C.ar    
  30 C30           10.6248    -2.4058    -4.6648 C.ar    
  31 C31            8.5416    -2.7584    -9.7237 C.ar    
  32 C32            8.4580    -2.1491    -8.4857 C.ar    
  33 C33            7.3816    -2.4096    -7.6584 C.ar    
  34 C34            6.3888    -3.2793    -8.0692 C.ar    
  35 C35            6.4721    -3.8882    -9.3074 C.ar    
  36 C36           -1.7492     2.1929    -0.1845 C.3     
  37 H37           -0.5873    -0.2420    -0.4382 H       
  38 H38           -1.9632    -0.0305    -1.5472 H       
  39 H39           -0.1193    -1.3035    -2.6240 H       
  40 H40           -0.3988     0.2517    -3.4449 H       
  41 H41            2.5021     1.9841    -1.8323 H       
  42 H42            1.1543     2.1995    -2.9759 H       
  43 H43            0.5999     3.1838    -0.7732 H       
  44 H44            0.8904     1.6113     0.0081 H       
  45 H45            2.7874    -0.2690    -0.8546 H       
  46 H46            5.2949    -0.5100    -7.0952 H       
  47 H47            4.5064    -2.1059    -7.2684 H       
  48 H48            6.0753    -2.0042    -3.6143 H       
  49 H49            6.4609    -0.4345    -4.3796 H       
  50 H50            4.0093    -0.5199    -2.2531 H       
  51 H51            0.6717     0.0050    -4.8557 H       
  52 H52            2.0671    -0.6452    -6.7771 H       
  53 H53            8.0610     3.5217    -6.8574 H       
  54 H54           11.0406    -3.7648    -3.0679 H       
  55 H55            7.6116    -4.1003   -11.1037 H       
  56 H56            7.0788     2.2221    -8.7038 H       
  57 H57            6.7260    -0.2018    -8.4520 H       
  58 H58            8.3292    -0.0249    -4.5038 H       
  59 H59            8.6821     2.3990    -4.7557 H       
  60 H60            8.7097    -4.5372    -2.8851 H       
  61 H61            6.9840    -3.6069    -4.3749 H       
  62 H62            9.9219    -1.1385    -6.2365 H       
  63 H63           11.6475    -2.0687    -4.7466 H       
  64 H64            9.3828    -2.5551   -10.3699 H       
  65 H65            9.2342    -1.4704    -8.1643 H       
  66 H66            5.5480    -3.4831    -7.4227 H       
  67 H67            5.6965    -4.5678    -9.6283 H       
  68 H68           -1.5163     1.7275     0.7732 H       
  69 H69           -1.6503     3.2748    -0.0963 H       
  70 H70           -2.7710     1.9437    -0.4707 H       
@<TRIPOS>BOND
   1    1    2 1
   2    1    6 1
   3    1   36 1
   4    2    3 1
   5    2   37 1
   6    2   38 1
   7    3    4 1
   8    3   39 1
   9    3   40 1
  10    4    5 1
  11    4    7 1
  12    4   13 1
  13    5    6 1
  14    5   41 1
  15    5   42 1
  16    6   43 1
  17    6   44 1
  18    7   45 1
  19    8    9 1
  20    8   16 1
  21    8   46 1
  22    8   47 1
  23    9   10 1
  24    9   17 1
  25   10   11 1
  26   10   48 1
  27   10   49 1
  28   11   12 ar
  29   11   16 ar
  30   12   13 ar
  31   12   50 1
  32   13   14 ar
  33   14   15 ar
  34   14   51 1
  35   15   16 ar
  36   15   52 1
  37   17   23 1
  38   17   28 1
  39   17   33 1
  40   18   21 ar
  41   18   25 ar
  42   18   53 1
  43   19   26 ar
  44   19   30 ar
  45   19   54 1
  46   20   31 ar
  47   20   35 ar
  48   20   55 1
  49   21   22 ar
  50   21   56 1
  51   22   23 ar
  52   22   57 1
  53   23   24 ar
  54   24   25 ar
  55   24   58 1
  56   25   59 1
  57   26   27 ar
  58   26   60 1
  59   27   28 ar
  60   27   61 1
  61   28   29 ar
  62   29   30 ar
  63   29   62 1
  64   30   63 1
  65   31   32 ar
  66   31   64 1
  67   32   33 ar
  68   32   65 1
  69   33   34 ar
  70   34   35 ar
  71   34   66 1
  72   35   67 1
  73   36   68 1
  74   36   69 1
  75   36   70 1

#	End of record

