#	Name: ASD00170425
#	Creating user name:	WinNT
#	Creation time:	15. 06. 2019 18:32

#	Modifying user name:	WinNT
#	Modification time:	15. 06. 2019 18:32

#	Program:	/corina/corina34_cracker 3.40 0067  02.08.2006

@<TRIPOS>MOLECULE
ASD00170425
  41   43    0    0    0
SMALL
NO_CHARGES


@<TRIPOS>ATOM
   1 C1             0.2545     1.3897     0.0647 C.2     
   2 C2             0.2216     0.0146     0.0899 C.2     
   3 C3            -1.1265    -0.5122     0.0577 C.2     
   4 C4            -2.0542     0.4312     0.0106 C.2     
   5 S5            -1.3253     2.0271     0.0104 S.3     
   6 C6            -1.4420    -1.9857     0.0754 C.3     
   7 N7             1.4072     2.1483     0.0864 N.pl3   
   8 C8             1.4188    -0.8241     0.1435 C.2     
   9 C9             2.0036    -1.3585    -1.1052 C.ar    
  10 O10            1.9338    -1.0823     1.2163 O.2     
  11 C11            3.0775    -2.2490    -1.0511 C.ar    
  12 C12            3.6184    -2.7444    -2.2188 C.ar    
  13 C13            3.0984    -2.3601    -3.4438 C.ar    
  14 C14            2.0333    -1.4765    -3.5038 C.ar    
  15 C15            1.4804    -0.9790    -2.3426 C.ar    
  16 Cl16           3.7846    -2.9879    -4.9096 Cl      
  17 N17           -2.8922    -2.1736     0.1645 N.pl3   
  18 C18           -3.6783    -2.3948    -1.0518 C.3     
  19 C19           -3.5260    -2.1418     1.4104 C.ar    
  20 C20           -4.9085    -2.2475     1.4902 C.ar    
  21 C21           -5.5325    -2.2164     2.7220 C.ar    
  22 C22           -4.7807    -2.0798     3.8768 C.ar    
  23 C23           -3.4023    -1.9743     3.7996 C.ar    
  24 C24           -2.7736    -2.0102     2.5702 C.ar    
  25 F25           -5.3931    -2.0492     5.0806 F       
  26 H26           -3.1173     0.2435    -0.0197 H       
  27 H27           -1.0713    -2.4477    -0.8396 H       
  28 H28           -0.9619    -2.4497     0.9370 H       
  29 H29            2.2694     1.7175     0.1955 H       
  30 H30            1.3552     3.1124    -0.0075 H       
  31 H31            3.4839    -2.5491    -0.0965 H       
  32 H32            4.4493    -3.4331    -2.1782 H       
  33 H33            1.6325    -1.1799    -4.4618 H       
  34 H34            0.6500    -0.2901    -2.3907 H       
  35 H35           -3.7360    -3.4636    -1.2578 H       
  36 H36           -4.6834    -1.9969    -0.9122 H       
  37 H37           -3.2003    -1.8884    -1.8904 H       
  38 H38           -5.4952    -2.3537     0.5897 H       
  39 H39           -6.6075    -2.2982     2.7845 H       
  40 H40           -2.8179    -1.8675     4.7015 H       
  41 H41           -1.6984    -1.9279     2.5104 H       
@<TRIPOS>BOND
   1    1    2 2
   2    1    7 1
   3    1    5 1
   4    2    3 1
   5    2    8 1
   6    3    4 2
   7    3    6 1
   8    4    5 1
   9    4   26 1
  10    6   17 1
  11    6   27 1
  12    6   28 1
  13    7   29 1
  14    7   30 1
  15    8    9 1
  16    8   10 2
  17    9   11 ar
  18    9   15 ar
  19   11   12 ar
  20   11   31 1
  21   12   13 ar
  22   12   32 1
  23   13   14 ar
  24   13   16 1
  25   14   15 ar
  26   14   33 1
  27   15   34 1
  28   17   18 1
  29   17   19 1
  30   18   35 1
  31   18   36 1
  32   18   37 1
  33   19   20 ar
  34   19   24 ar
  35   20   21 ar
  36   20   38 1
  37   21   22 ar
  38   21   39 1
  39   22   23 ar
  40   22   25 1
  41   23   24 ar
  42   23   40 1
  43   24   41 1

#	End of record

