#	Name: ASD01813327
#	Creating user name:	WinNT
#	Creation time:	15. 06. 2019 19:30

#	Modifying user name:	WinNT
#	Modification time:	15. 06. 2019 19:30

#	Program:	/corina/corina34_cracker 3.40 0067  02.08.2006

@<TRIPOS>MOLECULE
ASD01813327
  55   59    0    0    0
SMALL
NO_CHARGES


@<TRIPOS>ATOM
   1 C1            -0.0169     1.3972     0.0097 C.2     
   2 C2             0.0021    -0.0041     0.0020 C.2     
   3 C3             1.1986    -0.6593    -0.0129 C.2     
   4 C4             2.3918     0.0821    -0.0204 C.2     
   5 N5             2.3437     1.4497    -0.0122 N.am    
   6 C6             1.1421     2.0937     0.0024 C.2     
   7 C7             3.6227    -0.5889    -0.0356 C.2     
   8 C8             4.7877     0.1218    -0.0425 C.2     
   9 C9             4.7345     1.5280    -0.0346 C.2     
  10 C10            3.4812     2.1736    -0.0189 C.2     
  11 O11            3.4258     3.3917    -0.0123 O.2     
  12 C12            5.9703     2.3140    -0.0413 C.2     
  13 O13            5.9124     3.6618    -0.0337 O.3     
  14 O14            7.0487     1.7516    -0.0537 O.2     
  15 C15            3.6593    -2.0954    -0.0439 C.3     
  16 C16            3.7837    -2.5946    -1.4848 C.3     
  17 N17            3.8194    -4.0631    -1.4929 N.3     
  18 C18            3.6999    -4.5842    -2.8584 C.3     
  19 C19            3.8378    -6.0840    -2.8645 C.ar    
  20 C20            4.3863    -6.7684    -1.8013 C.ar    
  21 C21            4.8735    -6.0538    -0.5669 C.3     
  22 C22            5.0511    -4.5642    -0.8624 C.3     
  23 C23            3.3970    -6.7832    -3.9788 C.ar    
  24 C24            3.5065    -8.1580    -4.0285 C.ar    
  25 C25            4.0589    -8.8438    -2.9626 C.ar    
  26 C26            4.4976    -8.1498    -1.8529 C.ar    
  27 C27            2.3530    -4.2062    -3.4188 C.ar    
  28 C28            2.2216    -3.8013    -4.7383 C.ar    
  29 C29            0.9702    -3.4628    -5.2175 C.ar    
  30 N30           -0.0900    -3.5212    -4.4355 N.ar    
  31 C31           -0.0025    -3.9017    -3.1759 C.ar    
  32 C32            1.2149    -4.2607    -2.6288 C.ar    
  33 H33           -0.9605     1.9226     0.0170 H       
  34 H34           -0.9233    -0.5609     0.0082 H       
  35 H35            1.2282    -1.7389    -0.0187 H       
  36 H36            1.1156     3.1733     0.0087 H       
  37 H37            5.7393    -0.3889    -0.0536 H       
  38 H38            6.7544     4.1373    -0.0385 H       
  39 H39            4.5153    -2.4412     0.5356 H       
  40 H40            2.7412    -2.4836     0.3971 H       
  41 H41            2.9277    -2.2488    -2.0643 H       
  42 H42            4.7018    -2.2064    -1.9259 H       
  43 H43            4.4825    -4.1484    -3.4794 H       
  44 H44            4.1459    -6.1795     0.2349 H       
  45 H45            5.8286    -6.4775    -0.2567 H       
  46 H46            5.8930    -4.4232    -1.5402 H       
  47 H47            5.2317    -4.0253     0.0677 H       
  48 H48            2.9653    -6.2485    -4.8120 H       
  49 H49            3.1611    -8.6973    -4.8982 H       
  50 H50            4.1467    -9.9196    -2.9979 H       
  51 H51            4.9293    -8.6854    -1.0204 H       
  52 H52            3.0862    -3.7507    -5.3835 H       
  53 H53            0.8594    -3.1463    -6.2441 H       
  54 H54           -0.8930    -3.9369    -2.5658 H       
  55 H55            1.2801    -4.5718    -1.5966 H       
@<TRIPOS>BOND
   1    1    2 1
   2    1    6 2
   3    1   33 1
   4    2    3 2
   5    2   34 1
   6    3    4 1
   7    3   35 1
   8    4    5 1
   9    4    7 2
  10    5    6 1
  11    5   10 am
  12    6   36 1
  13    7    8 1
  14    7   15 1
  15    8    9 2
  16    8   37 1
  17    9   10 1
  18    9   12 1
  19   10   11 2
  20   12   13 1
  21   12   14 2
  22   13   38 1
  23   15   16 1
  24   15   39 1
  25   15   40 1
  26   16   17 1
  27   16   41 1
  28   16   42 1
  29   17   18 1
  30   17   22 1
  31   18   19 1
  32   18   27 1
  33   18   43 1
  34   19   20 ar
  35   19   23 ar
  36   20   21 1
  37   20   26 ar
  38   21   22 1
  39   21   44 1
  40   21   45 1
  41   22   46 1
  42   22   47 1
  43   23   24 ar
  44   23   48 1
  45   24   25 ar
  46   24   49 1
  47   25   26 ar
  48   25   50 1
  49   26   51 1
  50   27   28 ar
  51   27   32 ar
  52   28   29 ar
  53   28   52 1
  54   29   30 ar
  55   29   53 1
  56   30   31 ar
  57   31   32 ar
  58   31   54 1
  59   32   55 1

#	End of record

