#	Name: ASD01881883
#	Creating user name:	WinNT
#	Creation time:	15. 06. 2019 19:43

#	Modifying user name:	WinNT
#	Modification time:	15. 06. 2019 19:43

#	Program:	/corina/corina34_cracker 3.40 0067  02.08.2006

@<TRIPOS>MOLECULE
ASD01881883
  39   42    0    0    0
SMALL
NO_CHARGES


@<TRIPOS>ATOM
   1 N1            -0.0162     1.3400     0.0094 N.am    
   2 C2             0.0021    -0.0041     0.0020 C.2     
   3 C3             1.4295    -0.5050    -0.0042 C.3     
   4 C4             2.2649     0.7251     0.4200 C.3     
   5 C5             1.3438     1.8917    -0.0006 C.3     
   6 O6            -0.9826    -0.7121     0.0009 O.2     
   7 C7             1.4557     3.0425     1.0014 C.3     
   8 O8             0.6427     4.1340     0.5660 O.3     
   9 N9             0.4125     8.7252     3.5446 N.pl3   
  10 N10           -0.4749     9.4114     2.7024 N.2     
  11 N11           -0.7793     8.6637     1.7010 N.2     
  12 C12           -0.1479     7.4764     1.7936 C.ar    
  13 C13            0.6228     7.4928     2.9690 C.ar    
  14 C14           -0.1364     6.3325     0.9835 C.ar    
  15 C15            0.6291     5.2450     1.3501 C.ar    
  16 C16            1.3879     5.2764     2.5177 C.ar    
  17 C17            1.3854     6.3840     3.3179 C.ar    
  18 C18            1.0039     9.2243     4.7885 C.3     
  19 C19            0.0939     8.8667     5.9653 C.3     
  20 C20            0.5946     9.1996     7.3722 C.3     
  21 C21           -0.5352    10.0211     6.7481 C.3     
  22 Br22          -1.1636     6.2808    -0.6033 Br      
  23 H23           -0.8243     1.8763     0.0163 H       
  24 H24            1.5524    -1.3157     0.7140 H       
  25 H25            1.7143    -0.8332    -1.0039 H       
  26 H26            2.4332     0.7297     1.4970 H       
  27 H27            3.2104     0.7599    -0.1212 H       
  28 H28            1.6040     2.2356    -1.0017 H       
  29 H29            1.1171     2.7054     1.9811 H       
  30 H30            2.4942     3.3668     1.0677 H       
  31 H31            1.9825     4.4179     2.7932 H       
  32 H32            1.9770     6.3984     4.2214 H       
  33 H33            1.9828     8.7674     4.9344 H       
  34 H34            1.1135    10.3072     4.7299 H       
  35 H35           -0.4979     7.9595     5.8433 H       
  36 H36            0.3320     8.5116     8.1758 H       
  37 H37            1.5724     9.6733     7.4594 H       
  38 H38           -0.3006    11.0353     6.4246 H       
  39 H39           -1.5411     9.8736     7.1410 H       
@<TRIPOS>BOND
   1    1    2 am
   2    1    5 1
   3    1   23 1
   4    2    3 1
   5    2    6 2
   6    3    4 1
   7    3   24 1
   8    3   25 1
   9    4    5 1
  10    4   26 1
  11    4   27 1
  12    5    7 1
  13    5   28 1
  14    7    8 1
  15    7   29 1
  16    7   30 1
  17    8   15 1
  18    9   10 1
  19    9   13 1
  20    9   18 1
  21   10   11 2
  22   11   12 1
  23   12   13 ar
  24   12   14 ar
  25   13   17 ar
  26   14   15 ar
  27   14   22 1
  28   15   16 ar
  29   16   17 ar
  30   16   31 1
  31   17   32 1
  32   18   19 1
  33   18   33 1
  34   18   34 1
  35   19   20 1
  36   19   21 1
  37   19   35 1
  38   20   21 1
  39   20   36 1
  40   20   37 1
  41   21   38 1
  42   21   39 1

#	End of record

