#	Name: ASD01815031
#	Creating user name:	WinNT
#	Creation time:	15. 06. 2019 19:33

#	Modifying user name:	WinNT
#	Modification time:	15. 06. 2019 19:33

#	Program:	/corina/corina34_cracker 3.40 0067  02.08.2006

@<TRIPOS>MOLECULE
ASD01815031
  62   65    0    0    0
SMALL
NO_CHARGES


@<TRIPOS>ATOM
   1 C1             2.2300     4.6340    -4.1573 C.2     
   2 C2             2.5159     3.3781    -3.6050 C.2     
   3 C3             3.7119     2.7812    -3.8776 C.2     
   4 C4             4.6370     3.4358    -4.7077 C.2     
   5 N5             4.3318     4.6619    -5.2333 N.am    
   6 C6             3.1332     5.2486    -4.9541 C.2     
   7 C7             5.8669     2.8245    -4.9893 C.2     
   8 C8             6.7729     3.4520    -5.7942 C.2     
   9 C9             6.4555     4.7125    -6.3333 C.2     
  10 C10            5.2106     5.3014    -6.0312 C.2     
  11 O11            4.9271     6.3933    -6.4944 O.2     
  12 C12            7.4105     5.4072    -7.1995 C.2     
  13 O13            7.1001     6.6153    -7.7132 O.3     
  14 O14            8.4835     4.8947    -7.4558 O.2     
  15 C15            6.1888     1.4742    -4.4026 C.3     
  16 N16            5.8436     0.4248    -5.3709 N.3     
  17 C17            6.3573    -0.8808    -4.9373 C.3     
  18 C18            6.1077    -1.9185    -6.0341 C.3     
  19 C19            4.6048    -2.0075    -6.3132 C.3     
  20 C20            4.0856    -0.6244    -6.7159 C.3     
  21 C21            4.3938     0.3757    -5.5993 C.3     
  22 C22            4.3575    -2.9853    -7.4329 C.ar    
  23 H23            4.0867    -2.3437    -5.4150 H       
  24 H24            7.4277    -0.8047    -4.7462 H       
  25 H25            6.6296    -1.6198    -6.9432 H       
  26 C26            3.5736    -4.1012    -7.2141 C.ar    
  27 C27            3.3459    -5.0009    -8.2456 C.ar    
  28 C28            3.9067    -4.7770    -9.4944 C.ar    
  29 C29            4.6901    -3.6592    -9.7082 C.ar    
  30 C30            4.9111    -2.7616    -8.6803 C.ar    
  31 O31            2.5753    -6.0998    -8.0326 O.3     
  32 C32            2.2851    -6.9185    -9.1674 C.3     
  33 C33            3.5852    -7.5111    -9.7146 C.3     
  34 C34            1.3436    -8.0507    -8.7520 C.3     
  35 C35            1.6157    -6.0701   -10.2505 C.3     
  36 H36            1.2834     5.1105    -3.9495 H       
  37 H37            1.7951     2.8869    -2.9682 H       
  38 H38            3.9456     1.8137    -3.4585 H       
  39 H39            2.9025     6.2165    -5.3742 H       
  40 H40            7.7224     2.9869    -6.0145 H       
  41 H41            7.7623     7.0349    -8.2794 H       
  42 H42            7.2532     1.4218    -4.1740 H       
  43 H43            5.6132     1.3287    -3.4885 H       
  44 H44            5.8464    -1.1872    -4.0244 H       
  45 H45            6.4750    -2.8908    -5.7056 H       
  46 H46            4.5757    -0.3054    -7.6357 H       
  47 H47            3.0083    -0.6721    -6.8745 H       
  48 H48            3.8922     0.0635    -4.6834 H       
  49 H49            4.0382     1.3645    -5.8891 H       
  50 H50            3.1384    -4.2736    -6.2408 H       
  51 H51            3.7313    -5.4760   -10.2988 H       
  52 H52            5.1269    -3.4844   -10.6804 H       
  53 H53            5.5238    -1.8885    -8.8494 H       
  54 H54            3.8657    -8.3814    -9.1214 H       
  55 H55            3.4394    -7.8105   -10.7525 H       
  56 H56            4.3766    -6.7636    -9.6598 H       
  57 H57            0.4174    -7.6285    -8.3621 H       
  58 H58            1.1222    -8.6752    -9.6175 H       
  59 H59            1.8205    -8.6551    -7.9804 H       
  60 H60            2.1874    -5.1541   -10.3996 H       
  61 H61            1.5813    -6.6329   -11.1833 H       
  62 H62            0.6015    -5.8189    -9.9401 H       
@<TRIPOS>BOND
   1    1    2 1
   2    1    6 2
   3    1   36 1
   4    2    3 2
   5    2   37 1
   6    3    4 1
   7    3   38 1
   8    4    5 1
   9    4    7 2
  10    5    6 1
  11    5   10 am
  12    6   39 1
  13    7    8 1
  14    7   15 1
  15    8    9 2
  16    8   40 1
  17    9   10 1
  18    9   12 1
  19   10   11 2
  20   12   13 1
  21   12   14 2
  22   13   41 1
  23   15   16 1
  24   15   42 1
  25   15   43 1
  26   16   17 1
  27   16   21 1
  28   17   18 1
  29   17   24 1
  30   17   44 1
  31   18   19 1
  32   18   25 1
  33   18   45 1
  34   19   23 1
  35   19   22 1
  36   19   20 1
  37   20   21 1
  38   20   46 1
  39   20   47 1
  40   21   48 1
  41   21   49 1
  42   22   26 ar
  43   22   30 ar
  44   26   27 ar
  45   26   50 1
  46   27   28 ar
  47   27   31 1
  48   28   29 ar
  49   28   51 1
  50   29   30 ar
  51   29   52 1
  52   30   53 1
  53   31   32 1
  54   32   33 1
  55   32   34 1
  56   32   35 1
  57   33   54 1
  58   33   55 1
  59   33   56 1
  60   34   57 1
  61   34   58 1
  62   34   59 1
  63   35   60 1
  64   35   61 1
  65   35   62 1

#	End of record

