#	Name: ASD01814913
#	Creating user name:	WinNT
#	Creation time:	15. 06. 2019 19:33

#	Modifying user name:	WinNT
#	Modification time:	15. 06. 2019 19:33

#	Program:	/corina/corina34_cracker 3.40 0067  02.08.2006

@<TRIPOS>MOLECULE
ASD01814913
  53   57    0    0    0
SMALL
NO_CHARGES


@<TRIPOS>ATOM
   1 C1            -0.6555     0.4131     0.2955 C.2     
   2 C2            -0.3707    -0.9591     0.3007 C.2     
   3 C3             0.9251    -1.3763     0.2119 C.2     
   4 C4             1.9525    -0.4229     0.1167 C.2     
   5 N5             1.6457     0.9107     0.1143 N.am    
   6 C6             0.3469     1.3159     0.2032 C.2     
   7 C7             3.2850    -0.8491     0.0254 C.2     
   8 C8             4.2906     0.0688    -0.0671 C.2     
   9 C9             3.9715     1.4394    -0.0698 C.2     
  10 C10            2.6219     1.8364     0.0238 C.2     
  11 O11            2.3362     3.0219     0.0218 O.2     
  12 C12            5.0320     2.4446    -0.1675 C.2     
  13 O13            4.7195     3.7569    -0.1696 O.3     
  14 O14            6.1948     2.0963    -0.2469 O.2     
  15 C15            3.6070    -2.3213     0.0298 C.3     
  16 N16            3.7264    -2.8005    -1.3537 N.3     
  17 C17            4.2693    -4.1656    -1.3931 C.3     
  18 C18            4.3034    -4.6565    -2.8423 C.3     
  19 N19            5.1256    -3.7424    -3.6473 N.3     
  20 C20            4.5827    -2.3773    -3.6078 C.3     
  21 C21            4.5486    -1.8864    -2.1586 C.3     
  22 H22            5.2800    -4.1669    -0.9848 H       
  23 H23            4.7327    -5.6578    -2.8771 H       
  24 H24            3.2896    -4.6811    -3.2419 H       
  25 C25            5.2381    -4.1940    -4.9509 C.ar    
  26 N26            4.2145    -4.7833    -5.5387 N.ar    
  27 C27            4.2676    -5.2343    -6.7853 C.ar    
  28 C28            5.3891    -5.1189    -7.5465 C.ar    
  29 C29            6.5270    -4.5008    -6.9913 C.ar    
  30 C30            6.4480    -4.0207    -5.6601 C.ar    
  31 C31            7.7185    -4.3448    -7.7130 C.ar    
  32 C32            8.7860    -3.7379    -7.1218 C.ar    
  33 C33            8.7103    -3.2713    -5.8117 C.ar    
  34 C34            7.5651    -3.4021    -5.0841 C.ar    
  35 H35           -1.6793     0.7505     0.3611 H       
  36 H36           -1.1709    -1.6807     0.3748 H       
  37 H37            1.1592    -2.4306     0.2150 H       
  38 H38            0.1160     2.3709     0.2004 H       
  39 H39            5.3193    -0.2528    -0.1370 H       
  40 H40            5.4535     4.3829    -0.2359 H       
  41 H41            4.5485    -2.4857     0.5538 H       
  42 H42            2.8098    -2.8660     0.5355 H       
  43 H43            3.6364    -4.8259    -0.8002 H       
  44 H44            5.2156    -1.7170    -4.2007 H       
  45 H45            3.5720    -2.3760    -4.0161 H       
  46 H46            4.1194    -0.8851    -2.1238 H       
  47 H47            5.5625    -1.8618    -1.7590 H       
  48 H48            3.3940    -5.7077    -7.2086 H       
  49 H49            5.4071    -5.4949    -8.5587 H       
  50 H50            7.7901    -4.7030    -8.7293 H       
  51 H51            9.7044    -3.6174    -7.6772 H       
  52 H52            9.5711    -2.7943    -5.3668 H       
  53 H53            7.5207    -3.0353    -4.0693 H       
@<TRIPOS>BOND
   1    1    2 1
   2    1    6 2
   3    1   35 1
   4    2    3 2
   5    2   36 1
   6    3    4 1
   7    3   37 1
   8    4    5 1
   9    4    7 2
  10    5    6 1
  11    5   10 am
  12    6   38 1
  13    7   15 1
  14    7    8 1
  15    8    9 2
  16    8   39 1
  17    9   10 1
  18    9   12 1
  19   10   11 2
  20   12   13 1
  21   12   14 2
  22   13   40 1
  23   15   16 1
  24   15   41 1
  25   15   42 1
  26   16   17 1
  27   16   21 1
  28   17   18 1
  29   17   22 1
  30   17   43 1
  31   18   19 1
  32   18   23 1
  33   18   24 1
  34   19   20 1
  35   19   25 1
  36   20   21 1
  37   20   44 1
  38   20   45 1
  39   21   46 1
  40   21   47 1
  41   25   26 ar
  42   25   30 ar
  43   26   27 ar
  44   27   28 ar
  45   27   48 1
  46   28   29 ar
  47   28   49 1
  48   29   30 ar
  49   29   31 ar
  50   30   34 ar
  51   31   32 ar
  52   31   50 1
  53   32   33 ar
  54   32   51 1
  55   33   34 ar
  56   33   52 1
  57   34   53 1

#	End of record

