#	Name: ASD06020019
#	Creating user name:	WinNT
#	Creation time:	15. 06. 2019 21:04

#	Modifying user name:	WinNT
#	Modification time:	15. 06. 2019 21:04

#	Program:	/corina/corina34_cracker 3.40 0067  02.08.2006

@<TRIPOS>MOLECULE
ASD06020019
  33   36    0    0    0
SMALL
NO_CHARGES


@<TRIPOS>ATOM
   1 C1            -0.0166     1.3952     0.0025 C.ar    
   2 C2             0.0030    -0.0035     0.0023 C.ar    
   3 C3             1.2299    -0.6764    -0.0203 C.ar    
   4 C4             2.4026     0.1209    -0.0420 C.ar    
   5 C5             2.2925     1.4755    -0.0401 C.ar    
   6 N6             1.1144     2.0790    -0.0184 N.ar    
   7 S7            -1.2859    -1.2018     0.0256 S.3     
   8 C8            -0.0956    -2.4967     0.0035 C.2     
   9 N9             1.1001    -2.0038    -0.0182 N.2     
  10 N10           -1.2335     2.0703     0.0191 N.pl3   
  11 C11           -1.2583     3.4571     0.1318 C.ar    
  12 C12           -2.4672     4.1463     0.0371 C.ar    
  13 C13           -2.4380     5.5265     0.1565 C.ar    
  14 C14           -1.2089     6.1377     0.3629 C.ar    
  15 N15           -0.1141     5.4078     0.4394 N.ar    
  16 N16           -0.1344     4.1287     0.3351 N.ar    
  17 C17           -0.4155    -3.9394     0.0095 C.ar    
  18 C18            0.6114    -4.8862    -0.0096 C.ar    
  19 C19            0.3052    -6.2324    -0.0039 C.ar    
  20 C20           -1.0152    -6.6455     0.0201 C.ar    
  21 C21           -2.0378    -5.7151     0.0391 C.ar    
  22 C22           -1.7468    -4.3634     0.0400 C.ar    
  23 F23           -2.7466    -3.4552     0.0647 F       
  24 Cl24           2.2690    -4.3712    -0.0408 Cl      
  25 H25            3.3767    -0.3453    -0.0596 H       
  26 H26            3.1901     2.0758    -0.0567 H       
  27 H27           -2.0643     1.5742    -0.0479 H       
  28 H28           -3.3968     3.6207    -0.1246 H       
  29 H29           -3.3447     6.1095     0.0907 H       
  30 H30           -1.1496     7.2117     0.4604 H       
  31 H31            1.0984    -6.9652    -0.0186 H       
  32 H32           -1.2482    -7.7001     0.0237 H       
  33 H33           -3.0660    -6.0449     0.0577 H       
@<TRIPOS>BOND
   1    1    2 ar
   2    1    6 ar
   3    1   10 1
   4    2    3 ar
   5    2    7 1
   6    3    4 ar
   7    3    9 1
   8    4    5 ar
   9    4   25 1
  10    5    6 ar
  11    5   26 1
  12    7    8 1
  13    8    9 2
  14    8   17 1
  15   10   11 1
  16   10   27 1
  17   11   12 ar
  18   11   16 ar
  19   12   13 ar
  20   12   28 1
  21   13   14 ar
  22   13   29 1
  23   14   15 ar
  24   14   30 1
  25   15   16 ar
  26   17   18 ar
  27   17   22 ar
  28   18   19 ar
  29   18   24 1
  30   19   20 ar
  31   19   31 1
  32   20   21 ar
  33   20   32 1
  34   21   22 ar
  35   21   33 1
  36   22   23 1

#	End of record

