#	Name: ASD05740004
#	Creating user name:	WinNT
#	Creation time:	15. 06. 2019 21:02

#	Modifying user name:	WinNT
#	Modification time:	15. 06. 2019 21:02

#	Program:	/corina/corina34_cracker 3.40 0067  02.08.2006

@<TRIPOS>MOLECULE
ASD05740004
  52   55    0    0    0
SMALL
NO_CHARGES


@<TRIPOS>ATOM
   1 C1             0.6624     1.3567    -1.0852 C.ar    
   2 C2             1.2096     3.3523    -0.0252 C.ar    
   3 C3             0.0432     4.0924     0.1594 C.ar    
   4 C4             0.0789     5.4564     0.1350 C.ar    
   5 C5             1.2949     6.1166    -0.0763 C.ar    
   6 C6             2.4760     5.3748    -0.2627 C.ar    
   7 C7             2.4224     3.9893    -0.2302 C.ar    
   8 C8             1.3631     7.5791    -0.1079 C.2     
   9 C9             2.5727     8.1607    -0.3175 C.2     
  10 C10            3.7164     7.3556    -0.4967 C.2     
  11 O11            3.6469     6.0155    -0.4671 O.3     
  12 C12            2.6919     9.6624    -0.3587 C.3     
  13 C13            3.0857    10.1727     1.0036 C.ar    
  14 C14            2.1226    10.6099     1.9040 C.ar    
  15 O15            4.7948     7.8898    -0.6837 O.2     
  16 C16            4.7392    10.6890     2.6563 C.ar    
  17 N17            3.7912    11.1015     3.4825 N.ar    
  18 C18            2.5157    11.0709     3.1438 C.ar    
  19 O19            1.1577     1.9959     0.0017 O.3     
  20 N20            6.0713    10.7387     3.0551 N.am    
  21 S21            6.4649    11.3121     4.5579 S.o2    
  22 O22            7.8834    11.2388     4.6005 O.2     
  23 O23            5.7931    12.5614     4.6434 O.2     
  24 C24            0.1250     8.4161     0.0861 C.3     
  25 N25            0.5049     0.0434    -1.0457 N.ar    
  26 C26            0.0240    -0.6121    -2.0892 C.ar    
  27 C27           -0.3160     0.0939    -3.2325 C.ar    
  28 C28           -0.1379     1.4684    -3.2390 C.ar    
  29 N29            0.3429     2.0615    -2.1586 N.ar    
  30 C30            5.7308    10.1147     5.7059 C.3     
  31 C31            6.0289    10.5393     7.1452 C.3     
  32 C32            4.4150    10.2109     1.3882 C.ar    
  33 F33            5.3843     9.7902     0.5463 F       
  34 H34           -0.8952     3.5832     0.3224 H       
  35 H35           -0.8283     6.0246     0.2779 H       
  36 H36            3.3221     3.4089    -0.3720 H       
  37 H37            3.4517     9.9467    -1.0867 H       
  38 H38            1.7336    10.0952    -0.6457 H       
  39 H39            1.0765    10.5895     1.6363 H       
  40 H40            1.7697    11.4116     3.8464 H       
  41 H41            6.7694    10.4374     2.4528 H       
  42 H42           -0.7346     7.7634     0.2380 H       
  43 H43            0.2530     9.0573     0.9582 H       
  44 H44           -0.0387     9.0329    -0.7975 H       
  45 H45           -0.1019    -1.6840    -2.0510 H       
  46 H46           -0.7104    -0.4157    -4.0992 H       
  47 H47           -0.3927     2.0486    -4.1136 H       
  48 H48            4.6521    10.0795     5.5535 H       
  49 H49            6.1560     9.1279     5.5226 H       
  50 H50            7.1076    10.5744     7.2977 H       
  51 H51            5.6037    11.5260     7.3285 H       
  52 H52            5.5878     9.8197     7.8350 H       
@<TRIPOS>BOND
   1    1   25 ar
   2    1   19 1
   3    1   29 ar
   4    2    3 ar
   5    2   19 1
   6    2    7 ar
   7    3    4 ar
   8    3   34 1
   9    4    5 ar
  10    4   35 1
  11    5    6 ar
  12    5    8 1
  13    6    7 ar
  14    6   11 1
  15    7   36 1
  16    8    9 2
  17    8   24 1
  18    9   10 1
  19    9   12 1
  20   10   11 1
  21   10   15 2
  22   12   13 1
  23   12   37 1
  24   12   38 1
  25   13   14 ar
  26   13   32 ar
  27   14   18 ar
  28   14   39 1
  29   16   17 ar
  30   16   20 1
  31   16   32 ar
  32   17   18 ar
  33   18   40 1
  34   20   21 am
  35   20   41 1
  36   21   22 2
  37   21   23 2
  38   21   30 1
  39   24   42 1
  40   24   43 1
  41   24   44 1
  42   25   26 ar
  43   26   27 ar
  44   26   45 1
  45   27   28 ar
  46   27   46 1
  47   28   29 ar
  48   28   47 1
  49   30   31 1
  50   30   48 1
  51   30   49 1
  52   31   50 1
  53   31   51 1
  54   31   52 1
  55   32   33 1

#	End of record

