#	Name: ASD01810089
#	Creating user name:	WinNT
#	Creation time:	15. 06. 2019 19:23

#	Modifying user name:	WinNT
#	Modification time:	15. 06. 2019 19:23

#	Program:	/corina/corina34_cracker 3.40 0067  02.08.2006

@<TRIPOS>MOLECULE
ASD01810089
  61   65    0    0    0
SMALL
NO_CHARGES


@<TRIPOS>ATOM
   1 C1             0.0139     1.3176    -0.1132 C.ar    
   2 C2             0.0424    -0.0660    -0.1245 C.ar    
   3 C3             1.2495    -0.7379    -0.1259 C.ar    
   4 C4             2.4371    -0.0230    -0.1158 C.ar    
   5 C5             2.4083     1.3733    -0.1043 C.ar    
   6 C6             1.1922     2.0387    -0.1030 C.ar    
   7 N7             3.7785    -0.3979    -0.1141 N.am    
   8 C8             4.5310     0.7185    -0.1022 C.2     
   9 N9             3.7332     1.8030    -0.0961 N.am    
  10 O10            5.7476     0.7435    -0.0981 O.2     
  11 C11            4.1821     3.1975    -0.0839 C.3     
  12 C12            5.0217     3.4538     1.1707 C.3     
  13 C13            5.5382     4.8942     1.1475 C.3     
  14 N14            6.3499     5.1051    -0.0580 N.3     
  15 C15            5.5525     4.9108    -1.2757 C.3     
  16 C16            5.0364     3.4709    -1.3248 C.3     
  17 C17            6.9761     6.4338    -0.0452 C.3     
  18 C18            7.9095     6.5692    -1.2504 C.3     
  19 C19            8.5869     7.9428    -1.2148 C.3     
  20 N20            7.5492     8.9799    -1.1358 N.am    
  21 C21            6.5447     8.8941    -0.0670 C.3     
  22 C22            5.8902     7.5099    -0.1154 C.3     
  23 C23            7.5196     9.9910    -2.0264 C.2     
  24 O24            8.4001    10.0943    -2.8581 O.2     
  25 C25            6.4163    10.9746    -1.9919 C.ar    
  26 C26            5.6462    11.2042    -3.1328 C.ar    
  27 C27            4.6177    12.1232    -3.0937 C.ar    
  28 C28            4.3495    12.8164    -1.9270 C.ar    
  29 C29            5.1093    12.5934    -0.7921 C.ar    
  30 C30            6.1367    11.6733    -0.8162 C.ar    
  31 C31            5.9377    10.4507    -4.4049 C.3     
  32 H32           -0.9336     1.8359    -0.1168 H       
  33 H33           -0.8829    -0.6229    -0.1321 H       
  34 H34            1.2678    -1.8177    -0.1344 H       
  35 H35            1.1660     3.1183    -0.0945 H       
  36 H36            4.1135    -1.3082    -0.1200 H       
  37 H37            3.3158     3.8591    -0.0839 H       
  38 H38            4.4064     3.3021     2.0576 H       
  39 H39            5.8660     2.7647     1.1907 H       
  40 H40            4.6934     5.5829     1.1415 H       
  41 H41            6.1482     5.0756     2.0324 H       
  42 H42            4.7076     5.5994    -1.2703 H       
  43 H43            6.1730     5.1042    -2.1508 H       
  44 H44            5.8810     2.7821    -1.3441 H       
  45 H45            4.4317     3.3314    -2.2209 H       
  46 H46            7.5494     6.5563     0.8737 H       
  47 H47            8.6687     5.7880    -1.2121 H       
  48 H48            7.3326     6.4718    -2.1701 H       
  49 H49            9.2357     8.0077    -0.3414 H       
  50 H50            9.1757     8.0834    -2.1213 H       
  51 H51            7.0270     9.0367     0.9001 H       
  52 H52            5.7860     9.6625    -0.2161 H       
  53 H53            5.3323     7.4037    -1.0458 H       
  54 H54            5.2121     7.3983     0.7307 H       
  55 H55            4.0210    12.3019    -3.9760 H       
  56 H56            3.5437    13.5351    -1.9018 H       
  57 H57            4.8947    13.1379     0.1155 H       
  58 H58            6.7287    11.4999     0.0703 H       
  59 H59            5.4289     9.4870    -4.3810 H       
  60 H60            5.5826    11.0279    -5.2586 H       
  61 H61            7.0123    10.2921    -4.4952 H       
@<TRIPOS>BOND
   1    1    2 ar
   2    1    6 ar
   3    1   32 1
   4    2    3 ar
   5    2   33 1
   6    3    4 ar
   7    3   34 1
   8    4    5 ar
   9    4    7 1
  10    5    6 ar
  11    5    9 1
  12    6   35 1
  13    7    8 am
  14    7   36 1
  15    8    9 am
  16    8   10 2
  17    9   11 1
  18   11   12 1
  19   11   16 1
  20   11   37 1
  21   12   13 1
  22   12   38 1
  23   12   39 1
  24   13   14 1
  25   13   40 1
  26   13   41 1
  27   14   15 1
  28   14   17 1
  29   15   16 1
  30   15   42 1
  31   15   43 1
  32   16   44 1
  33   16   45 1
  34   17   18 1
  35   17   22 1
  36   17   46 1
  37   18   19 1
  38   18   47 1
  39   18   48 1
  40   19   20 1
  41   19   49 1
  42   19   50 1
  43   20   21 1
  44   20   23 am
  45   21   22 1
  46   21   51 1
  47   21   52 1
  48   22   53 1
  49   22   54 1
  50   23   24 2
  51   23   25 1
  52   25   26 ar
  53   25   30 ar
  54   26   27 ar
  55   26   31 1
  56   27   28 ar
  57   27   55 1
  58   28   29 ar
  59   28   56 1
  60   29   30 ar
  61   29   57 1
  62   30   58 1
  63   31   59 1
  64   31   60 1
  65   31   61 1

#	End of record

