#	Name: ASD01813545
#	Creating user name:	WinNT
#	Creation time:	15. 06. 2019 19:30

#	Modifying user name:	WinNT
#	Modification time:	15. 06. 2019 19:30

#	Program:	/corina/corina34_cracker 3.40 0067  02.08.2006

@<TRIPOS>MOLECULE
ASD01813545
  58   62    0    0    0
SMALL
NO_CHARGES


@<TRIPOS>ATOM
   1 C1            -2.8239     1.6819    -0.0987 C.3     
   2 S2            -2.4974    -0.1023    -0.0741 S.3     
   3 C3            -1.2683    -0.2975    -1.3215 C.ar    
   4 C4            -0.7627    -1.5639    -1.5993 C.ar    
   5 C5             0.2017    -1.7025    -2.5810 C.ar    
   6 C6             0.6300    -0.5662    -3.2546 C.ar    
   7 C7             1.6786    -0.6702    -4.3320 C.3     
   8 C8             1.0101    -0.8975    -5.6634 C.ar    
   9 C9             0.8551    -2.1605    -6.1356 C.ar    
  10 C10            0.2358    -2.3914    -7.3739 C.ar    
  11 C11            0.0826    -3.7612    -7.9020 C.2     
  12 O12            0.2694    -4.7331    -7.1951 O.2     
  13 N13           -0.2731    -3.8974    -9.1996 N.am    
  14 C14           -0.3453    -2.7116   -10.0547 C.3     
  15 N15           -0.9050    -1.5725    -9.3264 N.3     
  16 C16           -0.9267    -0.3687   -10.1680 C.3     
  17 C17           -0.2584    -1.3293    -8.1325 C.ar    
  18 C18           -0.0929    -0.0080    -7.6579 C.ar    
  19 N19           -0.5309     1.0355    -8.3656 N.ar    
  20 C20           -0.3822     2.2644    -7.9336 C.ar    
  21 C21            0.2389     2.5416    -6.7180 C.ar    
  22 C22            0.7101     1.5183    -5.9448 C.ar    
  23 C23            0.5431     0.2007    -6.4107 C.ar    
  24 C24           -0.5833    -5.2212    -9.7451 C.3     
  25 H25           -0.8464    -5.1288   -10.7988 H       
  26 C26            0.6380    -6.1342    -9.6001 C.3     
  27 C27            0.2797    -7.5361   -10.1002 C.3     
  28 O28           -0.8387    -8.0323    -9.3619 O.3     
  29 C29           -2.0233    -7.2448    -9.4977 C.3     
  30 C30           -1.7590    -5.8302    -8.9749 C.3     
  31 H31           -1.5149    -5.8752    -7.9135 H       
  32 O32           -2.9233    -5.0237    -9.1646 O.3     
  33 C33            0.0852     0.6597    -2.9278 C.ar    
  34 N34           -0.8376     0.7619    -1.9904 N.ar    
  35 H35           -1.9054     2.2226     0.1299 H       
  36 H36           -3.1802     1.9725    -1.0870 H       
  37 H37           -3.5823     1.9228     0.6463 H       
  38 H38           -1.1182    -2.4266    -1.0555 H       
  39 H39            0.6127    -2.6727    -2.8180 H       
  40 H40            2.2553     0.2541    -4.3681 H       
  41 H41            2.3438    -1.5052    -4.1122 H       
  42 H42            1.2123    -2.9966    -5.5527 H       
  43 H43            0.6569    -2.4580   -10.4002 H       
  44 H44           -0.9755    -2.9299   -10.9168 H       
  45 H45           -1.2483    -0.6351   -11.1749 H       
  46 H46           -1.6206     0.3578    -9.7453 H       
  47 H47            0.0728     0.0644   -10.2085 H       
  48 H48           -0.7502     3.0822    -8.5354 H       
  49 H49            0.3482     3.5639    -6.3873 H       
  50 H50            1.1948     1.7150    -4.9999 H       
  51 H51            1.4626    -5.7363   -10.1916 H       
  52 H52            0.9320    -6.1856    -8.5518 H       
  53 H53            0.0248    -7.4902   -11.1590 H       
  54 H54            1.1319    -8.2010    -9.9598 H       
  55 H55           -2.3083    -7.1951   -10.5486 H       
  56 H56           -2.8302    -7.6998    -8.9232 H       
  57 H57           -3.7079    -5.3512    -8.7039 H       
  58 H58            0.4156     1.5458    -3.4494 H       
@<TRIPOS>BOND
   1    1    2 1
   2    1   35 1
   3    1   36 1
   4    1   37 1
   5    2    3 1
   6    3   34 ar
   7    3    4 ar
   8    4    5 ar
   9    4   38 1
  10    5    6 ar
  11    5   39 1
  12    6    7 1
  13    6   33 ar
  14    7    8 1
  15    7   40 1
  16    7   41 1
  17    8   23 ar
  18    8    9 ar
  19    9   10 ar
  20    9   42 1
  21   10   17 ar
  22   10   11 1
  23   11   12 2
  24   11   13 am
  25   13   14 1
  26   13   24 1
  27   14   15 1
  28   14   43 1
  29   14   44 1
  30   15   16 1
  31   15   17 1
  32   16   45 1
  33   16   46 1
  34   16   47 1
  35   17   18 ar
  36   18   23 ar
  37   18   19 ar
  38   19   20 ar
  39   20   21 ar
  40   20   48 1
  41   21   22 ar
  42   21   49 1
  43   22   23 ar
  44   22   50 1
  45   24   25 1
  46   24   30 1
  47   24   26 1
  48   26   27 1
  49   26   51 1
  50   26   52 1
  51   27   28 1
  52   27   53 1
  53   27   54 1
  54   28   29 1
  55   29   30 1
  56   29   55 1
  57   29   56 1
  58   30   31 1
  59   30   32 1
  60   32   57 1
  61   33   34 ar
  62   33   58 1

#	End of record

