#	Name: ASD04910087
#	Creating user name:	WinNT
#	Creation time:	15. 06. 2019 20:55

#	Modifying user name:	WinNT
#	Modification time:	15. 06. 2019 20:55

#	Program:	/corina/corina34_cracker 3.40 0067  02.08.2006

@<TRIPOS>MOLECULE
ASD04910087
  51   51    0    0    0
SMALL
NO_CHARGES


@<TRIPOS>ATOM
   1 C1             1.6126     1.5717     0.1843 C.2     
   2 C2             1.2144     0.1186     0.2150 C.3     
   3 C3             2.4095    -0.7464    -0.1906 C.3     
   4 O4             2.7370     1.8834    -0.1297 O.2     
   5 O5             0.7167     2.5199     0.5005 O.3     
   6 C6             1.6770    -2.7874    -1.3020 C.2     
   7 C7             1.6934    -2.0511    -2.5866 C.ar    
   8 C8             1.8486    -2.7464    -3.7868 C.ar    
   9 C9             1.8635    -2.0626    -4.9828 C.ar    
  10 C10            1.7231    -0.6717    -4.9938 C.ar    
  11 C11            1.5677     0.0236    -3.7909 C.ar    
  12 C12            1.5478    -0.6631    -2.5966 C.ar    
  13 O13            1.3523    -3.9581    -1.2768 O.2     
  14 N14            2.0223    -2.1591    -0.1608 N.am    
  15 C15            1.7393     0.0612    -6.2725 C.2     
  16 O16            1.6176     1.2673    -6.2815 O.2     
  17 C17            2.0105    -2.8887     1.1095 C.3     
  18 C18            1.0600    -2.1949     2.0873 C.3     
  19 C19            1.5369    -4.3235     0.8691 C.3     
  20 C20            3.4223    -2.9096     1.6988 C.3     
  21 C21            1.1701     3.8984     0.4494 C.3     
  22 C22            1.6360     4.2298    -0.9697 C.3     
  23 C23            0.0193     4.8284     0.8387 C.3     
  24 C24            2.3327     4.0894     1.4256 C.3     
  25 H25            0.8968    -0.1500     1.2225 H       
  26 H26            0.3926    -0.0477    -0.4815 H       
  27 H27            2.7271    -0.4779    -1.1981 H       
  28 H28            3.2313    -0.5802     0.5059 H       
  29 H29            1.9574    -3.8209    -3.7780 H       
  30 H30            1.9839    -2.6008    -5.9113 H       
  31 H31            1.4595     1.0982    -3.7980 H       
  32 H32            1.4233    -0.1267    -1.6675 H       
  33 H33            1.8598    -0.4763    -7.2015 H       
  34 H34            0.0542    -2.1800     1.6675 H       
  35 H35            1.0512    -2.7378     3.0325 H       
  36 H36            1.3974    -1.1727     2.2586 H       
  37 H37            2.2112    -4.8162     0.1687 H       
  38 H38            1.5328    -4.8678     1.8135 H       
  39 H39            0.5291    -4.3087     0.4539 H       
  40 H40            3.7597    -1.8874     1.8701 H       
  41 H41            3.4135    -3.4525     2.6440 H       
  42 H42            4.0995    -3.4039     1.0022 H       
  43 H43            0.8077     4.0937    -1.6651 H       
  44 H44            1.9763     5.2646    -1.0080 H       
  45 H45            2.4558     3.5672    -1.2470 H       
  46 H46           -0.3126     4.5923     1.8497 H       
  47 H47            0.3596     5.8632     0.8004 H       
  48 H48           -0.8090     4.6924     0.1433 H       
  49 H49            3.1525     3.4268     1.1482 H       
  50 H50            2.6730     5.1242     1.3872 H       
  51 H51            2.0008     3.8533     2.4366 H       
@<TRIPOS>BOND
   1    1    2 1
   2    1    4 2
   3    1    5 1
   4    2    3 1
   5    2   25 1
   6    2   26 1
   7    3   14 1
   8    3   27 1
   9    3   28 1
  10    5   21 1
  11    6    7 1
  12    6   13 2
  13    6   14 am
  14    7    8 ar
  15    7   12 ar
  16    8    9 ar
  17    8   29 1
  18    9   10 ar
  19    9   30 1
  20   10   11 ar
  21   10   15 1
  22   11   12 ar
  23   11   31 1
  24   12   32 1
  25   14   17 1
  26   15   16 2
  27   15   33 1
  28   17   18 1
  29   17   20 1
  30   17   19 1
  31   18   34 1
  32   18   35 1
  33   18   36 1
  34   19   37 1
  35   19   38 1
  36   19   39 1
  37   20   40 1
  38   20   41 1
  39   20   42 1
  40   21   22 1
  41   21   24 1
  42   21   23 1
  43   22   43 1
  44   22   44 1
  45   22   45 1
  46   23   46 1
  47   23   47 1
  48   23   48 1
  49   24   49 1
  50   24   50 1
  51   24   51 1

#	End of record

