#	Name: ASD01180035
#	Creating user name:	WinNT
#	Creation time:	15. 06. 2019 19:06

#	Modifying user name:	WinNT
#	Modification time:	15. 06. 2019 19:06

#	Program:	/corina/corina34_cracker 3.40 0067  02.08.2006

@<TRIPOS>MOLECULE
ASD01180035
  37   38    0    0    0
SMALL
NO_CHARGES


@<TRIPOS>ATOM
   1 N1            -0.2295     1.3130     0.2309 N.ar    
   2 C2            -0.2112     0.0020     0.3065 C.ar    
   3 C3             0.9753    -0.7077     0.1074 C.ar    
   4 N4             2.0967    -0.0782    -0.1595 N.ar    
   5 C5             2.1040     1.2567    -0.2422 C.ar    
   6 C6             3.2873     1.9602    -0.5256 C.ar    
   7 C7             3.2624     3.3188    -0.6028 C.ar    
   8 C8             2.0784     4.0268    -0.4047 C.ar    
   9 C9             0.9135     3.3798    -0.1279 C.ar    
  10 C10            0.8995     1.9771    -0.0401 C.ar    
  11 S11           -1.6994    -0.8712     0.6636 S.o2    
  12 O12           -2.7300     0.0719     0.4035 O.2     
  13 O13           -1.5937    -2.0685    -0.0943 O.2     
  14 C14           -1.5986    -1.2305     2.4388 C.3     
  15 C15            2.0884     5.5309    -0.4978 C.3     
  16 C16            4.5339     4.0685    -0.9065 C.3     
  17 C17            0.8315    -2.8087    -1.2018 C.3     
  18 C18            0.9688    -2.2118     0.2002 C.3     
  19 C19            0.7455    -4.3330    -1.1010 C.3     
  20 H20            4.2124     1.4250    -0.6811 H       
  21 H21            0.0039     3.9418     0.0239 H       
  22 H22           -1.4427    -0.3026     2.9891 H       
  23 H23           -2.5270    -1.6968     2.7685 H       
  24 H24           -0.7654    -1.9080     2.6256 H       
  25 H25            1.8861     5.8326    -1.5255 H       
  26 H26            1.3209     5.9406     0.1588 H       
  27 H27            3.0652     5.9073    -0.1942 H       
  28 H28            4.6362     4.1884    -1.9850 H       
  29 H29            4.4987     5.0500    -0.4335 H       
  30 H30            5.3863     3.5095    -0.5205 H       
  31 H31           -0.0728    -2.4242    -1.6735 H       
  32 H32            1.6993    -2.5326    -1.8008 H       
  33 H33            1.9014    -2.5521     0.6503 H       
  34 H34            0.1292    -2.5342     0.8162 H       
  35 H35           -0.1223    -4.6091    -0.5020 H       
  36 H36            0.6477    -4.7582    -2.0998 H       
  37 H37            1.6498    -4.7175    -0.6293 H       
@<TRIPOS>BOND
   1    1    2 ar
   2    1   10 ar
   3    2    3 ar
   4    2   11 1
   5    3    4 ar
   6    3   18 1
   7    4    5 ar
   8    5    6 ar
   9    5   10 ar
  10    6    7 ar
  11    6   20 1
  12    7    8 ar
  13    7   16 1
  14    8    9 ar
  15    8   15 1
  16    9   10 ar
  17    9   21 1
  18   11   12 2
  19   11   13 2
  20   11   14 1
  21   14   22 1
  22   14   23 1
  23   14   24 1
  24   15   25 1
  25   15   26 1
  26   15   27 1
  27   16   28 1
  28   16   29 1
  29   16   30 1
  30   17   19 1
  31   17   18 1
  32   17   31 1
  33   17   32 1
  34   18   33 1
  35   18   34 1
  36   19   35 1
  37   19   36 1
  38   19   37 1

#	End of record

