#	Name: ASD07301034
#	Creating user name:	WinNT
#	Creation time:	15. 06. 2019 21:10

#	Modifying user name:	WinNT
#	Modification time:	15. 06. 2019 21:10

#	Program:	/corina/corina34_cracker 3.40 0067  02.08.2006

@<TRIPOS>MOLECULE
ASD07301034
  38   39    0    0    0
SMALL
NO_CHARGES


@<TRIPOS>ATOM
   1 C1            -0.0341     1.4626    -0.1357 C.2     
   2 C2            -0.0011    -0.0025    -0.0193 C.2     
   3 C3             1.2780    -0.7089    -0.0453 C.2     
   4 C4             1.3119    -2.2108     0.0740 C.3     
   5 O5             1.0028     2.0970    -0.1227 O.2     
   6 O6            -1.2141     2.1023    -0.2624 O.3     
   7 N7            -1.1286    -0.6812     0.1090 N.2     
   8 N8            -2.2376    -0.0560     0.3171 N.pl3   
   9 O9            -7.0279    -2.8229     0.3646 O.3     
  10 C10           -7.0380    -4.1289    -0.2217 C.3     
  11 C11           -5.8116    -4.8955     0.2917 C.3     
  12 O12           -4.6376    -4.1729    -0.0950 O.3     
  13 C13           -4.6478    -2.8284     0.1205 C.ar    
  14 C14           -5.8425    -2.1533     0.3477 C.ar    
  15 C15           -3.4509    -2.1313     0.1109 C.ar    
  16 C16           -3.4437    -0.7584     0.3261 C.ar    
  17 C17           -4.6406    -0.0849     0.5510 C.ar    
  18 C18           -5.8342    -0.7823     0.5612 C.ar    
  19 F19           -4.6360     1.2499     0.7596 F       
  20 F20           -5.8668    -4.9946     1.6861 F       
  21 F21           -5.7851    -6.1755    -0.2724 F       
  22 F22           -8.2058    -4.8038     0.1497 F       
  23 F23           -6.9776    -4.0209    -1.6152 F       
  24 O24            2.3131    -0.0859    -0.1631 O.2     
  25 O25            2.6667    -2.6623     0.0224 O.3     
  26 C26            2.8114    -4.0800     0.1277 C.3     
  27 C27           -1.1709     3.5495    -0.3724 C.3     
  28 H28            0.8651    -2.5101     1.0220 H       
  29 H29            0.7499    -2.6534    -0.7484 H       
  30 H30           -2.2333     0.9023     0.4674 H       
  31 H31           -2.5227    -2.6550    -0.0640 H       
  32 H32           -6.7626    -0.2587     0.7356 H       
  33 H33            2.2804    -4.5614    -0.6936 H       
  34 H34            3.8684    -4.3419     0.0801 H       
  35 H35            2.3956    -4.4181     1.0768 H       
  36 H36           -2.1852     3.9369    -0.4687 H       
  37 H37           -0.7053     3.9679     0.5198 H       
  38 H38           -0.5899     3.8299    -1.2510 H       
@<TRIPOS>BOND
   1    1    2 1
   2    1    5 2
   3    1    6 1
   4    2    3 1
   5    2    7 2
   6    3    4 1
   7    3   24 2
   8    4   25 1
   9    4   28 1
  10    4   29 1
  11    6   27 1
  12    7    8 1
  13    8   16 1
  14    8   30 1
  15    9   10 1
  16    9   14 1
  17   10   11 1
  18   10   22 1
  19   10   23 1
  20   11   12 1
  21   11   20 1
  22   11   21 1
  23   12   13 1
  24   13   14 ar
  25   13   15 ar
  26   14   18 ar
  27   15   16 ar
  28   15   31 1
  29   16   17 ar
  30   17   18 ar
  31   17   19 1
  32   18   32 1
  33   25   26 1
  34   26   33 1
  35   26   34 1
  36   26   35 1
  37   27   36 1
  38   27   37 1
  39   27   38 1

#	End of record

