#	Name: ASD09116333
#	Creating user name:	WinNT
#	Creation time:	15. 06. 2019 21:21

#	Modifying user name:	WinNT
#	Modification time:	15. 06. 2019 21:21

#	Program:	/corina/corina34_cracker 3.40 0067  02.08.2006

@<TRIPOS>MOLECULE
ASD09116333
  77   83    0    0    0
SMALL
NO_CHARGES


@<TRIPOS>ATOM
   1 N1            -0.0590     1.5277    -0.5291 N.2     
   2 N2            -0.0822     0.2491    -1.1091 N.pl3   
   3 C3             1.1948     1.9114    -0.4984 C.2     
   4 N4             1.9589     0.9475    -1.0255 N.2     
   5 C5             1.2029    -0.0626    -1.3990 C.2     
   6 N6             1.6430    -1.2346    -1.9842 N.pl3   
   7 C7            -1.2077    -0.5436    -1.3410 C.ar    
   8 N8             1.6572     3.1282     0.0026 N.pl3   
   9 C9             3.0333     3.3745     0.0836 C.ar    
  10 C10            3.5138     4.6735    -0.0238 C.ar    
  11 C11            3.9167     2.3211     0.2767 C.ar    
  12 C12            5.2746     2.5633     0.3572 C.ar    
  13 C13            5.7566     3.8595     0.2445 C.ar    
  14 C14            4.8720     4.9162     0.0562 C.ar    
  15 N15            7.1339     4.1047     0.3266 N.3     
  16 C16            7.6543     3.7470     1.6536 C.3     
  17 C17            7.8603     3.3886    -0.7313 C.3     
  18 C18            9.3470     3.7446    -0.6563 C.3     
  19 N19            9.8674     3.3869     0.6706 N.3     
  20 C20            9.1409     4.1029     1.7286 C.3     
  21 C21           11.3111     3.6439     0.7567 C.3     
  22 F22            5.3406     6.1785    -0.0540 F       
  23 N23           -1.1864    -1.4607    -2.2967 N.ar    
  24 N24           -2.1985    -2.2093    -2.5574 N.ar    
  25 C25           -3.3309    -2.1053    -1.8807 C.ar    
  26 C26           -3.4387    -1.1792    -0.8393 C.ar    
  27 C27           -2.3546    -0.3737    -0.5614 C.ar    
  28 C28           -4.5162    -2.9288    -2.2145 C.ar    
  29 C29           -5.7521    -2.2995    -2.3725 C.ar    
  30 C30           -5.8378    -0.8022    -2.2556 C.3     
  31 C31           -5.7907    -0.3538    -0.7975 C.3     
  32 C32           -4.7039    -1.1069    -0.0349 C.3     
  33 C33           -4.4124    -4.3068    -2.3661 C.ar    
  34 C34           -5.5428    -5.0507    -2.6553 C.ar    
  35 C35           -6.7707    -4.4238    -2.7897 C.ar    
  36 C36           -6.8743    -3.0511    -2.6484 C.ar    
  37 F37           -5.4488    -6.3899    -2.8063 F       
  38 C38           11.7921     3.3786     2.1847 C.3     
  39 C39           13.2958     3.6463     2.2744 C.3     
  40 C40           14.0370     2.7218     1.3066 C.3     
  41 C41           13.5561     2.9870    -0.1214 C.3     
  42 C42           12.0524     2.7193    -0.2111 C.3     
  43 H43            2.5889    -1.3665    -2.1539 H       
  44 H44            1.0060    -1.9253    -2.2253 H       
  45 H45            1.0256     3.8039     0.2949 H       
  46 H46            2.8262     5.4935    -0.1700 H       
  47 H47            3.5423     1.3119     0.3645 H       
  48 H48            5.9611     1.7433     0.5082 H       
  49 H49            7.1091     4.2992     2.4190 H       
  50 H50            7.5279     2.6768     1.8174 H       
  51 H51            7.7362     2.3144    -0.5946 H       
  52 H52            7.4653     3.6797    -1.7046 H       
  53 H53            9.8922     3.1923    -1.4218 H       
  54 H54            9.4734     4.8147    -0.8202 H       
  55 H55            9.2650     5.1771     1.5919 H       
  56 H56            9.5359     3.8118     2.7019 H       
  57 H57           11.5117     4.6822     0.4928 H       
  58 H58           -2.3935     0.3668     0.2238 H       
  59 H59           -5.0024    -0.3542    -2.7936 H       
  60 H60           -6.7719    -0.4626    -2.7031 H       
  61 H61           -5.5820     0.7152    -0.7574 H       
  62 H62           -6.7565    -0.5480    -0.3310 H       
  63 H63           -5.0510    -2.1178     0.1789 H       
  64 H64           -4.5026    -0.5917     0.9043 H       
  65 H65           -3.4545    -4.7941    -2.2591 H       
  66 H66           -7.6519    -5.0094    -3.0064 H       
  67 H67           -7.8348    -2.5686    -2.7535 H       
  68 H68           11.2640     4.0373     2.8742 H       
  69 H69           11.5915     2.3403     2.4487 H       
  70 H70           13.4964     4.6847     2.0105 H       
  71 H71           13.6385     3.4574     3.2918 H       
  72 H72           15.1083     2.9125     1.3705 H       
  73 H73           13.8365     1.6834     1.5706 H       
  74 H74           13.7567     4.0254    -0.3854 H       
  75 H75           14.0841     2.3283    -0.8109 H       
  76 H76           11.8518     1.6809     0.0529 H       
  77 H77           11.7097     2.9083    -1.2284 H       
@<TRIPOS>BOND
   1    1    2 1
   2    1    3 2
   3    2    7 1
   4    2    5 1
   5    3    4 1
   6    3    8 1
   7    4    5 2
   8    5    6 1
   9    6   43 1
  10    6   44 1
  11    7   23 ar
  12    7   27 ar
  13    8    9 1
  14    8   45 1
  15    9   10 ar
  16    9   11 ar
  17   10   14 ar
  18   10   46 1
  19   11   12 ar
  20   11   47 1
  21   12   13 ar
  22   12   48 1
  23   13   14 ar
  24   13   15 1
  25   14   22 1
  26   15   17 1
  27   15   16 1
  28   16   20 1
  29   16   49 1
  30   16   50 1
  31   17   18 1
  32   17   51 1
  33   17   52 1
  34   18   19 1
  35   18   53 1
  36   18   54 1
  37   19   20 1
  38   19   21 1
  39   20   55 1
  40   20   56 1
  41   21   38 1
  42   21   42 1
  43   21   57 1
  44   23   24 ar
  45   24   25 ar
  46   25   26 ar
  47   25   28 1
  48   26   27 ar
  49   26   32 1
  50   27   58 1
  51   28   29 ar
  52   28   33 ar
  53   29   30 1
  54   29   36 ar
  55   30   31 1
  56   30   59 1
  57   30   60 1
  58   31   32 1
  59   31   61 1
  60   31   62 1
  61   32   63 1
  62   32   64 1
  63   33   34 ar
  64   33   65 1
  65   34   35 ar
  66   34   37 1
  67   35   36 ar
  68   35   66 1
  69   36   67 1
  70   38   39 1
  71   38   68 1
  72   38   69 1
  73   39   40 1
  74   39   70 1
  75   39   71 1
  76   40   41 1
  77   40   72 1
  78   40   73 1
  79   41   42 1
  80   41   74 1
  81   41   75 1
  82   42   76 1
  83   42   77 1

#	End of record

