#	Name: ASD07301076
#	Creating user name:	WinNT
#	Creation time:	15. 06. 2019 21:10

#	Modifying user name:	WinNT
#	Modification time:	15. 06. 2019 21:10

#	Program:	/corina/corina34_cracker 3.40 0067  02.08.2006

@<TRIPOS>MOLECULE
ASD07301076
  27   27    0    0    0
SMALL
NO_CHARGES


@<TRIPOS>ATOM
   1 C1            -0.1203     1.5020     0.0798 C.3     
   2 C2            -0.0953    -0.0047     0.0668 C.2     
   3 C3             0.6555    -0.7329     1.0901 C.2     
   4 C4             0.6798    -2.1960     1.0774 C.2     
   5 C5             1.8132    -2.9250     0.4030 C.3     
   6 O6            -0.6980    -0.6142    -0.7925 O.2     
   7 O7            -0.2130    -2.8223     1.6101 O.2     
   8 N8             1.3131    -0.0679     2.0277 N.2     
   9 N9             1.8887    -0.7076     2.9887 N.pl3   
  10 C10            2.4908    -0.0043     4.0327 C.ar    
  11 C11            3.1126    -0.6933     5.0709 C.ar    
  12 C12            3.7079     0.0070     6.1033 C.ar    
  13 C13            3.6854     1.3921     6.1050 C.ar    
  14 C14            3.0669     2.0788     5.0733 C.ar    
  15 C15            2.4762     1.3851     4.0356 C.ar    
  16 F16            4.2675     2.0744     7.1153 F       
  17 F17            3.1335    -2.0442     5.0693 F       
  18 H18            0.8962     1.8831    -0.0183 H       
  19 H19           -0.7254     1.8626    -0.7520 H       
  20 H20           -0.5498     1.8502     1.0192 H       
  21 H21            2.7621    -2.5839     0.8170 H       
  22 H22            1.7075    -3.9966     0.5717 H       
  23 H23            1.7900    -2.7217    -0.6677 H       
  24 H24            1.9029    -1.6775     2.9856 H       
  25 H25            4.1905    -0.5259     6.9092 H       
  26 H26            3.0509     3.1587     5.0779 H       
  27 H27            1.9985     1.9221     3.2295 H       
@<TRIPOS>BOND
   1    1    2 1
   2    1   18 1
   3    1   19 1
   4    1   20 1
   5    2    3 1
   6    2    6 2
   7    3    4 1
   8    3    8 2
   9    4    5 1
  10    4    7 2
  11    5   21 1
  12    5   22 1
  13    5   23 1
  14    8    9 1
  15    9   10 1
  16    9   24 1
  17   10   11 ar
  18   10   15 ar
  19   11   12 ar
  20   11   17 1
  21   12   13 ar
  22   12   25 1
  23   13   14 ar
  24   13   16 1
  25   14   15 ar
  26   14   26 1
  27   15   27 1

#	End of record

