#	Name: ASD08830241
#	Creating user name:	WinNT
#	Creation time:	15. 06. 2019 21:20

#	Modifying user name:	WinNT
#	Modification time:	15. 06. 2019 21:20

#	Program:	/corina/corina34_cracker 3.40 0067  02.08.2006

@<TRIPOS>MOLECULE
ASD08830241
  55   57    0    0    0
SMALL
NO_CHARGES


@<TRIPOS>ATOM
   1 C1            -0.0179     1.4664     0.0101 C.ar    
   2 C2             0.0021    -0.0041     0.0020 C.2     
   3 C3            -1.2926    -0.7753     0.0102 C.3     
   4 O4             1.0604    -0.5961    -0.0113 O.2     
   5 C5            -1.2501     2.1494     0.0314 C.ar    
   6 C6             1.1775     2.1721     0.0025 C.ar    
   7 C7             1.1498     3.5742     0.0108 C.ar    
   8 C8            -0.0981     4.2488     0.0267 C.ar    
   9 C9            -1.2933     3.5050     0.0397 C.ar    
  10 C10            2.3394     4.3245     0.0039 C.ar    
  11 C11            2.2782     5.6844     0.0127 C.ar    
  12 C12            1.0525     6.3463     0.0288 C.ar    
  13 C13           -0.1197     5.6527     0.0354 C.ar    
  14 C14           -0.9927    -2.2755    -0.0007 C.3     
  15 N15           -2.2547    -3.0273     0.0073 N.3     
  16 C16           -2.0183    -4.4552    -0.2407 C.3     
  17 C17           -3.3595    -5.1808    -0.3699 C.3     
  18 C18           -4.1619    -4.9938     0.9207 C.3     
  19 C19           -4.3526    -3.4971     1.1816 C.3     
  20 C20           -2.9826    -2.8203     1.2658 C.3     
  21 C21           -5.5288    -5.6656     0.7749 C.3     
  22 N22           -6.2484    -5.5900     2.0488 N.am    
  23 C23           -7.4827    -6.1202     2.1579 C.2     
  24 O24           -8.1440    -6.0508     3.3286 O.3     
  25 O25           -7.9986    -6.6608     1.1998 O.2     
  26 C26           -9.4691    -6.6429     3.3733 C.3     
  27 C27          -10.0590    -6.4677     4.7741 C.3     
  28 H28           -1.8592    -0.5245     0.9070 H       
  29 H29           -1.8762    -0.5150    -0.8728 H       
  30 H30           -2.1718     1.5865     0.0409 H       
  31 H31            2.1206     1.6460    -0.0094 H       
  32 H32           -2.2455     4.0144     0.0515 H       
  33 H33            3.2965     3.8243    -0.0078 H       
  34 H34            3.1930     6.2583     0.0075 H       
  35 H35            1.0314     7.4261     0.0359 H       
  36 H36           -1.0619     6.1804     0.0479 H       
  37 H37           -0.4261    -2.5263    -0.8975 H       
  38 H38           -0.4091    -2.5358     0.8824 H       
  39 H39           -1.4505    -4.5744    -1.1634 H       
  40 H40           -1.4544    -4.8796     0.5900 H       
  41 H41           -3.9182    -4.7662    -1.2090 H       
  42 H42           -3.1838    -6.2432    -0.5384 H       
  43 H43           -3.6213    -5.4427     1.7540 H       
  44 H44           -4.9269    -3.0560     0.3669 H       
  45 H45           -4.8863    -3.3566     2.1215 H       
  46 H46           -2.4141    -3.2523     2.0894 H       
  47 H47           -3.1151    -1.7520     1.4372 H       
  48 H48           -6.1037    -5.1555     0.0020 H       
  49 H49           -5.3922    -6.7105     0.4962 H       
  50 H50           -5.8365    -5.1585     2.8137 H       
  51 H51          -10.1120    -6.1501     2.6440 H       
  52 H52           -9.4005    -7.7050     3.1382 H       
  53 H53           -9.4160    -6.9604     5.5034 H       
  54 H54          -10.1276    -5.4055     5.0092 H       
  55 H55          -11.0537    -6.9122     4.8076 H       
@<TRIPOS>BOND
   1    1    2 1
   2    1    6 ar
   3    1    5 ar
   4    2    3 1
   5    2    4 2
   6    3   14 1
   7    3   28 1
   8    3   29 1
   9    5    9 ar
  10    5   30 1
  11    6    7 ar
  12    6   31 1
  13    7    8 ar
  14    7   10 ar
  15    8    9 ar
  16    8   13 ar
  17    9   32 1
  18   10   11 ar
  19   10   33 1
  20   11   12 ar
  21   11   34 1
  22   12   13 ar
  23   12   35 1
  24   13   36 1
  25   14   15 1
  26   14   37 1
  27   14   38 1
  28   15   16 1
  29   15   20 1
  30   16   17 1
  31   16   39 1
  32   16   40 1
  33   17   18 1
  34   17   41 1
  35   17   42 1
  36   18   19 1
  37   18   21 1
  38   18   43 1
  39   19   20 1
  40   19   44 1
  41   19   45 1
  42   20   46 1
  43   20   47 1
  44   21   22 1
  45   21   48 1
  46   21   49 1
  47   22   23 am
  48   22   50 1
  49   23   24 1
  50   23   25 2
  51   24   26 1
  52   26   27 1
  53   26   51 1
  54   26   52 1
  55   27   53 1
  56   27   54 1
  57   27   55 1

#	End of record

