#	Name: ASD05740211
#	Creating user name:	WinNT
#	Creation time:	15. 06. 2019 21:03

#	Modifying user name:	WinNT
#	Modification time:	15. 06. 2019 21:03

#	Program:	/corina/corina34_cracker 3.40 0067  02.08.2006

@<TRIPOS>MOLECULE
ASD05740211
  68   73    0    0    0
SMALL
NO_CHARGES


@<TRIPOS>ATOM
   1 C1             1.5827    -2.6317     0.6035 C.3     
   2 N2             0.7314    -1.8117     1.4767 N.3     
   3 C3            -0.6233    -2.0857     1.2573 C.ar    
   4 C4            -1.5949    -1.4125     1.9864 C.ar    
   5 C5            -2.9314    -1.6829     1.7699 C.ar    
   6 C6            -3.3042    -2.6284     0.8236 C.ar    
   7 C7            -2.3327    -3.3019     0.0949 C.ar    
   8 C8            -0.9963    -3.0268     0.3066 C.ar    
   9 N9            -4.6601    -2.9030     0.6044 N.pl3   
  10 C10           -5.5948    -1.8911     0.7052 C.ar    
  11 N11           -5.1712    -0.6468     0.8982 N.ar    
  12 N12           -6.8796    -2.1975     0.6006 N.ar    
  13 C13           -7.8047    -1.2510     0.6925 C.ar    
  14 C14           -7.3917     0.0831     0.9033 C.ar    
  15 C15           -6.0230     0.3576     1.0017 C.ar    
  16 N16           -9.1415    -1.5367     0.5879 N.am    
  17 C17          -10.0659    -0.5645     0.6831 C.2     
  18 C18           -9.7085     0.7828     0.8927 C.2     
  19 C19           -8.4006     1.1330     1.0061 C.2     
  20 C20           -9.5691    -2.9206     0.3687 C.3     
  21 O21          -11.2452    -0.8564     0.5851 O.2     
  22 C22           -9.6943    -3.6238     1.6957 C.ar    
  23 C23           -9.9660    -4.9895     1.7389 C.ar    
  24 C24          -10.1327    -5.7558     0.4792 C.ar    
  25 C25            1.0865    -2.0084     2.8891 C.3     
  26 C26            2.5523    -1.6231     3.1022 C.3     
  27 N27            3.4036    -2.4431     2.2290 N.3     
  28 C28            3.0485    -2.2464     0.8166 C.3     
  29 C29            4.8256    -2.1555     2.4593 C.3     
  30 C30          -10.0800    -5.6335     2.9695 C.ar    
  31 C31           -9.9235    -4.9161     4.1379 C.ar    
  32 C32           -9.6539    -3.5601     4.0892 C.ar    
  33 C33           -9.5345    -2.9170     2.8706 C.ar    
  34 C34           -9.3520    -6.8846     0.2388 C.ar    
  35 C35           -9.5117    -7.5939    -0.9344 C.ar    
  36 C36          -10.4442    -7.1857    -1.8709 C.ar    
  37 C37          -11.2219    -6.0659    -1.6374 C.ar    
  38 C38          -11.0746    -5.3525    -0.4651 C.ar    
  39 H39            1.4446    -3.6853     0.8462 H       
  40 H40            1.3089    -2.4591    -0.4374 H       
  41 H41           -1.3050    -0.6776     2.7228 H       
  42 H42           -3.6870    -1.1593     2.3368 H       
  43 H43           -2.6226    -4.0378    -0.6406 H       
  44 H44           -0.2408    -3.5506    -0.2601 H       
  45 H45           -4.9427    -3.8039     0.3817 H       
  46 H46           -5.6716     1.3660     1.1630 H       
  47 H47          -10.4765     1.5388     0.9637 H       
  48 H48           -8.1147     2.1620     1.1672 H       
  49 H49          -10.5340    -2.9268    -0.1382 H       
  50 H50           -8.8317    -3.4355    -0.2471 H       
  51 H51            0.4510    -1.3815     3.5145 H       
  52 H52            0.9428    -3.0550     3.1578 H       
  53 H53            2.6903    -0.5695     2.8594 H       
  54 H54            2.8260    -1.7957     4.1431 H       
  55 H55            3.6839    -2.8733     0.1911 H       
  56 H56            3.1921    -1.1998     0.5479 H       
  57 H57            5.0770    -2.3735     3.4972 H       
  58 H58            5.4331    -2.7758     1.8003 H       
  59 H59            5.0219    -1.1037     2.2511 H       
  60 H60          -10.2908    -6.6920     3.0087 H       
  61 H61          -10.0120    -5.4141     5.0921 H       
  62 H62           -9.5322    -3.0025     5.0060 H       
  63 H63           -9.3236    -1.8583     2.8383 H       
  64 H64           -8.6231    -7.2038     0.9691 H       
  65 H65           -8.9071    -8.4690    -1.1217 H       
  66 H66          -10.5654    -7.7432    -2.7879 H       
  67 H67          -11.9482    -5.7514    -2.3722 H       
  68 H68          -11.6825    -4.4785    -0.2837 H       
@<TRIPOS>BOND
   1    1    2 1
   2    1   28 1
   3    1   39 1
   4    1   40 1
   5    2    3 1
   6    2   25 1
   7    3    4 ar
   8    3    8 ar
   9    4    5 ar
  10    4   41 1
  11    5    6 ar
  12    5   42 1
  13    6    7 ar
  14    6    9 1
  15    7    8 ar
  16    7   43 1
  17    8   44 1
  18    9   10 1
  19    9   45 1
  20   10   11 ar
  21   10   12 ar
  22   11   15 ar
  23   12   13 ar
  24   13   14 ar
  25   13   16 1
  26   14   15 ar
  27   14   19 1
  28   15   46 1
  29   16   17 am
  30   16   20 1
  31   17   18 1
  32   17   21 2
  33   18   19 2
  34   18   47 1
  35   19   48 1
  36   20   22 1
  37   20   49 1
  38   20   50 1
  39   22   23 ar
  40   22   33 ar
  41   23   24 1
  42   23   30 ar
  43   24   34 ar
  44   24   38 ar
  45   25   26 1
  46   25   51 1
  47   25   52 1
  48   26   27 1
  49   26   53 1
  50   26   54 1
  51   27   28 1
  52   27   29 1
  53   28   55 1
  54   28   56 1
  55   29   57 1
  56   29   58 1
  57   29   59 1
  58   30   31 ar
  59   30   60 1
  60   31   32 ar
  61   31   61 1
  62   32   33 ar
  63   32   62 1
  64   33   63 1
  65   34   35 ar
  66   34   64 1
  67   35   36 ar
  68   35   65 1
  69   36   37 ar
  70   36   66 1
  71   37   38 ar
  72   37   67 1
  73   38   68 1

#	End of record

