#	Name: ASD01230701
#	Creating user name:	WinNT
#	Creation time:	15. 06. 2019 19:14

#	Modifying user name:	WinNT
#	Modification time:	15. 06. 2019 19:14

#	Program:	/corina/corina34_cracker 3.40 0067  02.08.2006

@<TRIPOS>MOLECULE
ASD01230701
  53   56    0    0    0
SMALL
NO_CHARGES


@<TRIPOS>ATOM
   1 S1            -0.3134     2.1172     1.6280 S.o2    
   2 N2            -0.1991     0.5313     1.1967 N.am    
   3 C3             0.8936    -0.1175     1.1168 C.2     
   4 N4             2.1268     0.4022     1.4179 N.pl3   
   5 C5             2.2752     1.5542     2.3003 C.3     
   6 C6             1.3946     2.6986     1.7944 C.3     
   7 C7             0.8899    -1.5723     0.6761 C.3     
   8 C8             1.9793    -2.2929     1.4742 C.3     
   9 C9             3.3562    -1.7153     1.1749 C.3     
  10 C10            3.2984    -0.2370     0.8098 C.3     
  11 C11           -0.4528    -2.1924     0.9657 C.ar    
  12 C12           -1.2115    -2.7115    -0.0666 C.ar    
  13 C13           -2.4431    -3.2802     0.1991 C.ar    
  14 C14           -2.9158    -3.3302     1.4972 C.ar    
  15 C15           -2.1566    -2.8118     2.5296 C.ar    
  16 C16           -0.9231    -2.2470     2.2645 C.ar    
  17 C17           -4.2589    -3.9493     1.7867 C.3     
  18 C18           -4.5849    -3.7884     3.2729 C.3     
  19 C19           -5.3171    -3.2616     0.9631 C.ar    
  20 C20           -6.1353    -4.0026     0.1310 C.ar    
  21 C21           -7.1059    -3.3717    -0.6246 C.ar    
  22 C22           -7.2586    -2.0000    -0.5477 C.ar    
  23 C23           -6.4410    -1.2591     0.2851 C.ar    
  24 C24           -5.4733    -1.8905     1.0439 C.ar    
  25 C25           -4.2222    -5.4368     1.4307 C.3     
  26 O26           -0.9408     2.7354     0.5129 O.2     
  27 O27           -0.9521     2.0862     2.8969 O.2     
  28 H28            1.9704     1.2801     3.3103 H       
  29 H29            3.3172     1.8737     2.3088 H       
  30 H30            1.7596     3.0365     0.8245 H       
  31 H31            1.4296     3.5251     2.5041 H       
  32 H32            1.1070    -1.6373    -0.3901 H       
  33 H33            1.7713    -2.1868     2.5389 H       
  34 H34            1.9718    -3.3513     1.2138 H       
  35 H35            3.9890    -1.8374     2.0540 H       
  36 H36            3.7977    -2.2670     0.3450 H       
  37 H37            3.2398    -0.1369    -0.2741 H       
  38 H38            4.2023     0.2566     1.1667 H       
  39 H39           -0.8422    -2.6725    -1.0807 H       
  40 H40           -3.0362    -3.6852    -0.6075 H       
  41 H41           -2.5260    -2.8506     3.5437 H       
  42 H42           -0.3283    -1.8454     3.0715 H       
  43 H43           -4.6110    -2.7287     3.5265 H       
  44 H44           -5.5563    -4.2362     3.4823 H       
  45 H45           -3.8195    -4.2858     3.8687 H       
  46 H46           -6.0159    -5.0743     0.0709 H       
  47 H47           -7.7446    -3.9506    -1.2752 H       
  48 H48           -8.0164    -1.5071    -1.1386 H       
  49 H49           -6.5601    -0.1874     0.3449 H       
  50 H50           -4.8369    -1.3121     1.6973 H       
  51 H51           -3.4568    -5.9342     2.0265 H       
  52 H52           -5.1937    -5.8846     1.6401 H       
  53 H53           -3.9900    -5.5514     0.3719 H       
@<TRIPOS>BOND
   1    1    2 am
   2    1    6 1
   3    1   26 2
   4    1   27 2
   5    2    3 2
   6    3    4 1
   7    3    7 1
   8    4    5 1
   9    4   10 1
  10    5    6 1
  11    5   28 1
  12    5   29 1
  13    6   30 1
  14    6   31 1
  15    7    8 1
  16    7   11 1
  17    7   32 1
  18    8    9 1
  19    8   33 1
  20    8   34 1
  21    9   10 1
  22    9   35 1
  23    9   36 1
  24   10   37 1
  25   10   38 1
  26   11   12 ar
  27   11   16 ar
  28   12   13 ar
  29   12   39 1
  30   13   14 ar
  31   13   40 1
  32   14   15 ar
  33   14   17 1
  34   15   16 ar
  35   15   41 1
  36   16   42 1
  37   17   18 1
  38   17   19 1
  39   17   25 1
  40   18   43 1
  41   18   44 1
  42   18   45 1
  43   19   20 ar
  44   19   24 ar
  45   20   21 ar
  46   20   46 1
  47   21   22 ar
  48   21   47 1
  49   22   23 ar
  50   22   48 1
  51   23   24 ar
  52   23   49 1
  53   24   50 1
  54   25   51 1
  55   25   52 1
  56   25   53 1

#	End of record

