#	Name: ASD01420685
#	Creating user name:	WinNT
#	Creation time:	15. 06. 2019 19:20

#	Modifying user name:	WinNT
#	Modification time:	15. 06. 2019 19:20

#	Program:	/corina/corina34_cracker 3.40 0067  02.08.2006

@<TRIPOS>MOLECULE
ASD01420685
  46   48    0    0    0
SMALL
NO_CHARGES


@<TRIPOS>ATOM
   1 N1            -0.0153     1.2802     0.0091 N.pl3   
   2 N2             0.0021    -0.0041     0.0020 N.2     
   3 C3             1.2456    -0.4440    -0.0122 C.2     
   4 C4             2.0903     0.6961    -0.0142 C.2     
   5 C5             1.2523     1.7667    -0.0004 C.2     
   6 C6             1.6765    -1.8546    -0.0232 C.2     
   7 O7             2.8611    -2.1284    -0.0356 O.2     
   8 N8             0.7571    -2.8402    -0.0194 N.am    
   9 N9             0.7411    -6.9637    -0.8845 N.3     
  10 C10            0.5161    -6.5838     0.5160 C.3     
  11 C11            0.0895    -5.1158     0.5856 C.3     
  12 C12            1.1851    -4.2412    -0.0303 C.3     
  13 C13            1.4339    -4.6891    -1.4733 C.3     
  14 C14            1.8215    -6.1695    -1.4831 C.3     
  15 N15            3.4930     0.7146    -0.0275 N.am    
  16 C16            4.1514     1.8906    -0.0274 C.2     
  17 C17            5.6250     1.9101    -0.0414 C.ar    
  18 C18            6.3408     1.9129     1.1614 C.ar    
  19 C19            7.7218     1.9313     1.1393 C.ar    
  20 C20            8.4001     1.9469    -0.0672 C.ar    
  21 C21            7.7049     1.9447    -1.2609 C.ar    
  22 C22            6.3189     1.9201    -1.2596 C.ar    
  23 O23            3.5295     2.9358    -0.0159 O.2     
  24 O24            5.6367     1.9119    -2.4321 O.3     
  25 C25            6.4108     1.9230    -3.6332 C.3     
  26 F26            5.6826     1.8982     2.3412 F       
  27 H27           -0.8184     1.8242     0.0160 H       
  28 H28            1.5406     2.8076     0.0017 H       
  29 H29           -0.1879    -2.6218    -0.0095 H       
  30 H30            0.9309    -7.9514    -0.9652 H       
  31 H31           -0.2681    -7.2104     0.9408 H       
  32 H32            1.4373    -6.7215     1.0822 H       
  33 H33           -0.8391    -4.9800     0.0312 H       
  34 H34           -0.0623    -4.8298     1.6264 H       
  35 H35            2.1031    -4.3462     0.5480 H       
  36 H36            0.5264    -4.5466    -2.0601 H       
  37 H37            2.2426    -4.0983    -1.9034 H       
  38 H38            2.7366    -6.3092    -0.9076 H       
  39 H39            1.9854    -6.4952    -2.5103 H       
  40 H40            3.9890    -0.1189    -0.0367 H       
  41 H41            8.2746     1.9338     2.0671 H       
  42 H42            9.4800     1.9612    -0.0753 H       
  43 H43            8.2426     1.9574    -2.1975 H       
  44 H44            7.0513     1.0414    -3.6608 H       
  45 H45            5.7440     1.9148    -4.4954 H       
  46 H46            7.0277     2.8212    -3.6596 H       
@<TRIPOS>BOND
   1    1    2 1
   2    1    5 1
   3    1   27 1
   4    2    3 2
   5    3    4 1
   6    3    6 1
   7    4    5 2
   8    4   15 1
   9    5   28 1
  10    6    7 2
  11    6    8 am
  12    8   12 1
  13    8   29 1
  14    9   10 1
  15    9   14 1
  16    9   30 1
  17   10   11 1
  18   10   31 1
  19   10   32 1
  20   11   12 1
  21   11   33 1
  22   11   34 1
  23   12   13 1
  24   12   35 1
  25   13   14 1
  26   13   36 1
  27   13   37 1
  28   14   38 1
  29   14   39 1
  30   15   16 am
  31   15   40 1
  32   16   17 1
  33   16   23 2
  34   17   18 ar
  35   17   22 ar
  36   18   19 ar
  37   18   26 1
  38   19   20 ar
  39   19   41 1
  40   20   21 ar
  41   20   42 1
  42   21   22 ar
  43   21   43 1
  44   22   24 1
  45   24   25 1
  46   25   44 1
  47   25   45 1
  48   25   46 1

#	End of record

