#	Name: ASD04882306
#	Creating user name:	WinNT
#	Creation time:	15. 06. 2019 20:54

#	Modifying user name:	WinNT
#	Modification time:	15. 06. 2019 20:54

#	Program:	/corina/corina34_cracker 3.40 0067  02.08.2006

@<TRIPOS>MOLECULE
ASD04882306
  69   73    0    0    0
SMALL
NO_CHARGES


@<TRIPOS>ATOM
   1 N1            -0.0169     1.3970     0.0097 N.am    
   2 C2             0.1096     0.0022    -0.0340 C.ar    
   3 C3            -1.0277    -0.8061     0.0459 C.ar    
   4 C4            -0.9036    -2.1901     0.0032 C.ar    
   5 C5             0.3398    -2.7696    -0.1183 C.ar    
   6 C6             1.4813    -1.9671    -0.1987 C.ar    
   7 C7             1.3588    -0.5752    -0.1617 C.ar    
   8 N8            -2.2869    -0.2244     0.1689 N.3     
   9 C9            -3.1527    -0.5997    -0.9576 C.3     
  10 C10           -2.9099    -0.5832     1.4506 C.3     
  11 C11           -4.2536     0.1377     1.5812 C.3     
  12 N12           -5.1195    -0.2377     0.4546 N.3     
  13 C13           -4.4965     0.1212    -0.8271 C.3     
  14 C14            2.8133    -2.5882    -0.3279 C.2     
  15 O15            3.8058    -1.8892    -0.3978 O.2     
  16 C16            0.9211     2.1770    -0.5631 C.2     
  17 C17            0.7442     3.6385    -0.5948 C.2     
  18 O18            1.9138     1.6737    -1.0540 O.2     
  19 C19            1.6438     4.4801    -1.1524 C.2     
  20 N20           -0.3224     4.2563    -0.0806 N.2     
  21 C21           -0.3311     5.5384    -0.1863 C.2     
  22 S22            1.0759     6.0838    -0.9858 S.3     
  23 N23            2.9300    -3.9303    -0.3685 N.am    
  24 C24           -6.3825     0.3458     0.5780 C.ar    
  25 C25           -6.5093     1.7283     0.6214 C.ar    
  26 C26           -7.5153    -0.4552     0.6519 C.ar    
  27 C27           -8.7624     0.1249     0.7738 C.ar    
  28 C28           -8.8846     1.5017     0.8220 C.ar    
  29 C29           -7.7598     2.3020     0.7434 C.ar    
  30 C30           -1.4312     6.4342     0.3219 C.3     
  31 C31           -7.3831    -1.9554     0.5985 C.3     
  32 C32            4.2526    -4.5470    -0.4968 C.3     
  33 C33            4.1053    -6.0697    -0.5188 C.3     
  34 C34            5.4659    -6.7041    -0.6507 C.2     
  35 C35            6.3229    -6.9814     0.3504 C.2     
  36 N36            6.0657    -7.1147    -1.8106 N.pl3   
  37 C37            7.2713    -7.6243    -1.4782 C.2     
  38 N38            7.4182    -7.5414    -0.1842 N.2     
  39 H39           -0.7817     1.8011     0.4488 H       
  40 H40           -1.7842    -2.8122     0.0659 H       
  41 H41            0.4330    -3.8451    -0.1512 H       
  42 H42            2.2390     0.0474    -0.2236 H       
  43 H43           -2.6755    -0.3125    -1.8945 H       
  44 H44           -3.3158    -1.6774    -0.9476 H       
  45 H45           -3.0702    -1.6607     1.4880 H       
  46 H46           -2.2556    -0.2840     2.2694 H       
  47 H47           -4.7309    -0.1495     2.5181 H       
  48 H48           -4.0906     1.2154     1.5711 H       
  49 H49           -4.3362     1.1987    -0.8644 H       
  50 H50           -5.1508    -0.1781    -1.6459 H       
  51 H51            2.5697     4.1871    -1.6249 H       
  52 H52            2.1382    -4.4878    -0.3128 H       
  53 H53           -5.6311     2.3539     0.5600 H       
  54 H54           -9.6433    -0.4972     0.8313 H       
  55 H55           -9.8613     1.9529     0.9167 H       
  56 H56           -7.8588     3.3768     0.7814 H       
  57 H57           -1.2152     6.7280     1.3491 H       
  58 H58           -1.4942     7.3237    -0.3048 H       
  59 H59           -2.3801     5.8987     0.2891 H       
  60 H60           -7.2641    -2.3459     1.6092 H       
  61 H61           -8.2781    -2.3832     0.1467 H       
  62 H62           -6.5114    -2.2223     0.0009 H       
  63 H63            4.7205    -4.2138    -1.4232 H       
  64 H64            4.8737    -4.2542     0.3497 H       
  65 H65            3.6374    -6.4029     0.4076 H       
  66 H66            3.4843    -6.3625    -1.3653 H       
  67 H67            6.1574    -6.7868     1.3997 H       
  68 H68            5.6941    -7.0516    -2.7044 H       
  69 H69            7.9930    -8.0354    -2.1686 H       
@<TRIPOS>BOND
   1    1    2 1
   2    1   16 am
   3    1   39 1
   4    2    3 ar
   5    2    7 ar
   6    3    4 ar
   7    3    8 1
   8    4    5 ar
   9    4   40 1
  10    5    6 ar
  11    5   41 1
  12    6    7 ar
  13    6   14 1
  14    7   42 1
  15    8    9 1
  16    8   10 1
  17    9   13 1
  18    9   43 1
  19    9   44 1
  20   10   11 1
  21   10   45 1
  22   10   46 1
  23   11   12 1
  24   11   47 1
  25   11   48 1
  26   12   13 1
  27   12   24 1
  28   13   49 1
  29   13   50 1
  30   14   15 2
  31   14   23 am
  32   16   18 2
  33   16   17 1
  34   17   19 2
  35   17   20 1
  36   19   22 1
  37   19   51 1
  38   20   21 2
  39   21   22 1
  40   21   30 1
  41   23   32 1
  42   23   52 1
  43   24   25 ar
  44   24   26 ar
  45   25   29 ar
  46   25   53 1
  47   26   27 ar
  48   26   31 1
  49   27   28 ar
  50   27   54 1
  51   28   29 ar
  52   28   55 1
  53   29   56 1
  54   30   57 1
  55   30   58 1
  56   30   59 1
  57   31   60 1
  58   31   61 1
  59   31   62 1
  60   32   33 1
  61   32   63 1
  62   32   64 1
  63   33   34 1
  64   33   65 1
  65   33   66 1
  66   34   35 2
  67   34   36 1
  68   35   38 1
  69   35   67 1
  70   36   37 1
  71   36   68 1
  72   37   38 2
  73   37   69 1

#	End of record

