#	Name: ASD01915127
#	Creating user name:	WinNT
#	Creation time:	15. 06. 2019 20:04

#	Modifying user name:	WinNT
#	Modification time:	15. 06. 2019 20:04

#	Program:	/corina/corina34_cracker 3.40 0067  02.08.2006

@<TRIPOS>MOLECULE
ASD01915127
  37   40    0    0    0
SMALL
NO_CHARGES


@<TRIPOS>ATOM
   1 C1            -0.0169     1.3925     0.0097 C.ar    
   2 C2             0.0021    -0.0041     0.0020 C.ar    
   3 N3            -1.1430    -0.6903     0.0099 N.ar    
   4 C4            -2.3135    -0.0965     0.0250 C.ar    
   5 C5            -2.4136     1.2864     0.0330 C.ar    
   6 C6            -1.2657     2.0479     0.0305 C.ar    
   7 C7             1.3286     1.9586    -0.0001 C.2     
   8 C8             2.3056     1.0551    -0.0143 C.2     
   9 S9             1.6661    -0.5764    -0.0169 S.3     
  10 C10            1.5853     3.4184     0.0053 C.ar    
  11 C11            1.2152     4.1895     1.1064 C.ar    
  12 C12            1.4566     5.5479     1.1070 C.ar    
  13 C13            2.0653     6.1460     0.0155 C.ar    
  14 C14            2.4348     5.3840    -1.0810 C.ar    
  15 C15            2.2027     4.0239    -1.0884 C.ar    
  16 S16            4.0230     1.4491    -0.0291 S.o2    
  17 O17            4.6881     0.3236    -0.5858 O.2     
  18 O18            4.1293     2.7597    -0.5679 O.2     
  19 C19            4.5478     1.5572     1.6495 C.ar    
  20 C20            5.0212     0.4325     2.2991 C.ar    
  21 C21            4.4912     2.7678     2.3145 C.ar    
  22 C22            4.9031     2.8533     3.6310 C.ar    
  23 C23            5.3718     1.7269     4.2835 C.ar    
  24 C24            5.4326     0.5166     3.6159 C.ar    
  25 Cl25           5.8894     1.8335     5.9371 Cl      
  26 F26            2.2988     7.4767     0.0202 F       
  27 H27           -3.2129    -0.6945     0.0309 H       
  28 H28           -3.3830     1.7623     0.0447 H       
  29 H29           -1.3210     3.1265     0.0366 H       
  30 H30            0.7401     3.7242     1.9574 H       
  31 H31            1.1704     6.1461     1.9594 H       
  32 H32            2.9087     5.8547    -1.9296 H       
  33 H33            2.4914     3.4307    -1.9434 H       
  34 H34            5.0694    -0.5120     1.7777 H       
  35 H35            4.1253     3.6470     1.8051 H       
  36 H36            4.8596     3.7993     4.1503 H       
  37 H37            5.7980    -0.3632     4.1248 H       
@<TRIPOS>BOND
   1    1    2 ar
   2    1    7 1
   3    1    6 ar
   4    2    3 ar
   5    2    9 1
   6    3    4 ar
   7    4    5 ar
   8    4   27 1
   9    5    6 ar
  10    5   28 1
  11    6   29 1
  12    7    8 2
  13    7   10 1
  14    8    9 1
  15    8   16 1
  16   10   11 ar
  17   10   15 ar
  18   11   12 ar
  19   11   30 1
  20   12   13 ar
  21   12   31 1
  22   13   14 ar
  23   13   26 1
  24   14   15 ar
  25   14   32 1
  26   15   33 1
  27   16   17 2
  28   16   18 2
  29   16   19 1
  30   19   20 ar
  31   19   21 ar
  32   20   24 ar
  33   20   34 1
  34   21   22 ar
  35   21   35 1
  36   22   23 ar
  37   22   36 1
  38   23   24 ar
  39   23   25 1
  40   24   37 1

#	End of record

