#	Name: ASD02198281
#	Creating user name:	WinNT
#	Creation time:	15. 06. 2019 20:19

#	Modifying user name:	WinNT
#	Modification time:	15. 06. 2019 20:19

#	Program:	/corina/corina34_cracker 3.40 0067  02.08.2006

@<TRIPOS>MOLECULE
ASD02198281
  51   55    0    0    0
SMALL
NO_CHARGES


@<TRIPOS>ATOM
   1 C1             0.1438     1.3958    -0.8638 C.2     
   2 C2             0.1837     0.0148    -0.9505 C.2     
   3 S3             1.7544     1.9503    -0.4137 S.3     
   4 C4             2.3191     0.3381    -0.3828 C.2     
   5 N5             1.3638    -0.4938    -0.6851 N.2     
   6 N6            -0.9170    -0.7565    -1.2852 N.pl3   
   7 C7            -0.9795     2.2105    -1.0987 C.2     
   8 O8            -2.0449     1.7052    -1.4114 O.2     
   9 C9            -0.8685     3.6767    -0.9666 C.2     
  10 N10            3.6097    -0.0317    -0.0793 N.pl3   
  11 C11            3.9427    -1.3870     0.0277 C.ar    
  12 C12           -1.8627     4.5944    -1.1607 C.2     
  13 C13           -1.2279     5.8402    -0.9079 C.2     
  14 N14            0.0159     5.5646    -0.6037 N.2     
  15 O15            0.2304     4.3752    -0.6255 O.3     
  16 C16           -1.8504     7.1863    -0.9756 C.ar    
  17 C17           -1.0923     8.3218    -0.6984 C.ar    
  18 C18            3.0003    -2.3001     0.4830 C.ar    
  19 C19            3.3295    -3.6369     0.5884 C.ar    
  20 C20            4.6012    -4.0681     0.2396 C.ar    
  21 C21            5.5432    -3.1566    -0.2154 C.ar    
  22 C22            5.2137    -1.8203    -0.3267 C.ar    
  23 C23           -3.1932     7.3188    -1.3221 C.ar    
  24 C24           -3.7670     8.5727    -1.3835 C.ar    
  25 C25           -3.0111     9.6964    -1.1022 C.ar    
  26 C26           -1.6760     9.5708    -0.7628 C.ar    
  27 O27            4.9248    -5.3845     0.3440 O.3     
  28 C28            4.4704    -6.2313    -0.6167 C.ar    
  29 C29            3.7709    -5.7341    -1.7071 C.ar    
  30 C30            4.7098    -7.5941    -0.5118 C.ar    
  31 C31            4.2467    -8.4527    -1.4898 C.ar    
  32 C32            3.5455    -7.9552    -2.5727 C.ar    
  33 C33            3.3101    -6.5971    -2.6823 C.ar    
  34 H34           -1.7684    -0.3311    -1.4723 H       
  35 H35           -0.8364    -1.7220    -1.3325 H       
  36 H36            4.2886     0.6470     0.0603 H       
  37 H37           -2.8900     4.4146    -1.4412 H       
  38 H38           -0.0498     8.2248    -0.4333 H       
  39 H39            2.0105    -1.9645     0.7550 H       
  40 H40            2.5969    -4.3469     0.9428 H       
  41 H41            6.5329    -3.4930    -0.4868 H       
  42 H42            5.9469    -1.1110    -0.6812 H       
  43 H43           -3.7841     6.4421    -1.5426 H       
  44 H44           -4.8079     8.6766    -1.6519 H       
  45 H45           -3.4638    10.6756    -1.1517 H       
  46 H46           -1.0903    10.4515    -0.5441 H       
  47 H47            3.5868    -4.6734    -1.7932 H       
  48 H48            5.2581    -7.9830     0.3334 H       
  49 H49            4.4328    -9.5134    -1.4087 H       
  50 H50            3.1849    -8.6282    -3.3366 H       
  51 H51            2.7618    -6.2111    -3.5290 H       
@<TRIPOS>BOND
   1    1    2 2
   2    1    3 1
   3    1    7 1
   4    2    6 1
   5    2    5 1
   6    3    4 1
   7    4    5 2
   8    4   10 1
   9    6   34 1
  10    6   35 1
  11    7    8 2
  12    7    9 1
  13    9   12 2
  14    9   15 1
  15   10   11 1
  16   10   36 1
  17   11   18 ar
  18   11   22 ar
  19   12   13 1
  20   12   37 1
  21   13   14 2
  22   13   16 1
  23   14   15 1
  24   16   17 ar
  25   16   23 ar
  26   17   26 ar
  27   17   38 1
  28   18   19 ar
  29   18   39 1
  30   19   20 ar
  31   19   40 1
  32   20   21 ar
  33   20   27 1
  34   21   22 ar
  35   21   41 1
  36   22   42 1
  37   23   24 ar
  38   23   43 1
  39   24   25 ar
  40   24   44 1
  41   25   26 ar
  42   25   45 1
  43   26   46 1
  44   27   28 1
  45   28   29 ar
  46   28   30 ar
  47   29   33 ar
  48   29   47 1
  49   30   31 ar
  50   30   48 1
  51   31   32 ar
  52   31   49 1
  53   32   33 ar
  54   32   50 1
  55   33   51 1

#	End of record

