#	Name: ASD03090306
#	Creating user name:	WinNT
#	Creation time:	15. 06. 2019 20:28

#	Modifying user name:	WinNT
#	Modification time:	15. 06. 2019 20:28

#	Program:	/corina/corina34_cracker 3.40 0067  02.08.2006

@<TRIPOS>MOLECULE
ASD03090306
  61   64    0    0    0
SMALL
NO_CHARGES


@<TRIPOS>ATOM
   1 C1            -0.3204     1.0300    -0.7477 C.ar    
   2 C2            -0.1795    -0.1100     0.0331 C.ar    
   3 C3             1.0540    -0.7100     0.1702 C.ar    
   4 C4             2.1669    -0.1717    -0.4774 C.ar    
   5 C5             2.0267     0.9739    -1.2609 C.ar    
   6 C6             0.7861     1.5731    -1.3937 C.ar    
   7 C7             3.4913    -0.8138    -0.3330 C.2     
   8 N8             7.0039    -0.8643    -0.4727 N.pl3   
   9 C9             7.4350     0.3567    -0.9977 C.ar    
  10 C10            8.6445     0.9027    -0.5863 C.ar    
  11 C11            9.0705     2.1100    -1.1055 C.ar    
  12 C12            8.2953     2.7777    -2.0343 C.ar    
  13 C13            7.0857     2.2374    -2.4488 C.ar    
  14 C14            6.6579     1.0234    -1.9355 C.ar    
  15 N15            4.6582    -0.2456    -0.5646 N.2     
  16 C16            5.6386    -1.1202    -0.3308 C.2     
  17 N17            5.1129    -2.2602     0.0535 N.2     
  18 N18            3.7196    -2.0856     0.0655 N.pl3   
  19 C19            2.7127    -3.0857     0.4290 C.3     
  20 C20            2.4628    -3.0303     1.9140 C.2     
  21 N21            1.5686    -3.8658     2.4786 N.am    
  22 O22            6.3242     2.8958    -3.3616 O.3     
  23 O23            3.0663    -2.2337     2.6012 O.2     
  24 C24            1.3257    -3.8119     3.9223 C.3     
  25 C25            0.2741    -4.8564     4.3019 C.3     
  26 O26            0.6666     2.6949    -2.1556 O.3     
  27 C27           -0.6561     3.0543    -2.5692 C.3     
  28 C28           -1.5849     2.9508    -1.3519 C.3     
  29 O29           -1.5491     1.6008    -0.8753 O.3     
  30 N30            0.0305    -4.8023     5.7495 N.3     
  31 C31           -0.5901    -3.5268     6.1317 C.3     
  32 C32           -0.7900    -5.9392     6.1882 C.3     
  33 C33            6.8297     4.1390    -3.8525 C.3     
  34 F34            8.0642     3.9270    -4.4757 F       
  35 F35            5.9274     4.6773    -4.7762 F       
  36 F36            6.9926     5.0299    -2.7861 F       
  37 H37           -1.0396    -0.5278     0.5351 H       
  38 H38            1.1592    -1.5960     0.7787 H       
  39 H39            2.8858     1.3934    -1.7633 H       
  40 H40            7.6531    -1.5342    -0.2067 H       
  41 H41            9.2519     0.3832     0.1401 H       
  42 H42           10.0110     2.5330    -0.7846 H       
  43 H43            8.6309     3.7215    -2.4381 H       
  44 H44            5.7170     0.6015    -2.2568 H       
  45 H45            1.7848    -2.8773    -0.1037 H       
  46 H46            3.0722    -4.0784     0.1578 H       
  47 H47            1.0859    -4.5029     1.9290 H       
  48 H48            2.2535    -4.0203     4.4549 H       
  49 H49            0.9661    -2.8192     4.1934 H       
  50 H50           -0.6538    -4.6480     3.7693 H       
  51 H51            0.6336    -5.8490     4.0308 H       
  52 H52           -0.6580     4.0766    -2.9472 H       
  53 H53           -0.9952     2.3727    -3.3493 H       
  54 H54           -1.2419     3.6274    -0.5692 H       
  55 H55           -2.6027     3.2105    -1.6430 H       
  56 H56           -1.5422    -3.4161     5.6127 H       
  57 H57           -0.7595    -3.5133     7.2083 H       
  58 H58            0.0710    -2.7046     5.8575 H       
  59 H59           -0.2743    -6.8707     5.9551 H       
  60 H60           -0.9551    -5.8745     7.2636 H       
  61 H61           -1.7493    -5.9158     5.6712 H       
@<TRIPOS>BOND
   1    1    2 ar
   2    1    6 ar
   3    1   29 1
   4    2    3 ar
   5    2   37 1
   6    3    4 ar
   7    3   38 1
   8    4    5 ar
   9    4    7 1
  10    5    6 ar
  11    5   39 1
  12    6   26 1
  13    7   15 2
  14    7   18 1
  15    8    9 1
  16    8   16 1
  17    8   40 1
  18    9   10 ar
  19    9   14 ar
  20   10   11 ar
  21   10   41 1
  22   11   12 ar
  23   11   42 1
  24   12   13 ar
  25   12   43 1
  26   13   14 ar
  27   13   22 1
  28   14   44 1
  29   15   16 1
  30   16   17 2
  31   17   18 1
  32   18   19 1
  33   19   20 1
  34   19   45 1
  35   19   46 1
  36   20   21 am
  37   20   23 2
  38   21   24 1
  39   21   47 1
  40   22   33 1
  41   24   25 1
  42   24   48 1
  43   24   49 1
  44   25   30 1
  45   25   50 1
  46   25   51 1
  47   26   27 1
  48   27   28 1
  49   27   52 1
  50   27   53 1
  51   28   29 1
  52   28   54 1
  53   28   55 1
  54   30   31 1
  55   30   32 1
  56   31   56 1
  57   31   57 1
  58   31   58 1
  59   32   59 1
  60   32   60 1
  61   32   61 1
  62   33   34 1
  63   33   35 1
  64   33   36 1

#	End of record

