#	Name: ASD05740093
#	Creating user name:	WinNT
#	Creation time:	15. 06. 2019 21:02

#	Modifying user name:	WinNT
#	Modification time:	15. 06. 2019 21:02

#	Program:	/corina/corina34_cracker 3.40 0067  02.08.2006

@<TRIPOS>MOLECULE
ASD05740093
  56   59    0    0    0
SMALL
NO_CHARGES


@<TRIPOS>ATOM
   1 C1            -0.4120     1.9862    -0.2678 C.ar    
   2 C2            -3.0826    -0.0841     3.2073 C.2     
   3 C3            -2.4302    -1.1347     3.8545 C.2     
   4 C4            -2.7733     0.2039     1.8729 C.2     
   5 C5            -1.8260    -0.5630     1.2283 C.2     
   6 C6            -1.1966    -1.6076     1.9172 C.2     
   7 O7            -1.5066    -1.8690     3.1993 O.3     
   8 C8            -1.4703    -0.2794    -0.2085 C.3     
   9 C9            -0.2578     0.6140    -0.2589 C.ar    
  10 C10            1.0084     0.0586    -0.2966 C.ar    
  11 O11           -0.3582    -2.2870     1.3482 O.2     
  12 C12            0.7064     2.8090    -0.3142 C.ar    
  13 C13            1.9764     2.2480    -0.3516 C.ar    
  14 C14            2.1236     0.8746    -0.3424 C.ar    
  15 N15            0.5540     4.1974    -0.3238 N.am    
  16 S16            1.4365     5.1200    -1.3785 S.o2    
  17 O17            1.0341     6.4664    -1.1675 O.2     
  18 O18            2.7840     4.6842    -1.2622 O.2     
  19 C19           -2.9344    -1.1884     5.1591 C.2     
  20 C20           -3.8629    -0.1996     5.2939 C.2     
  21 S21           -4.7850     0.1455     6.7552 S.3     
  22 C22           -6.4212     0.0973     6.1031 C.ar    
  23 N23           -7.4422     0.3898     6.8956 N.ar    
  24 N24           -6.6010    -0.2253     4.8304 N.ar    
  25 C25           -7.8159    -0.2707     4.3097 C.ar    
  26 C26           -8.9071     0.0241     5.1123 C.ar    
  27 C27           -8.6827     0.3631     6.4377 C.ar    
  28 N28            0.9460     4.7197    -2.9087 N.am    
  29 C29           -0.4243     5.0096    -3.3381 C.3     
  30 C30           -3.4646     1.3328     1.1527 C.3     
  31 C31           -4.7814     0.8284     0.5590 C.3     
  32 N32           -3.9669     0.4772     4.1129 N.pl3   
  33 C33           -4.8571     1.6108     3.8507 C.3     
  34 H34           -1.4011     2.4191    -0.2431 H       
  35 H35           -1.2527    -1.2166    -0.7207 H       
  36 H36           -2.3078     0.2167    -0.6989 H       
  37 H37            1.1262    -1.0149    -0.2899 H       
  38 H38            2.8479     2.8849    -0.3878 H       
  39 H39            3.1108     0.4377    -0.3711 H       
  40 H40           -0.0688     4.6212     0.2873 H       
  41 H41           -2.6394    -1.8904     5.9250 H       
  42 H42           -7.9562    -0.5340     3.2717 H       
  43 H43           -9.9100    -0.0051     4.7126 H       
  44 H44           -9.5111     0.5979     7.0896 H       
  45 H45            1.5660     4.2933    -3.5208 H       
  46 H46           -1.1267     4.4846    -2.6906 H       
  47 H47           -0.6053     6.0827    -3.2758 H       
  48 H48           -0.5607     4.6773    -4.3672 H       
  49 H49           -3.6686     2.1409     1.8550 H       
  50 H50           -2.8224     1.7004     0.3523 H       
  51 H51           -5.2814     1.6449     0.0380 H       
  52 H52           -4.5774     0.0202    -0.1434 H       
  53 H53           -5.4236     0.4608     1.3593 H       
  54 H54           -5.7719     1.2528     3.3784 H       
  55 H55           -5.1029     2.1048     4.7908 H       
  56 H56           -4.3589     2.3183     3.1879 H       
@<TRIPOS>BOND
   1    1    9 ar
   2    1   12 ar
   3    1   34 1
   4    2    3 2
   5    2    4 1
   6    2   32 1
   7    3   19 1
   8    3    7 1
   9    4    5 2
  10    4   30 1
  11    5    6 1
  12    5    8 1
  13    6    7 1
  14    6   11 2
  15    8    9 1
  16    8   35 1
  17    8   36 1
  18    9   10 ar
  19   10   14 ar
  20   10   37 1
  21   12   13 ar
  22   12   15 1
  23   13   14 ar
  24   13   38 1
  25   14   39 1
  26   15   16 am
  27   15   40 1
  28   16   17 2
  29   16   18 2
  30   16   28 am
  31   19   20 2
  32   19   41 1
  33   20   21 1
  34   20   32 1
  35   21   22 1
  36   22   23 ar
  37   22   24 ar
  38   23   27 ar
  39   24   25 ar
  40   25   26 ar
  41   25   42 1
  42   26   27 ar
  43   26   43 1
  44   27   44 1
  45   28   29 1
  46   28   45 1
  47   29   46 1
  48   29   47 1
  49   29   48 1
  50   30   31 1
  51   30   49 1
  52   30   50 1
  53   31   51 1
  54   31   52 1
  55   31   53 1
  56   32   33 1
  57   33   54 1
  58   33   55 1
  59   33   56 1

#	End of record

