#	Name: ASD02810006
#	Creating user name:	WinNT
#	Creation time:	15. 06. 2019 20:26

#	Modifying user name:	WinNT
#	Modification time:	15. 06. 2019 20:26

#	Program:	/corina/corina34_cracker 3.40 0067  02.08.2006

@<TRIPOS>MOLECULE
ASD02810006
 133  133    0    0    0
SMALL
NO_CHARGES


@<TRIPOS>ATOM
   1 C1             0.0296     3.8203     3.5192 C.3     
   2 C2            -3.7978   -18.8476    20.2031 C.3     
   3 C3             2.5807     2.1145     2.4860 C.3     
   4 C4             1.5806     1.7216     3.5751 C.3     
   5 C5             0.2425     2.3480     3.2781 C.2     
   6 N6             1.4405     0.2596     3.6069 N.3     
   7 O7            -0.6591     1.6702     2.8468 O.2     
   8 O8             2.0558     1.7571     1.2058 O.3     
   9 C9             2.3398    -2.3022     5.2808 C.3     
  10 C10            0.9814    -1.6662     4.9792 C.3     
  11 C11           -0.0038    -2.0533     6.0520 C.2     
  12 N12            1.1214    -0.2043     4.9475 N.3     
  13 O13           -0.5367    -1.1957     6.7239 O.2     
  14 C14            3.3052    -2.0130     4.1296 C.3     
  15 C15            4.6432    -2.6395     4.4266 C.2     
  16 O16            4.8079    -3.2542     5.4537 O.2     
  17 O17            5.6522    -2.5145     3.5502 O.3     
  18 C18           -2.6208    -3.7327     6.9097 C.3     
  19 C19           -1.1642    -3.7363     7.3778 C.3     
  20 C20           -0.7929    -5.1173     7.8535 C.2     
  21 N21           -0.2925    -3.3525     6.2647 N.am    
  22 O22           -0.0404    -5.8035     7.1950 O.2     
  23 C23           -3.5422    -3.9703     8.1078 C.3     
  24 C24           -3.4690    -2.7697     9.0534 C.3     
  25 C25           -4.9808    -4.1466     7.6178 C.3     
  26 C26            0.3391    -6.9831    10.1780 C.3     
  27 C27           -0.9981    -6.9597     9.4348 C.3     
  28 C28           -2.0899    -7.4519    10.3495 C.2     
  29 N29           -1.2971    -5.5897     9.0107 N.am    
  30 O30           -3.0256    -6.7295    10.6204 O.2     
  31 O31            0.2255    -6.2294    11.3868 O.3     
  32 C32           -4.2378    -9.7385    10.9193 C.3     
  33 C33           -3.0879    -9.1735    11.7557 C.3     
  34 C34           -2.5419   -10.2537    12.6536 C.2     
  35 N35           -2.0265    -8.6950    10.8665 N.am    
  36 O36           -1.3806   -10.5906    12.5601 O.2     
  37 S37           -4.8949    -8.4383     9.8384 S.3     
  38 C38           -2.1496   -11.2561    15.6549 C.3     
  39 C39           -2.8135   -11.8953    14.4336 C.3     
  40 C40           -3.9391   -12.7902    14.8846 C.2     
  41 N41           -3.3442   -10.8453    13.5607 N.am    
  42 O42           -5.0729   -12.5723    14.5133 O.2     
  43 C43           -0.9305   -10.4470    15.2076 C.3     
  44 C44           -0.2766    -9.8173    16.4105 C.2     
  45 O45           -0.7401    -9.9979    17.5167 O.2     
  46 N46            0.8232    -9.0536    16.2571 N.am    
  47 C47           -4.9426   -15.7796    14.9187 C.3     
  48 C48           -4.7588   -14.7666    16.0504 C.3     
  49 C49           -4.3983   -15.4925    17.3209 C.2     
  50 N50           -3.6857   -13.8326    15.7004 N.am    
  51 O51           -3.2436   -15.5326    17.6897 O.2     
  52 C52           -6.1137   -16.7069    15.2495 C.3     
  53 C53           -7.4116   -15.8975    15.2821 C.3     
  54 C54           -6.2190   -17.7966    14.1807 C.3     
  55 C55           -6.2749   -16.7622    20.2154 C.3     
  56 C56           -5.0257   -16.7148    19.3332 C.3     
  57 C57           -4.5208   -18.1158    19.1018 C.2     
  58 N58           -5.3591   -16.0973    18.0473 N.am    
  59 O59           -4.6955   -18.6519    18.0340 O.2     
  60 C60           -6.7084   -15.3578    20.5481 C.ar    
  61 C61           -7.5985   -14.6963    19.7222 C.ar    
  62 C62           -7.9975   -13.4089    20.0249 C.ar    
  63 C63           -7.5043   -12.7796    21.1588 C.ar    
  64 C64           -6.6114   -13.4455    21.9858 C.ar    
  65 C65           -6.2199   -14.7349    21.6817 C.ar    
  66 O66           -7.8949   -11.5130    21.4585 O.3     
  67 H67            0.9481     4.2616     3.9062 H       
  68 H68           -0.2404     4.3067     2.5819 H       
  69 H69           -0.7729     3.9574     4.2440 H       
  70 H70           -3.7365   -18.2091    21.0843 H       
  71 H71           -4.3418   -19.7589    20.4518 H       
  72 H72           -2.7923   -19.1043    19.8696 H       
  73 H73            2.7519     3.1904     2.5210 H       
  74 H74            3.5224     1.5912     2.6516 H       
  75 H75            1.9397     2.0733     4.5423 H       
  76 H76            0.7483    -0.0519     2.9421 H       
  77 H77            2.6386     1.9775     0.4663 H       
  78 H78            2.7399    -1.8838     6.2043 H       
  79 H79            2.2198    -3.3799     5.3923 H       
  80 H80            0.6222    -2.0179     4.0121 H       
  81 H81            1.8136     0.1072     5.6122 H       
  82 H82            2.9051    -2.4315     3.2061 H       
  83 H83            3.4253    -0.9354     4.0181 H       
  84 H84            6.4916    -2.9336     3.7844 H       
  85 H85           -2.8545    -2.7691     6.4570 H       
  86 H86           -2.7684    -4.5245     6.1752 H       
  87 H87           -1.0436    -3.0258     8.1955 H       
  88 H88            0.0768    -4.0333     5.6808 H       
  89 H89           -3.2258    -4.8693     8.6368 H       
  90 H90           -3.8569    -1.8852     8.5482 H       
  91 H91           -4.0658    -2.9711     9.9430 H       
  92 H92           -2.4323    -2.5977     9.3427 H       
  93 H93           -5.0329    -5.0019     6.9441 H       
  94 H94           -5.6372    -4.3159     8.4713 H       
  95 H95           -5.2972    -3.2477     7.0888 H       
  96 H96            0.6046    -8.0132    10.4157 H       
  97 H97            1.1128    -6.5446     9.5478 H       
  98 H98           -0.9385    -7.6062     8.5593 H       
  99 H99           -1.8579    -5.0225     9.5627 H       
 100 H100           1.0379    -6.2011    11.9105 H       
 101 H101          -3.8724   -10.5661    10.3114 H       
 102 H102          -5.0275   -10.0945    11.5809 H       
 103 H103          -3.4532    -8.3459    12.3636 H       
 104 H104          -1.2781    -9.2728    10.6498 H       
 105 H105          -5.8813    -9.0668     9.1744 H       
 106 H106          -2.8612   -10.5964    16.1516 H       
 107 H107          -1.8337   -12.0367    16.3469 H       
 108 H108          -2.0775   -12.4848    13.8869 H       
 109 H109          -4.2730   -10.5759    13.6355 H       
 110 H110          -0.2190   -11.1067    14.7109 H       
 111 H111          -1.2465    -9.6664    14.5156 H       
 112 H112           1.1938    -8.9091    15.3724 H       
 113 H113           1.2441    -8.6483    17.0314 H       
 114 H114          -5.1491   -15.2512    13.9880 H       
 115 H115          -4.0325   -16.3692    14.8075 H       
 116 H116          -5.6870   -14.2146    16.1983 H       
 117 H117          -2.7929   -13.9645    16.0558 H       
 118 H118          -5.9484   -17.1679    16.2233 H       
 119 H119          -7.6139   -15.4950    14.2896 H       
 120 H120          -8.2351   -16.5433    15.5870 H       
 121 H121          -7.3106   -15.0774    15.9931 H       
 122 H122          -5.2944   -18.3733    14.1574 H       
 123 H123          -7.0534   -18.4572    14.4163 H       
 124 H124          -6.3844   -17.3357    13.2069 H       
 125 H125          -7.0767   -17.2734    19.6826 H       
 126 H126          -6.0494   -17.3005    21.1360 H       
 127 H127          -4.2529   -16.1273    19.8289 H       
 128 H128          -6.2714   -16.1236    17.7186 H       
 129 H129          -7.9818   -15.1865    18.8395 H       
 130 H130          -8.6924   -12.8925    19.3794 H       
 131 H131          -6.2261   -12.9578    22.8690 H       
 132 H132          -5.5282   -15.2553    22.3275 H       
 133 H133          -8.6833   -11.4662    22.0165 H       
@<TRIPOS>BOND
   1    1    5 1
   2    1   67 1
   3    1   68 1
   4    1   69 1
   5    2   57 1
   6    2   70 1
   7    2   71 1
   8    2   72 1
   9    3    8 1
  10    3    4 1
  11    3   73 1
  12    3   74 1
  13    4    6 1
  14    4    5 1
  15    4   75 1
  16    5    7 2
  17    6   12 1
  18    6   76 1
  19    8   77 1
  20    9   14 1
  21    9   10 1
  22    9   78 1
  23    9   79 1
  24   10   12 1
  25   10   11 1
  26   10   80 1
  27   11   13 2
  28   11   21 am
  29   12   81 1
  30   14   15 1
  31   14   82 1
  32   14   83 1
  33   15   16 2
  34   15   17 1
  35   17   84 1
  36   18   23 1
  37   18   19 1
  38   18   85 1
  39   18   86 1
  40   19   21 1
  41   19   20 1
  42   19   87 1
  43   20   22 2
  44   20   29 am
  45   21   88 1
  46   23   24 1
  47   23   25 1
  48   23   89 1
  49   24   90 1
  50   24   91 1
  51   24   92 1
  52   25   93 1
  53   25   94 1
  54   25   95 1
  55   26   31 1
  56   26   27 1
  57   26   96 1
  58   26   97 1
  59   27   29 1
  60   27   28 1
  61   27   98 1
  62   28   30 2
  63   28   35 am
  64   29   99 1
  65   31  100 1
  66   32   37 1
  67   32   33 1
  68   32  101 1
  69   32  102 1
  70   33   34 1
  71   33   35 1
  72   33  103 1
  73   34   36 2
  74   34   41 am
  75   35  104 1
  76   37  105 1
  77   38   43 1
  78   38   39 1
  79   38  106 1
  80   38  107 1
  81   39   41 1
  82   39   40 1
  83   39  108 1
  84   40   42 2
  85   40   50 am
  86   41  109 1
  87   43   44 1
  88   43  110 1
  89   43  111 1
  90   44   45 2
  91   44   46 am
  92   46  112 1
  93   46  113 1
  94   47   52 1
  95   47   48 1
  96   47  114 1
  97   47  115 1
  98   48   50 1
  99   48   49 1
 100   48  116 1
 101   49   51 2
 102   49   58 am
 103   50  117 1
 104   52   53 1
 105   52   54 1
 106   52  118 1
 107   53  119 1
 108   53  120 1
 109   53  121 1
 110   54  122 1
 111   54  123 1
 112   54  124 1
 113   55   60 1
 114   55   56 1
 115   55  125 1
 116   55  126 1
 117   56   57 1
 118   56   58 1
 119   56  127 1
 120   57   59 2
 121   58  128 1
 122   60   61 ar
 123   60   65 ar
 124   61   62 ar
 125   61  129 1
 126   62   63 ar
 127   62  130 1
 128   63   64 ar
 129   63   66 1
 130   64   65 ar
 131   64  131 1
 132   65  132 1
 133   66  133 1

#	End of record

