#	Name: ASD01910568
#	Creating user name:	WinNT
#	Creation time:	15. 06. 2019 19:56

#	Modifying user name:	WinNT
#	Modification time:	15. 06. 2019 19:56

#	Program:	/corina/corina34_cracker 3.40 0067  02.08.2006

@<TRIPOS>MOLECULE
ASD01910568
  41   44    0    0    0
SMALL
NO_CHARGES


@<TRIPOS>ATOM
   1 N1            -0.0253     1.3585     0.0351 N.2     
   2 C2            -0.0207     0.0482     0.0344 C.2     
   3 N3             1.2746    -0.3455     0.0166 N.2     
   4 C4             1.9776     0.7590     0.0076 C.2     
   5 O5             1.1126     1.7782     0.0199 O.3     
   6 C6            -1.2062    -0.8339     0.0504 C.2     
   7 C7            -2.5076    -0.4288     0.0683 C.2     
   8 C8            -3.3050    -1.5838     0.0782 C.2     
   9 C9            -2.4784    -2.6538     0.0662 C.2     
  10 N10           -1.1922    -2.2059     0.0440 N.pl3   
  11 C11            3.9583     1.6169     1.2323 C.3     
  12 C12            3.4810     0.8620    -0.0123 C.3     
  13 C13            3.9244     1.6205    -1.2654 C.3     
  14 C14            5.4524     1.6972    -1.3034 C.3     
  15 C15            5.9520     2.4616    -0.0734 C.3     
  16 N16            5.4097     1.8222     1.1332 N.am    
  17 C17            6.2282     1.4311     2.1300 C.2     
  18 C18            7.6947     1.5580     1.9762 C.ar    
  19 O19            5.7620     0.9742     3.1552 O.2     
  20 C20            8.2804     2.7866     1.6544 C.ar    
  21 C21            9.6527     2.8603     1.5209 C.ar    
  22 N22           10.4093     1.7943     1.6917 N.ar    
  23 C23            9.9018     0.6171     1.9955 C.ar    
  24 C24            8.5360     0.4522     2.1546 C.ar    
  25 Cl25          -5.0402    -1.6303     0.1016 Cl      
  26 F26            8.0223    -0.7578     2.4666 F       
  27 H27           -2.8599     0.5921     0.0739 H       
  28 H28           -2.7861    -3.6890     0.0695 H       
  29 H29           -0.3988    -2.7637     0.0312 H       
  30 H30            3.4557     2.5825     1.2891 H       
  31 H31            3.7320     1.0319     2.1237 H       
  32 H32            3.9146    -0.1380    -0.0199 H       
  33 H33            3.5649     1.0985    -2.1521 H       
  34 H34            3.5106     2.6287    -1.2451 H       
  35 H35            5.8675     0.6893    -1.2987 H       
  36 H36            5.7682     2.2171    -2.2078 H       
  37 H37            7.0413     2.4338    -0.0435 H       
  38 H38            5.6121     3.4960    -0.1230 H       
  39 H39            7.6681     3.6649     1.5120 H       
  40 H40           10.1131     3.8052     1.2726 H       
  41 H41           10.5597    -0.2294     2.1262 H       
@<TRIPOS>BOND
   1    1    2 2
   2    1    5 1
   3    2    3 1
   4    2    6 1
   5    3    4 2
   6    4    5 1
   7    4   12 1
   8    6    7 2
   9    6   10 1
  10    7    8 1
  11    7   27 1
  12    8    9 2
  13    8   25 1
  14    9   10 1
  15    9   28 1
  16   10   29 1
  17   11   12 1
  18   11   16 1
  19   11   30 1
  20   11   31 1
  21   12   13 1
  22   12   32 1
  23   13   14 1
  24   13   33 1
  25   13   34 1
  26   14   15 1
  27   14   35 1
  28   14   36 1
  29   15   16 1
  30   15   37 1
  31   15   38 1
  32   16   17 am
  33   17   18 1
  34   17   19 2
  35   18   20 ar
  36   18   24 ar
  37   20   21 ar
  38   20   39 1
  39   21   22 ar
  40   21   40 1
  41   22   23 ar
  42   23   24 ar
  43   23   41 1
  44   24   26 1

#	End of record

