#	Name: ASD02198597
#	Creating user name:	WinNT
#	Creation time:	15. 06. 2019 20:19

#	Modifying user name:	WinNT
#	Modification time:	15. 06. 2019 20:19

#	Program:	/corina/corina34_cracker 3.40 0067  02.08.2006

@<TRIPOS>MOLECULE
ASD02198597
  42   45    0    0    0
SMALL
NO_CHARGES


@<TRIPOS>ATOM
   1 C1             0.0834     1.0012    -0.1377 C.2     
   2 C2             0.3506    -0.3262    -0.2227 C.2     
   3 N3             1.6252    -0.7781    -0.2228 N.pl3   
   4 N4             2.6459    -0.0065    -0.1447 N.2     
   5 C5             2.5286     1.3008    -0.0573 C.2     
   6 C6             1.1804     1.8918    -0.0495 C.2     
   7 C7             1.8407    -2.1573    -0.3122 C.ar    
   8 C8             0.7674    -3.0346    -0.2403 C.ar    
   9 C9             0.9851    -4.4006    -0.3298 C.ar    
  10 C10            2.2745    -4.8879    -0.4909 C.ar    
  11 C11            3.3422    -4.0129    -0.5619 C.ar    
  12 C12            3.1291    -2.6509    -0.4789 C.ar    
  13 C13            3.7271     2.1594     0.0317 C.2     
  14 N14            4.8641     1.8955     0.7425 N.pl3   
  15 N15            5.7448     2.9675     0.5518 N.2     
  16 C16            5.1761     3.8445    -0.2365 C.2     
  17 C17            3.9117     3.3744    -0.5911 C.2     
  18 C18            5.1049     0.7574     1.5226 C.ar    
  19 C19            4.1068     0.2550     2.3470 C.ar    
  20 O20            1.0151     3.0999     0.0294 O.2     
  21 C21            6.3404     0.1258     1.4689 C.ar    
  22 C22            6.5747    -0.9965     2.2390 C.ar    
  23 C23            5.5804    -1.4913     3.0629 C.ar    
  24 C24            4.3472    -0.8677     3.1147 C.ar    
  25 O25           -0.0634    -5.2623    -0.2593 O.3     
  26 C26            0.2346    -6.6563    -0.3587 C.3     
  27 F27            1.0944    -7.0247     0.6815 F       
  28 F28           -0.9505    -7.3942    -0.2676 F       
  29 F29            0.8515    -6.9148    -1.5874 F       
  30 H30           -0.9328     1.3668    -0.1417 H       
  31 H31           -0.4649    -1.0309    -0.2909 H       
  32 H32           -0.2353    -2.6536    -0.1145 H       
  33 H33            2.4439    -5.9522    -0.5606 H       
  34 H34            4.3446    -4.3950    -0.6870 H       
  35 H35            3.9651    -1.9695    -0.5347 H       
  36 H36            5.6151     4.7762    -0.5618 H       
  37 H37            3.2023     3.8757    -1.2328 H       
  38 H38            3.1436     0.7418     2.3882 H       
  39 H39            7.1173     0.5116     0.8254 H       
  40 H40            7.5352    -1.4884     2.1974 H       
  41 H41            5.7659    -2.3693     3.6639 H       
  42 H42            3.5728    -1.2563     3.7594 H       
@<TRIPOS>BOND
   1    1    2 2
   2    1    6 1
   3    1   30 1
   4    2    3 1
   5    2   31 1
   6    3    4 1
   7    3    7 1
   8    4    5 2
   9    5    6 1
  10    5   13 1
  11    6   20 2
  12    7    8 ar
  13    7   12 ar
  14    8    9 ar
  15    8   32 1
  16    9   10 ar
  17    9   25 1
  18   10   11 ar
  19   10   33 1
  20   11   12 ar
  21   11   34 1
  22   12   35 1
  23   13   14 1
  24   13   17 2
  25   14   15 1
  26   14   18 1
  27   15   16 2
  28   16   17 1
  29   16   36 1
  30   17   37 1
  31   18   21 ar
  32   18   19 ar
  33   19   24 ar
  34   19   38 1
  35   21   22 ar
  36   21   39 1
  37   22   23 ar
  38   22   40 1
  39   23   24 ar
  40   23   41 1
  41   24   42 1
  42   25   26 1
  43   26   27 1
  44   26   28 1
  45   26   29 1

#	End of record

