#	Name: ASD01903169
#	Creating user name:	WinNT
#	Creation time:	15. 06. 2019 19:54

#	Modifying user name:	WinNT
#	Modification time:	15. 06. 2019 19:54

#	Program:	/corina/corina34_cracker 3.40 0067  02.08.2006

@<TRIPOS>MOLECULE
ASD01903169
  41   43    0    0    0
SMALL
NO_CHARGES


@<TRIPOS>ATOM
   1 C1             1.7295    -1.7001     2.0582 C.ar    
   2 C2             0.7216    -1.1677     1.2700 C.ar    
   3 C3             0.9965    -0.0765     0.4608 C.ar    
   4 N4             2.1978     0.4575     0.4323 N.ar    
   5 C5             3.1908    -0.0219     1.1715 C.ar    
   6 C6             2.9861    -1.1168     2.0079 C.ar    
   7 C7             4.5277     0.6127     1.1064 C.2     
   8 N8             4.7319     1.6724     0.2990 N.am    
   9 O9             5.4402     0.1779     1.7809 O.2     
  10 C10            5.9655     2.3307     0.3081 C.ar    
  11 C11            7.1387     1.6084     0.4848 C.ar    
  12 C12            8.3554     2.2617     0.4933 C.ar    
  13 C13            8.4065     3.6335     0.3262 C.ar    
  14 C14            7.2404     4.3557     0.1505 C.ar    
  15 C15            6.0208     3.7077     0.1348 C.ar    
  16 S16            9.9610     4.4631     0.3377 S.o2    
  17 O17            9.6938     5.8108     0.7002 O.2     
  18 O18           10.8565     3.6274     1.0581 O.2     
  19 N19           10.5091     4.4989    -1.2245 N.am    
  20 C20            9.7640     5.1395    -2.2081 C.ar    
  21 C21            9.7227     4.6208    -3.5118 C.ar    
  22 C22            8.9700     5.2745    -4.4908 C.ar    
  23 C23            8.2749     6.4208    -4.1719 C.ar    
  24 C24            8.3179     6.9302    -2.8840 C.ar    
  25 C25            9.0523     6.2927    -1.9045 C.ar    
  26 C26           10.4477     3.4294    -3.8365 C.1     
  27 N27           11.0229     2.4842    -4.0941 N.1     
  28 H28            1.5392    -2.5473     2.7003 H       
  29 H29           -0.2684    -1.5991     1.2858 H       
  30 H30            0.2134     0.3407    -0.1550 H       
  31 H31            3.7949    -1.5060     2.6085 H       
  32 H32            4.0232     1.9783    -0.2884 H       
  33 H33            7.0994     0.5371     0.6157 H       
  34 H34            9.2679     1.7007     0.6309 H       
  35 H35            7.2837     5.4269     0.0207 H       
  36 H36            5.1105     4.2723    -0.0024 H       
  37 H37           11.3500     4.0729    -1.4534 H       
  38 H38            8.9333     4.8820    -5.4963 H       
  39 H39            7.6939     6.9251    -4.9299 H       
  40 H40            7.7698     7.8292    -2.6439 H       
  41 H41            9.0807     6.6962    -0.9031 H       
@<TRIPOS>BOND
   1    1    2 ar
   2    1    6 ar
   3    1   28 1
   4    2    3 ar
   5    2   29 1
   6    3    4 ar
   7    3   30 1
   8    4    5 ar
   9    5    6 ar
  10    5    7 1
  11    6   31 1
  12    7    8 am
  13    7    9 2
  14    8   10 1
  15    8   32 1
  16   10   11 ar
  17   10   15 ar
  18   11   12 ar
  19   11   33 1
  20   12   13 ar
  21   12   34 1
  22   13   14 ar
  23   13   16 1
  24   14   15 ar
  25   14   35 1
  26   15   36 1
  27   16   17 2
  28   16   18 2
  29   16   19 am
  30   19   20 1
  31   19   37 1
  32   20   21 ar
  33   20   25 ar
  34   21   22 ar
  35   21   26 1
  36   22   23 ar
  37   22   38 1
  38   23   24 ar
  39   23   39 1
  40   24   25 ar
  41   24   40 1
  42   25   41 1
  43   26   27 3

#	End of record

