#	Name: ASD06020144
#	Creating user name:	WinNT
#	Creation time:	15. 06. 2019 21:04

#	Modifying user name:	WinNT
#	Modification time:	15. 06. 2019 21:04

#	Program:	/corina/corina34_cracker 3.40 0067  02.08.2006

@<TRIPOS>MOLECULE
ASD06020144
  39   42    0    0    0
SMALL
NO_CHARGES


@<TRIPOS>ATOM
   1 C1             0.0027    -0.0072     0.0093 C.1     
   2 C2            -0.0172     1.4245     0.0313 C.ar    
   3 C3             1.1904     2.1502     0.0274 C.ar    
   4 C4             1.1563     3.5444     0.0490 C.ar    
   5 C5            -0.0564     4.2055     0.0740 C.ar    
   6 C6            -1.2451     3.4915     0.0782 C.ar    
   7 C7            -1.2312     2.1086     0.0507 C.ar    
   8 N8             0.0185    -1.1430    -0.0081 N.1     
   9 F9            -2.4241     4.1507     0.1036 F       
  10 Cl10           2.6380     4.4490     0.0451 Cl      
  11 C11            6.1971     0.2716    -0.0615 C.ar    
  12 C12            4.8490     0.6454    -0.0392 C.ar    
  13 C13            3.8584    -0.3438    -0.0419 C.ar    
  14 C14            4.2946    -1.6933    -0.0677 C.ar    
  15 C15            5.6255    -1.9673    -0.0883 C.ar    
  16 N16            6.5355    -1.0057    -0.0850 N.ar    
  17 S17            4.0609     2.2188    -0.0063 S.3     
  18 C18            2.4840     1.4392     0.0012 C.2     
  19 N19            2.6215     0.1529    -0.0196 N.2     
  20 N20            7.1869     1.2503    -0.0648 N.pl3   
  21 C21           10.1309    -0.7405     0.3067 C.ar    
  22 N22            8.8649    -0.3860     0.2206 N.ar    
  23 C23            8.5231     0.8862     0.0251 C.ar    
  24 C24            9.5252     1.8449    -0.0880 C.ar    
  25 C25           10.8495     1.4286     0.0087 C.ar    
  26 N26           11.1082     0.1369     0.2048 N.ar    
  27 C27           10.4706    -2.1909     0.5346 C.3     
  28 N28           11.8843     2.3449    -0.0978 N.pl3   
  29 H29           -0.0789     5.2851     0.0907 H       
  30 H30           -2.1610     1.5591     0.0492 H       
  31 H31            3.5739    -2.4977    -0.0706 H       
  32 H32            5.9497    -2.9973    -0.1075 H       
  33 H33            6.9428     2.1868    -0.1299 H       
  34 H34            9.2816     2.8850    -0.2472 H       
  35 H35           10.5787    -2.6941    -0.4262 H       
  36 H36           11.4062    -2.2621     1.0893 H       
  37 H37            9.6727    -2.6656     1.1057 H       
  38 H38           11.6879     3.2840    -0.2409 H       
  39 H39           12.8049     2.0470    -0.0293 H       
@<TRIPOS>BOND
   1    1    2 1
   2    1    8 3
   3    2    3 ar
   4    2    7 ar
   5    3    4 ar
   6    3   18 1
   7    4    5 ar
   8    4   10 1
   9    5    6 ar
  10    5   29 1
  11    6    7 ar
  12    6    9 1
  13    7   30 1
  14   11   12 ar
  15   11   16 ar
  16   11   20 1
  17   12   13 ar
  18   12   17 1
  19   13   14 ar
  20   13   19 1
  21   14   15 ar
  22   14   31 1
  23   15   16 ar
  24   15   32 1
  25   17   18 1
  26   18   19 2
  27   20   23 1
  28   20   33 1
  29   21   22 ar
  30   21   26 ar
  31   21   27 1
  32   22   23 ar
  33   23   24 ar
  34   24   25 ar
  35   24   34 1
  36   25   26 ar
  37   25   28 1
  38   27   35 1
  39   27   36 1
  40   27   37 1
  41   28   38 1
  42   28   39 1

#	End of record

