#	Name: ASD02508392
#	Creating user name:	WinNT
#	Creation time:	15. 06. 2019 20:24

#	Modifying user name:	WinNT
#	Modification time:	15. 06. 2019 20:24

#	Program:	/corina/corina34_cracker 3.40 0067  02.08.2006

@<TRIPOS>MOLECULE
ASD02508392
  34   36    0    0    0
SMALL
NO_CHARGES


@<TRIPOS>ATOM
   1 C1            -0.1925     1.7619     0.2780 C.2     
   2 C2            -0.1741     0.3623     0.4454 C.2     
   3 C3             1.1138    -0.0337     0.4043 C.2     
   4 N4             1.8944     1.0721     0.2171 N.pl3   
   5 C5             1.0849     2.1702     0.1406 C.2     
   6 C6             3.2891     1.0788     0.1205 C.ar    
   7 C7             4.0297     1.9580     0.9031 C.ar    
   8 N8             3.8925     0.2451    -0.7107 N.ar    
   9 C9             5.2058     0.2183    -0.8324 C.ar    
  10 C10            6.0036     1.0666    -0.0903 C.ar    
  11 C11            5.4106     1.9536     0.7975 C.ar    
  12 S12            1.6910    -1.6907     0.5648 S.o2    
  13 O13            1.6067    -2.2721    -0.7291 O.2     
  14 O14            2.8992    -1.6244     1.3098 O.2     
  15 N15            0.6008    -2.4999     1.5129 N.am    
  16 C16            0.3846    -2.0927     2.8329 C.ar    
  17 C17           -0.9093    -1.9955     3.3274 C.ar    
  18 C18           -1.1212    -1.5935     4.6321 C.ar    
  19 C19           -0.0449    -1.2873     5.4468 C.ar    
  20 C20            1.2476    -1.3830     4.9557 C.ar    
  21 C21            1.4640    -1.7903     3.6529 C.ar    
  22 Cl22           3.2342     3.0463     1.9970 Cl      
  23 F23           -0.2546    -0.8944     6.7222 F       
  24 Cl24           2.5955    -0.9978     5.9796 Cl      
  25 H25           -1.0699     2.3914     0.2586 H       
  26 H26           -1.0346    -0.2760     0.5818 H       
  27 H27            1.4119     3.1892    -0.0052 H       
  28 H28            5.6630    -0.4766    -1.5213 H       
  29 H29            7.0780     1.0375    -0.1967 H       
  30 H30            6.0121     2.6275     1.3896 H       
  31 H31            0.1122    -3.2564     1.1525 H       
  32 H32           -1.7496    -2.2339     2.6923 H       
  33 H33           -2.1276    -1.5176     5.0166 H       
  34 H34            2.4712    -1.8652     3.2702 H       
@<TRIPOS>BOND
   1    1    2 1
   2    1    5 2
   3    1   25 1
   4    2    3 2
   5    2   26 1
   6    3    4 1
   7    3   12 1
   8    4    5 1
   9    4    6 1
  10    5   27 1
  11    6    7 ar
  12    6    8 ar
  13    7   22 1
  14    7   11 ar
  15    8    9 ar
  16    9   10 ar
  17    9   28 1
  18   10   11 ar
  19   10   29 1
  20   11   30 1
  21   12   13 2
  22   12   14 2
  23   12   15 am
  24   15   16 1
  25   15   31 1
  26   16   17 ar
  27   16   21 ar
  28   17   18 ar
  29   17   32 1
  30   18   19 ar
  31   18   33 1
  32   19   20 ar
  33   19   23 1
  34   20   21 ar
  35   20   24 1
  36   21   34 1

#	End of record

