#	Name: ASD01911982
#	Creating user name:	WinNT
#	Creation time:	15. 06. 2019 19:58

#	Modifying user name:	WinNT
#	Modification time:	15. 06. 2019 19:58

#	Program:	/corina/corina34_cracker 3.40 0067  02.08.2006

@<TRIPOS>MOLECULE
ASD01911982
  38   40    0    0    0
SMALL
NO_CHARGES


@<TRIPOS>ATOM
   1 C1            -1.5184     1.2543     1.6052 C.ar    
   2 C2            -1.4173    -0.1303     1.4926 C.ar    
   3 C3            -1.5830    -0.8991     2.6422 C.ar    
   4 N4            -1.8284    -0.2909     3.7907 N.ar    
   5 C5            -1.9166     1.0225     3.8556 C.ar    
   6 N6            -1.7661     1.7849     2.7911 N.ar    
   7 N7            -1.1571    -0.7324     0.2584 N.pl3   
   8 C8            -1.0426    -2.1225     0.1693 C.ar    
   9 C9             0.3022    -4.0761    -0.2047 C.ar    
  10 C10           -0.8064    -4.8788    -0.0091 C.ar    
  11 C11           -2.0411    -4.3047     0.2714 C.ar    
  12 C12           -2.1586    -2.9250     0.3606 C.ar    
  13 N13           -3.1624    -5.1172     0.4691 N.am    
  14 C14           -4.1651    -4.6993     1.2668 C.2     
  15 C15           -5.3041    -5.6003     1.5583 C.ar    
  16 O16           -4.1348    -3.5833     1.7470 O.2     
  17 C17           -6.3366    -5.1624     2.3830 C.ar    
  18 C18            0.1879    -2.7021    -0.1165 C.ar    
  19 C19           -1.0043     0.0935    -0.9419 C.3     
  20 C20           -7.3972    -6.0161     2.6478 C.ar    
  21 C21           -7.3881    -7.2782     2.0784 C.ar    
  22 C22           -6.3253    -7.6501     1.2646 C.ar    
  23 N23           -5.3340    -6.8168     1.0261 N.ar    
  24 F24           -6.3111    -8.8805     0.7068 F       
  25 Cl25          -0.6579    -6.6048    -0.1210 Cl      
  26 H26           -1.3919     1.8854     0.7380 H       
  27 H27           -1.5124    -1.9759     2.5964 H       
  28 H28           -2.1180     1.4878     4.8092 H       
  29 H29            1.2604    -4.5242    -0.4226 H       
  30 H30           -3.1166    -2.4765     0.5787 H       
  31 H31           -3.2182    -5.9814     0.0321 H       
  32 H32           -6.3119    -4.1712     2.8112 H       
  33 H33            1.0556    -2.0777    -0.2701 H       
  34 H34            0.0432     0.3701    -1.0617 H       
  35 H35           -1.3334    -0.4699    -1.8150 H       
  36 H36           -1.6090     0.9949    -0.8420 H       
  37 H37           -8.2118    -5.7034     3.2842 H       
  38 H38           -8.1990    -7.9667     2.2653 H       
@<TRIPOS>BOND
   1    1    2 ar
   2    1    6 ar
   3    1   26 1
   4    2    3 ar
   5    2    7 1
   6    3    4 ar
   7    3   27 1
   8    4    5 ar
   9    5    6 ar
  10    5   28 1
  11    7    8 1
  12    7   19 1
  13    8   18 ar
  14    8   12 ar
  15    9   10 ar
  16    9   18 ar
  17    9   29 1
  18   10   11 ar
  19   10   25 1
  20   11   12 ar
  21   11   13 1
  22   12   30 1
  23   13   14 am
  24   13   31 1
  25   14   15 1
  26   14   16 2
  27   15   17 ar
  28   15   23 ar
  29   17   20 ar
  30   17   32 1
  31   18   33 1
  32   19   34 1
  33   19   35 1
  34   19   36 1
  35   20   21 ar
  36   20   37 1
  37   21   22 ar
  38   21   38 1
  39   22   23 ar
  40   22   24 1

#	End of record

