#	Name: ASD00431504
#	Creating user name:	WinNT
#	Creation time:	15. 06. 2019 18:35

#	Modifying user name:	WinNT
#	Modification time:	15. 06. 2019 18:35

#	Program:	/corina/corina34_cracker 3.40 0067  02.08.2006

@<TRIPOS>MOLECULE
ASD00431504
  33   34    0    0    0
SMALL
NO_CHARGES


@<TRIPOS>ATOM
   1 S1            -0.1725     1.7182    -0.7334 S.3     
   2 C2            -0.1501     0.0101    -0.7965 C.2     
   3 N3             1.0231    -0.4131    -1.1586 N.2     
   4 C4             1.9395     0.4951    -1.4006 C.2     
   5 C5             1.5163     1.7704    -1.2330 C.2     
   6 C6             2.3208     2.9804    -1.4323 C.2     
   7 Cl7            3.9789     2.8481    -1.9294 Cl      
   8 N8             1.7927     4.1511    -1.2368 N.2     
   9 O9             2.5694     5.3193    -1.4293 O.3     
  10 O10           -1.2051    -0.7879    -0.5092 O.3     
  11 C11           -1.0030    -2.1326    -0.4945 C.ar    
  12 C12           -2.0837    -2.9959    -0.3718 C.ar    
  13 C13           -1.8777    -4.3622    -0.3574 C.ar    
  14 C14           -0.5915    -4.8708    -0.4655 C.ar    
  15 C15            0.4875    -4.0082    -0.5876 C.ar    
  16 C16            0.2816    -2.6421    -0.6078 C.ar    
  17 O17           -0.3888    -6.2152    -0.4513 O.3     
  18 C18           -1.5321    -7.0414    -0.2228 C.3     
  19 C19           -2.2037    -7.3637    -1.5592 C.3     
  20 C20           -1.0947    -8.3415     0.4548 C.3     
  21 Cl21          -3.6929    -2.3589    -0.2359 Cl      
  22 H22            2.9449     0.2464    -1.7067 H       
  23 H23            2.0907     6.1423    -1.2599 H       
  24 H24           -2.7178    -5.0341    -0.2615 H       
  25 H25            1.4887    -4.4045    -0.6714 H       
  26 H26            1.1218    -1.9709    -0.7078 H       
  27 H27           -2.2375    -6.5157     0.4208 H       
  28 H28           -1.4984    -7.8894    -2.2028 H       
  29 H29           -3.0758    -7.9939    -1.3849 H       
  30 H30           -2.5154    -6.4375    -2.0420 H       
  31 H31           -0.6162    -8.1119     1.4069 H       
  32 H32           -1.9668    -8.9717     0.6291 H       
  33 H33           -0.3894    -8.8672    -0.1888 H       
@<TRIPOS>BOND
   1    1    2 1
   2    1    5 1
   3    2    3 2
   4    2   10 1
   5    3    4 1
   6    4    5 2
   7    4   22 1
   8    5    6 1
   9    6    7 1
  10    6    8 2
  11    8    9 1
  12    9   23 1
  13   10   11 1
  14   11   12 ar
  15   11   16 ar
  16   12   13 ar
  17   12   21 1
  18   13   14 ar
  19   13   24 1
  20   14   15 ar
  21   14   17 1
  22   15   16 ar
  23   15   25 1
  24   16   26 1
  25   17   18 1
  26   18   19 1
  27   18   20 1
  28   18   27 1
  29   19   28 1
  30   19   29 1
  31   19   30 1
  32   20   31 1
  33   20   32 1
  34   20   33 1

#	End of record

