#	Name: ASD07930175
#	Creating user name:	WinNT
#	Creation time:	15. 06. 2019 21:11

#	Modifying user name:	WinNT
#	Modification time:	15. 06. 2019 21:11

#	Program:	/corina/corina34_cracker 3.40 0067  02.08.2006

@<TRIPOS>MOLECULE
ASD07930175
  58   62    0    0    0
SMALL
NO_CHARGES


@<TRIPOS>ATOM
   1 C1             0.2301     1.0995     0.8939 C.2     
   2 C2             0.0610    -0.3535     0.6712 C.2     
   3 N3             1.4918     1.6400     0.7891 N.am    
   4 N4             1.1383    -1.1616     0.8166 N.am    
   5 C5             2.4191    -0.5662     1.2232 C.3     
   6 C6             2.6111     0.7493     0.4540 C.3     
   7 C7            -0.8441     1.8808     1.1902 C.2     
   8 C8            -0.6887     3.2561     1.4036 C.2     
   9 C9             0.5565     3.8152     1.3135 C.2     
  10 C10            1.6958     2.9538     0.9875 C.2     
  11 O11           -1.0223    -0.8125     0.3646 O.2     
  12 O12            2.8173     3.4236     0.8972 O.2     
  13 C13            1.0290    -2.6020     0.5727 C.3     
  14 C14            0.8234    -2.8519    -0.9227 C.3     
  15 O15           -0.4783    -2.4039    -1.3060 O.3     
  16 C16           -4.8740    -2.2345    -3.6710 C.3     
  17 C17           -4.3326    -1.1955    -2.6807 C.3     
  18 C18           -3.1323    -1.8057    -1.9526 C.3     
  19 C19           -2.1947    -2.4308    -2.9542 C.ar    
  20 C20           -0.8878    -2.7040    -2.5671 C.ar    
  21 C21           -0.0009    -3.2807    -3.4618 C.ar    
  22 C22           -0.4161    -3.5866    -4.7446 C.ar    
  23 C23           -1.7136    -3.3158    -5.1333 C.ar    
  24 C24           -2.6090    -2.7346    -4.2374 C.ar    
  25 O25           -3.8740    -2.4758    -4.6617 O.3     
  26 F26           -2.1166    -3.6161    -6.3873 F       
  27 F27           -2.4581    -0.8040    -1.2460 F       
  28 F28           -3.5787    -2.7849    -1.0587 F       
  29 C29           -0.1626    -3.1623     1.3518 C.3     
  30 C30            1.4406     5.7625     2.5326 C.2     
  31 N31            1.3818     7.0586     2.3917 N.2     
  32 C32            0.6523     7.3553     1.3057 C.2     
  33 C33            0.2401     6.2013     0.7476 C.2     
  34 N34            0.7378     5.1853     1.5227 N.pl3   
  35 C35            0.3465     8.7409     0.7983 C.3     
  36 H36            2.4059    -0.3654     2.2945 H       
  37 H37            3.2331    -1.2512     0.9861 H       
  38 H38            2.6163     0.5517    -0.6180 H       
  39 H39            3.5522     1.2139     0.7480 H       
  40 H40           -1.8257     1.4361     1.2610 H       
  41 H41           -1.5455     3.8707     1.6373 H       
  42 H42            1.9430    -3.0966     0.9014 H       
  43 H43            1.5773    -2.3053    -1.4894 H       
  44 H44            0.9161    -3.9182    -1.1291 H       
  45 H45           -5.0998    -3.1615    -3.1438 H       
  46 H46           -5.7774    -1.8526    -4.1466 H       
  47 H47           -4.0195    -0.3018    -3.2204 H       
  48 H48           -5.1075    -0.9370    -1.9590 H       
  49 H49            1.0138    -3.4908    -3.1576 H       
  50 H50            0.2740    -4.0368    -5.4427 H       
  51 H51           -1.0766    -2.6677     1.0231 H       
  52 H52           -0.2439    -4.2340     1.1703 H       
  53 H53           -0.0162    -2.9843     2.4172 H       
  54 H54            1.9638     5.2366     3.3175 H       
  55 H55           -0.3661     6.0961    -0.1400 H       
  56 H56            1.1223     9.0509     0.0982 H       
  57 H57           -0.6191     8.7377     0.2925 H       
  58 H58            0.3150     9.4363     1.6371 H       
@<TRIPOS>BOND
   1    1    2 1
   2    1    3 1
   3    1    7 2
   4    2    4 am
   5    2   11 2
   6    3    6 1
   7    3   10 am
   8    4    5 1
   9    4   13 1
  10    5    6 1
  11    5   36 1
  12    5   37 1
  13    6   38 1
  14    6   39 1
  15    7    8 1
  16    7   40 1
  17    8    9 2
  18    8   41 1
  19    9   10 1
  20    9   34 1
  21   10   12 2
  22   13   14 1
  23   13   29 1
  24   13   42 1
  25   14   15 1
  26   14   43 1
  27   14   44 1
  28   15   20 1
  29   16   17 1
  30   16   25 1
  31   16   45 1
  32   16   46 1
  33   17   18 1
  34   17   47 1
  35   17   48 1
  36   18   19 1
  37   18   27 1
  38   18   28 1
  39   19   20 ar
  40   19   24 ar
  41   20   21 ar
  42   21   22 ar
  43   21   49 1
  44   22   23 ar
  45   22   50 1
  46   23   24 ar
  47   23   26 1
  48   24   25 1
  49   29   51 1
  50   29   52 1
  51   29   53 1
  52   30   31 2
  53   30   34 1
  54   30   54 1
  55   31   32 1
  56   32   33 2
  57   32   35 1
  58   33   34 1
  59   33   55 1
  60   35   56 1
  61   35   57 1
  62   35   58 1

#	End of record

