#	Name: ASD01820163
#	Creating user name:	WinNT
#	Creation time:	15. 06. 2019 19:36

#	Modifying user name:	WinNT
#	Modification time:	15. 06. 2019 19:36

#	Program:	/corina/corina34_cracker 3.40 0067  02.08.2006

@<TRIPOS>MOLECULE
ASD01820163
  84   87    0    0    0
SMALL
NO_CHARGES


@<TRIPOS>ATOM
   1 C1            -0.0170     1.4061     0.0098 C.ar    
   2 C2             0.0021    -0.0041     0.0020 C.ar    
   3 C3            -1.4132    -0.4274     0.0132 C.2     
   4 N4            -2.1892     0.6714     0.0265 N.am    
   5 C5            -1.4432     1.7907     0.0313 C.2     
   6 C6            -3.6540     0.6514     0.0399 C.3     
   7 C7            -4.1506     0.6364     1.4870 C.3     
   8 C8            -5.6804     0.6156     1.5010 C.3     
   9 N9            -6.1572     0.6012     2.8904 N.4     
  10 C10           -7.6260     0.5812     2.9038 C.3     
  11 C11           -8.1227     0.5662     4.3509 C.3     
  12 C12           -9.6524     0.5454     4.3649 C.3     
  13 C13          -10.1491     0.5304     5.8120 C.3     
  14 C14          -11.6789     0.5096     5.8260 C.3     
  15 C15          -12.1755     0.4946     7.2731 C.3     
  16 N16          -13.6443     0.4746     7.2865 N.4     
  17 C17          -14.1211     0.4602     8.6759 C.3     
  18 C18          -15.6509     0.4394     8.6899 C.3     
  19 N19          -17.6124     0.4045    10.1503 N.am    
  20 O20           -1.8707     2.9276     0.0430 O.2     
  21 O21           -1.8098    -1.5754     0.0105 O.2     
  22 C22          -16.1476     0.4244    10.1369 C.3     
  23 C23          -18.3583    -0.7150    10.1510 C.2     
  24 C24          -19.7854    -0.3301    10.1663 C.ar    
  25 C25          -19.8045     1.0796    10.1743 C.ar    
  26 C26          -18.3883     1.5032    10.1694 C.2     
  27 C27          -20.9777    -1.0353    10.1737 C.ar    
  28 C28          -22.1823    -0.3487    10.1890 C.ar    
  29 C29          -22.2010     1.0330    10.1969 C.ar    
  30 C30          -21.0155     1.7521    10.1893 C.ar    
  31 O31          -17.9308    -1.8517    10.1403 O.2     
  32 O32          -17.9918     2.6511    10.1739 O.2     
  33 C33          -14.1565     1.6711     6.6054 C.3     
  34 C34          -14.1240    -0.7275     6.5917 C.3     
  35 C35           -5.6450    -0.5953     3.5715 C.3     
  36 C36           -5.6775     1.8033     3.5852 C.3     
  37 C37            1.1750     2.1129     0.0022 C.ar    
  38 C38            2.3814     1.4275    -0.0130 C.ar    
  39 C39            2.4003     0.0401    -0.0211 C.ar    
  40 C40            1.2129    -0.6781    -0.0132 C.ar    
  41 F41            3.5444     2.1150    -0.0204 F       
  42 F42            3.5815    -0.6154    -0.0363 F       
  43 H43           -4.0341     1.5393    -0.4654 H       
  44 H44           -4.0099    -0.2405    -0.4756 H       
  45 H45           -3.7705    -0.2514     1.9924 H       
  46 H46           -3.7946     1.5284     2.0026 H       
  47 H47           -6.0605     1.5034     0.9956 H       
  48 H48           -6.0364    -0.2763     0.9854 H       
  49 H49           -8.0061     1.4690     2.3984 H       
  50 H50           -7.9820    -0.3107     2.3883 H       
  51 H51           -7.7426    -0.3216     4.8563 H       
  52 H52           -7.7667     1.4582     4.8665 H       
  53 H53          -10.0325     1.4332     3.8595 H       
  54 H54          -10.0084    -0.3465     3.8493 H       
  55 H55           -9.7690    -0.3574     6.3174 H       
  56 H56           -9.7931     1.4224     6.3275 H       
  57 H57          -12.0590     1.3974     5.3206 H       
  58 H58          -12.0348    -0.3824     5.3104 H       
  59 H59          -11.7954    -0.3932     7.7784 H       
  60 H60          -11.8195     1.3865     7.7886 H       
  61 H61          -13.7410    -0.4276     9.1813 H       
  62 H62          -13.7652     1.3522     9.1914 H       
  63 H63          -16.0310     1.3272     8.1845 H       
  64 H64          -16.0069    -0.4526     8.1743 H       
  65 H65          -15.7675    -0.4634    10.6423 H       
  66 H66          -15.7916     1.3163    10.6525 H       
  67 H67          -20.9691    -2.1152    10.1672 H       
  68 H68          -23.1123    -0.8976    10.1945 H       
  69 H69          -23.1456     1.5564    10.2089 H       
  70 H70          -21.0361     2.8319    10.1955 H       
  71 H71          -13.8027     1.6818     5.5744 H       
  72 H72          -15.2464     1.6563     6.6153 H       
  73 H73          -13.8006     2.5631     7.1209 H       
  74 H74          -13.7440    -1.6153     7.0970 H       
  75 H75          -15.2139    -0.7423     6.6016 H       
  76 H76          -13.7702    -0.7168     5.5607 H       
  77 H77           -4.5551    -0.5805     3.5615 H       
  78 H78           -5.9988    -0.6060     4.6024 H       
  79 H79           -6.0009    -1.4873     3.0559 H       
  80 H80           -6.0576     2.6911     3.0798 H       
  81 H81           -6.0313     1.7926     4.6162 H       
  82 H82           -4.5876     1.8181     3.5753 H       
  83 H83            1.1650     3.1929     0.0077 H       
  84 H84            1.2323    -1.7579    -0.0199 H       
@<TRIPOS>BOND
   1    1    2 ar
   2    1   37 ar
   3    1    5 1
   4    2    3 1
   5    2   40 ar
   6    3    4 am
   7    3   21 2
   8    4    5 am
   9    4    6 1
  10    5   20 2
  11    6    7 1
  12    6   43 1
  13    6   44 1
  14    7    8 1
  15    7   45 1
  16    7   46 1
  17    8    9 1
  18    8   47 1
  19    8   48 1
  20    9   10 1
  21    9   35 1
  22    9   36 1
  23   10   11 1
  24   10   49 1
  25   10   50 1
  26   11   12 1
  27   11   51 1
  28   11   52 1
  29   12   13 1
  30   12   53 1
  31   12   54 1
  32   13   14 1
  33   13   55 1
  34   13   56 1
  35   14   15 1
  36   14   57 1
  37   14   58 1
  38   15   16 1
  39   15   59 1
  40   15   60 1
  41   16   17 1
  42   16   33 1
  43   16   34 1
  44   17   18 1
  45   17   61 1
  46   17   62 1
  47   18   22 1
  48   18   63 1
  49   18   64 1
  50   19   23 am
  51   19   22 1
  52   19   26 am
  53   22   65 1
  54   22   66 1
  55   23   24 1
  56   23   31 2
  57   24   25 ar
  58   24   27 ar
  59   25   26 1
  60   25   30 ar
  61   26   32 2
  62   27   28 ar
  63   27   67 1
  64   28   29 ar
  65   28   68 1
  66   29   30 ar
  67   29   69 1
  68   30   70 1
  69   33   71 1
  70   33   72 1
  71   33   73 1
  72   34   74 1
  73   34   75 1
  74   34   76 1
  75   35   77 1
  76   35   78 1
  77   35   79 1
  78   36   80 1
  79   36   81 1
  80   36   82 1
  81   37   38 ar
  82   37   83 1
  83   38   39 ar
  84   38   41 1
  85   39   40 ar
  86   39   42 1
  87   40   84 1

#	End of record

