#	Name: ASD08150111
#	Creating user name:	WinNT
#	Creation time:	15. 06. 2019 21:15

#	Modifying user name:	WinNT
#	Modification time:	15. 06. 2019 21:15

#	Program:	/corina/corina34_cracker 3.40 0067  02.08.2006

@<TRIPOS>MOLECULE
ASD08150111
  52   55    0    0    0
SMALL
NO_CHARGES


@<TRIPOS>ATOM
   1 O1            -0.0161     1.3334     0.0094 O.3     
   2 C2             0.0021    -0.0041     0.0020 C.2     
   3 N3             1.2348    -0.5293    -0.0126 N.am    
   4 C4             2.2183     0.5645    -0.0161 C.3     
   5 C5             1.3508     1.8379    -0.0010 C.3     
   6 O6            -1.0069    -0.6808     0.0084 O.2     
   7 C7             3.0750     0.5128    -1.2827 C.3     
   8 C8             1.6283     2.6610     1.2586 C.3     
   9 O9             0.8311     3.8468     1.2379 O.3     
  10 C10            3.0931    -3.5894     0.0537 C.ar    
  11 N11            2.1556    -4.5191    -0.0405 N.ar    
  12 C12            0.8687    -4.1833    -0.1300 C.ar    
  13 C13            0.5191    -2.8335    -0.1233 C.ar    
  14 C14            1.5353    -1.8872    -0.0227 C.ar    
  15 N15            2.7968    -2.2984     0.0630 N.ar    
  16 C16           -2.0648    -7.1227    -0.4259 C.ar    
  17 N17           -0.7932    -7.4881    -0.3387 N.ar    
  18 C18            0.1662    -6.5856    -0.2436 C.ar    
  19 C19           -0.1757    -5.2298    -0.2357 C.ar    
  20 C20           -1.5274    -4.8864    -0.3295 C.ar    
  21 N21           -2.4284    -5.8480    -0.4217 N.ar    
  22 C22            1.6086    -7.0108    -0.1445 C.3     
  23 F23            1.6962    -8.3997    -0.2873 F       
  24 F24            2.3483    -6.3903    -1.1569 F       
  25 F25            2.1202    -6.6371     1.1028 F       
  26 N26            4.4183    -3.9768     0.1507 N.3     
  27 C27            4.5419    -5.4416     0.1295 C.3     
  28 C28            6.0235    -5.8241     0.1785 C.3     
  29 O29            6.6214    -5.2471     1.3426 O.3     
  30 C30            6.5198    -3.8216     1.3955 C.3     
  31 C31            5.0433    -3.4188     1.3588 C.3     
  32 N32           -3.0382    -8.0984    -0.5298 N.pl3   
  33 H33            2.8457     0.5180     0.8740 H       
  34 H34            1.5314     2.4339    -0.8956 H       
  35 H35            2.4317     0.5848    -2.1596 H       
  36 H36            3.7791     1.3449    -1.2792 H       
  37 H37            3.6246    -0.4281    -1.3115 H       
  38 H38            1.3789     2.0709     2.1405 H       
  39 H39            2.6833     2.9329     1.2898 H       
  40 H40            0.9559     4.4181     2.0081 H       
  41 H41           -0.5148    -2.5295    -0.1947 H       
  42 H42           -1.8308    -3.8499    -0.3269 H       
  43 H43            4.0285    -5.8627     0.9938 H       
  44 H44            4.0955    -5.8313    -0.7854 H       
  45 H45            6.1181    -6.9091     0.2206 H       
  46 H46            6.5261    -5.4486    -0.7129 H       
  47 H47            6.9734    -3.4583     2.3177 H       
  48 H48            7.0368    -3.3878     0.5395 H       
  49 H49            4.9628    -2.3319     1.3413 H       
  50 H50            4.5378    -3.8076     2.2428 H       
  51 H51           -2.7869    -9.0352    -0.5382 H       
  52 H52           -3.9726    -7.8462    -0.5944 H       
@<TRIPOS>BOND
   1    1    2 1
   2    1    5 1
   3    2    3 am
   4    2    6 2
   5    3    4 1
   6    3   14 1
   7    4    5 1
   8    4    7 1
   9    4   33 1
  10    5    8 1
  11    5   34 1
  12    7   35 1
  13    7   36 1
  14    7   37 1
  15    8    9 1
  16    8   38 1
  17    8   39 1
  18    9   40 1
  19   10   11 ar
  20   10   15 ar
  21   10   26 1
  22   11   12 ar
  23   12   13 ar
  24   12   19 1
  25   13   14 ar
  26   13   41 1
  27   14   15 ar
  28   16   17 ar
  29   16   21 ar
  30   16   32 1
  31   17   18 ar
  32   18   19 ar
  33   18   22 1
  34   19   20 ar
  35   20   21 ar
  36   20   42 1
  37   22   23 1
  38   22   24 1
  39   22   25 1
  40   26   27 1
  41   26   31 1
  42   27   28 1
  43   27   43 1
  44   27   44 1
  45   28   29 1
  46   28   45 1
  47   28   46 1
  48   29   30 1
  49   30   31 1
  50   30   47 1
  51   30   48 1
  52   31   49 1
  53   31   50 1
  54   32   51 1
  55   32   52 1

#	End of record

