#	Name: ASD00070089
#	Creating user name:	WinNT
#	Creation time:	15. 06. 2019 18:30

#	Modifying user name:	WinNT
#	Modification time:	15. 06. 2019 18:30

#	Program:	/corina/corina34_cracker 3.40 0067  02.08.2006

@<TRIPOS>MOLECULE
ASD00070089
  75   80    0    0    0
SMALL
NO_CHARGES


@<TRIPOS>ATOM
   1 C1            -0.0179     1.4724     0.0101 C.2     
   2 C2             0.0021    -0.0041     0.0020 C.ar    
   3 C3             1.2204    -0.6877    -0.0133 C.ar    
   4 C4             1.2353    -2.0648    -0.0203 C.ar    
   5 C5             0.0397    -2.7748    -0.0123 C.ar    
   6 C6            -1.1748    -2.0977     0.0025 C.ar    
   7 C7            -1.1972    -0.7207     0.0155 C.ar    
   8 O8             1.0265     2.0946     0.0035 O.2     
   9 N9            -1.1942     2.1304     0.0193 N.am    
  10 N10            0.0586    -4.1730    -0.0195 N.pl3   
  11 N11            1.2016    -4.9830    -0.0342 N.2     
  12 C12            0.8176    -6.2336    -0.0361 C.2     
  13 C13           -0.5816    -6.2653    -0.0227 C.2     
  14 C14           -1.0278    -4.9883    -0.0075 C.2     
  15 C15           -1.2140     3.5952     0.0273 C.3     
  16 C16           -2.5311     4.0907    -0.5734 C.3     
  17 C17           -2.5518     5.6205    -0.5649 C.3     
  18 C18           -2.4262     6.1244     0.8742 C.3     
  19 C19           -1.1092     5.6289     1.4750 C.3     
  20 C20           -1.0884     4.0991     1.4665 C.3     
  21 C21           -2.4470     7.6542     0.8827 C.3     
  22 C22           -2.4470     8.1563     2.3279 C.3     
  23 N23           -2.4670     9.6252     2.3360 N.3     
  24 C24           -2.7057    10.1408     3.6901 C.3     
  25 C25           -2.8648    11.6620     3.6374 C.3     
  26 C26           -1.5940    12.2832     3.0513 C.3     
  27 C27           -1.3415    11.6935     1.6609 C.3     
  28 C28           -1.2266    10.1714     1.7709 C.3     
  29 O29           -0.1296    16.6435     4.2827 O.3     
  30 C30            0.9563    15.7442     4.5636 C.3     
  31 C31            0.2720    14.3573     4.5230 C.3     
  32 C32           -0.9147    14.6203     3.6163 C.ar    
  33 C33           -1.0646    15.9989     3.5321 C.ar    
  34 C34           -1.7677    13.7761     2.9412 C.ar    
  35 C35           -2.7843    14.2990     2.1613 C.ar    
  36 C36           -2.9387    15.6693     2.0635 C.ar    
  37 C37           -2.0871    16.5170     2.7415 C.ar    
  38 H38            2.1493    -0.1369    -0.0199 H       
  39 H39            2.1767    -2.5940    -0.0325 H       
  40 H40           -2.1015    -2.6522     0.0084 H       
  41 H41           -2.1407    -0.1954     0.0314 H       
  42 H42           -2.0275     1.6340     0.0205 H       
  43 H43            1.4692    -7.0948    -0.0468 H       
  44 H44           -1.1967    -7.1530    -0.0213 H       
  45 H45           -2.0609    -4.6739     0.0088 H       
  46 H46           -0.3800     3.9732    -0.5640 H       
  47 H47           -2.6205     3.7318    -1.5987 H       
  48 H48           -3.3651     3.7128     0.0180 H       
  49 H49           -1.7178     5.9985    -1.1563 H       
  50 H50           -3.4901     5.9735    -0.9929 H       
  51 H51           -3.2602     5.7464     1.4656 H       
  52 H52           -0.2752     6.0068     0.8836 H       
  53 H53           -1.0197     5.9878     2.5003 H       
  54 H54           -1.9224     3.7211     2.0579 H       
  55 H55           -0.1502     3.7461     1.8945 H       
  56 H56           -1.5644     8.0324     0.3667 H       
  57 H57           -3.3442     8.0082     0.3750 H       
  58 H58           -3.3296     7.7781     2.8439 H       
  59 H59           -1.5498     7.8023     2.8356 H       
  60 H60           -3.6145     9.6943     4.0937 H       
  61 H61           -1.8609     9.8859     4.3300 H       
  62 H62           -3.7179    11.9171     3.0088 H       
  63 H63           -3.0265    12.0460     4.6446 H       
  64 H64           -0.7470    12.0609     3.7005 H       
  65 H65           -2.1706    11.9491     1.0012 H       
  66 H66           -0.4147    12.1001     1.2560 H       
  67 H67           -0.3887     9.9164     2.4198 H       
  68 H68           -1.0610     9.7472     0.7806 H       
  69 H69            1.7266    15.8173     3.7959 H       
  70 H70            1.3741    15.9399     5.5512 H       
  71 H71            0.9349    13.6083     4.0898 H       
  72 H72           -0.0569    14.0558     5.5175 H       
  73 H73           -3.4544    13.6389     1.6306 H       
  74 H74           -3.7300    16.0784     1.4528 H       
  75 H75           -2.2149    17.5863     2.6599 H       
@<TRIPOS>BOND
   1    1    2 1
   2    1    8 2
   3    1    9 am
   4    2    3 ar
   5    2    7 ar
   6    3    4 ar
   7    3   38 1
   8    4    5 ar
   9    4   39 1
  10    5    6 ar
  11    5   10 1
  12    6    7 ar
  13    6   40 1
  14    7   41 1
  15    9   15 1
  16    9   42 1
  17   10   11 1
  18   10   14 1
  19   11   12 2
  20   12   13 1
  21   12   43 1
  22   13   14 2
  23   13   44 1
  24   14   45 1
  25   15   16 1
  26   15   20 1
  27   15   46 1
  28   16   17 1
  29   16   47 1
  30   16   48 1
  31   17   18 1
  32   17   49 1
  33   17   50 1
  34   18   19 1
  35   18   21 1
  36   18   51 1
  37   19   20 1
  38   19   52 1
  39   19   53 1
  40   20   54 1
  41   20   55 1
  42   21   22 1
  43   21   56 1
  44   21   57 1
  45   22   23 1
  46   22   58 1
  47   22   59 1
  48   23   24 1
  49   23   28 1
  50   24   25 1
  51   24   60 1
  52   24   61 1
  53   25   26 1
  54   25   62 1
  55   25   63 1
  56   26   27 1
  57   26   34 1
  58   26   64 1
  59   27   28 1
  60   27   65 1
  61   27   66 1
  62   28   67 1
  63   28   68 1
  64   29   30 1
  65   29   33 1
  66   30   31 1
  67   30   69 1
  68   30   70 1
  69   31   32 1
  70   31   71 1
  71   31   72 1
  72   32   33 ar
  73   32   34 ar
  74   33   37 ar
  75   34   35 ar
  76   35   36 ar
  77   35   73 1
  78   36   37 ar
  79   36   74 1
  80   37   75 1

#	End of record

