#	Name: ASD02198548
#	Creating user name:	WinNT
#	Creation time:	15. 06. 2019 20:19

#	Modifying user name:	WinNT
#	Modification time:	15. 06. 2019 20:19

#	Program:	/corina/corina34_cracker 3.40 0067  02.08.2006

@<TRIPOS>MOLECULE
ASD02198548
  41   44    0    0    0
SMALL
NO_CHARGES


@<TRIPOS>ATOM
   1 C1            -0.0636     2.1902    -0.5107 C.2     
   2 C2            -0.2630     0.8489    -0.5626 C.2     
   3 N3             0.7738    -0.0107    -0.4455 N.pl3   
   4 N4             1.9874     0.3683    -0.2818 N.2     
   5 C5             2.3197     1.6386    -0.2146 C.2     
   6 C6             1.2612     2.6545    -0.3310 C.2     
   7 C7             0.5089    -1.3828    -0.5055 C.ar    
   8 C8            -1.0615    -3.1934    -0.5868 C.ar    
   9 C9            -0.0152    -4.0971    -0.6242 C.ar    
  10 C10            1.2922    -3.6476    -0.5967 C.ar    
  11 C11            1.5573    -2.2934    -0.5374 C.ar    
  12 C12            3.7313     2.0393    -0.0245 C.2     
  13 C13            4.2683     2.6953     1.0681 C.2     
  14 O14            5.5839     2.8666     0.8376 O.3     
  15 C15            5.9073     2.3465    -0.3574 C.2     
  16 C16            4.8083     1.8219    -0.9250 C.2     
  17 C17            3.5319     3.1301     2.2701 C.ar    
  18 C18            2.1954     2.7624     2.4458 C.ar    
  19 O19            1.5156     3.8485    -0.2757 O.2     
  20 C20            4.1691     3.9068     3.2411 C.ar    
  21 C21            3.4745     4.3093     4.3625 C.ar    
  22 C22            2.1495     3.9457     4.5273 C.ar    
  23 C23            1.5133     3.1722     3.5723 C.ar    
  24 C24           -0.8036    -1.8382    -0.5275 C.ar    
  25 F25           -2.4914    -5.0854    -0.6828 F       
  26 F26           -3.1475    -3.2726     0.5429 F       
  27 C27           -2.4847    -3.6880    -0.6170 C.3     
  28 F28           -3.1364    -3.1651    -1.7391 F       
  29 H29           -0.8883     2.8807    -0.6078 H       
  30 H30           -1.2626     0.4633    -0.6988 H       
  31 H31           -0.2197    -5.1564    -0.6751 H       
  32 H32            2.1069    -4.3559    -0.6258 H       
  33 H33            2.5786    -1.9429    -0.5163 H       
  34 H34            6.8960     2.3462    -0.7920 H       
  35 H35            4.7528     1.3334    -1.8866 H       
  36 H36            1.6976     2.1590     1.7012 H       
  37 H37            5.2033     4.1910     3.1140 H       
  38 H38            3.9659     4.9094     5.1141 H       
  39 H39            1.6105     4.2634     5.4076 H       
  40 H40            0.4791     2.8921     3.7075 H       
  41 H41           -1.6211    -1.1331    -0.4979 H       
@<TRIPOS>BOND
   1    1    2 2
   2    1    6 1
   3    1   29 1
   4    2    3 1
   5    2   30 1
   6    3    4 1
   7    3    7 1
   8    4    5 2
   9    5    6 1
  10    5   12 1
  11    6   19 2
  12    7   24 ar
  13    7   11 ar
  14    8    9 ar
  15    8   27 1
  16    8   24 ar
  17    9   10 ar
  18    9   31 1
  19   10   11 ar
  20   10   32 1
  21   11   33 1
  22   12   13 2
  23   12   16 1
  24   13   14 1
  25   13   17 1
  26   14   15 1
  27   15   16 2
  28   15   34 1
  29   16   35 1
  30   17   20 ar
  31   17   18 ar
  32   18   23 ar
  33   18   36 1
  34   20   21 ar
  35   20   37 1
  36   21   22 ar
  37   21   38 1
  38   22   23 ar
  39   22   39 1
  40   23   40 1
  41   24   41 1
  42   25   27 1
  43   26   27 1
  44   27   28 1

#	End of record

