#	Name: ASD01884805
#	Creating user name:	WinNT
#	Creation time:	15. 06. 2019 19:48

#	Modifying user name:	WinNT
#	Modification time:	15. 06. 2019 19:48

#	Program:	/corina/corina34_cracker 3.40 0067  02.08.2006

@<TRIPOS>MOLECULE
ASD01884805
  51   55    0    0    0
SMALL
NO_CHARGES


@<TRIPOS>ATOM
   1 C1            -0.4406     1.2698     0.2469 C.3     
   2 C2            -0.1584    -0.2326     0.1822 C.3     
   3 H3            -1.0921    -0.7833     0.2964 H       
   4 C4             0.4741    -0.5751    -1.1655 C.3     
   5 N5             1.0418    -1.9188    -1.1936 N.am    
   6 C6             1.7235    -2.4207    -0.1354 C.2     
   7 O7             2.3640    -3.4519    -0.2152 O.2     
   8 C8             1.6461    -1.6513     1.1134 C.2     
   9 C9             2.3407    -1.7608     2.2983 C.2     
  10 C10            1.8276    -0.7254     3.1101 C.2     
  11 N11            0.9101    -0.0927     2.4203 N.2     
  12 N12            0.7652    -0.6047     1.2615 N.pl3   
  13 C13            3.3927    -2.7474     2.6446 C.2     
  14 C14            4.0940    -2.8479     3.8751 C.2     
  15 C15            4.9397    -3.9035     3.6836 C.2     
  16 O16            4.7148    -4.3482     2.4343 O.3     
  17 N17            3.8566    -3.7043     1.8775 N.2     
  18 C18            5.9102    -4.4490     4.6568 C.ar    
  19 C19            6.7981    -3.6037     5.3229 C.ar    
  20 N20            7.6623    -4.0893     6.1901 N.ar    
  21 C21            7.7256    -5.3783     6.4632 C.ar    
  22 C22            6.8799    -6.2817     5.8446 C.ar    
  23 C23            5.9497    -5.8214     4.9296 C.ar    
  24 C24            5.0072    -6.7739     4.2399 C.3     
  25 C25            0.8786    -2.7062    -2.3374 C.ar    
  26 C26            0.0871    -3.8466    -2.2902 C.ar    
  27 C27           -0.0724    -4.6219    -3.4219 C.ar    
  28 C28            0.5547    -4.2639    -4.6012 C.ar    
  29 C29            1.3434    -3.1291    -4.6516 C.ar    
  30 C30            1.5029    -2.3465    -3.5249 C.ar    
  31 C31            0.3788    -5.1126    -5.8340 C.3     
  32 F32           -0.7289    -4.6590    -6.5582 F       
  33 F33            1.5255    -5.0218    -6.6302 F       
  34 F34            0.1764    -6.4449    -5.4580 F       
  35 H35            0.4934     1.8201     0.1327 H       
  36 H36           -1.1253     1.5457    -0.5551 H       
  37 H37           -0.8908     1.5138     1.2091 H       
  38 H38           -0.2874    -0.4982    -1.9417 H       
  39 H39            1.2640     0.1455    -1.3772 H       
  40 H40            2.1364    -0.4956     4.1191 H       
  41 H41            3.9849    -2.2330     4.7563 H       
  42 H42            6.7768    -2.5421     5.1255 H       
  43 H43            8.4496    -5.7342     7.1812 H       
  44 H44            6.9421    -7.3346     6.0769 H       
  45 H45            5.4645    -7.1340     3.3184 H       
  46 H46            4.7994    -7.6187     4.8967 H       
  47 H47            4.0760    -6.2579     4.0060 H       
  48 H48           -0.4027    -4.1270    -1.3694 H       
  49 H49           -0.6874    -5.5090    -3.3857 H       
  50 H50            1.8322    -2.8525    -5.5741 H       
  51 H51            2.1157    -1.4582    -3.5661 H       
@<TRIPOS>BOND
   1    1    2 1
   2    1   35 1
   3    1   36 1
   4    1   37 1
   5    2    3 1
   6    2   12 1
   7    2    4 1
   8    4    5 1
   9    4   38 1
  10    4   39 1
  11    5    6 am
  12    5   25 1
  13    6    7 2
  14    6    8 1
  15    8   12 1
  16    8    9 2
  17    9   10 1
  18    9   13 1
  19   10   11 2
  20   10   40 1
  21   11   12 1
  22   13   17 2
  23   13   14 1
  24   14   15 2
  25   14   41 1
  26   15   16 1
  27   15   18 1
  28   16   17 1
  29   18   23 ar
  30   18   19 ar
  31   19   20 ar
  32   19   42 1
  33   20   21 ar
  34   21   22 ar
  35   21   43 1
  36   22   23 ar
  37   22   44 1
  38   23   24 1
  39   24   45 1
  40   24   46 1
  41   24   47 1
  42   25   30 ar
  43   25   26 ar
  44   26   27 ar
  45   26   48 1
  46   27   28 ar
  47   27   49 1
  48   28   29 ar
  49   28   31 1
  50   29   30 ar
  51   29   50 1
  52   30   51 1
  53   31   32 1
  54   31   33 1
  55   31   34 1

#	End of record

