#	Name: ASD02560198
#	Creating user name:	WinNT
#	Creation time:	15. 06. 2019 20:24

#	Modifying user name:	WinNT
#	Modification time:	15. 06. 2019 20:24

#	Program:	/corina/corina34_cracker 3.40 0067  02.08.2006

@<TRIPOS>MOLECULE
ASD02560198
  69   72    0    0    0
SMALL
NO_CHARGES


@<TRIPOS>ATOM
   1 C1             0.9215     3.0467    -0.3262 C.2     
   2 Br2          -15.6912     9.0278     1.0181 Br      
   3 N3           -14.3859     7.0268    -0.5068 N.2     
   4 N4           -13.3913     7.4286    -1.1188 N.2     
   5 C5           -14.4093     7.5449     0.8673 C.3     
   6 N6           -13.0273     8.0290     1.1128 N.3     
   7 C7           -12.5590     8.2924    -0.2714 C.3     
   8 S8           -10.8088     7.8470    -0.4417 S.3     
   9 C9           -10.7966     6.0786    -0.0378 C.3     
  10 C10           -9.3885     5.5506    -0.1359 C.2     
  11 O11           -8.4825     6.2941    -0.4475 O.2     
  12 N12           -9.1361     4.2522     0.1228 N.am    
  13 C13          -13.0352     9.1995     1.8684 C.ar    
  14 C14           -7.8447     3.7484    -0.0325 C.ar    
  15 C15           -7.6574     2.4199    -0.4056 C.ar    
  16 C16           -6.3833     1.9197    -0.5598 C.ar    
  17 C17           -5.2784     2.7475    -0.3411 C.ar    
  18 C18           -5.4705     4.0798     0.0332 C.ar    
  19 C19           -6.7470     4.5754     0.1800 C.ar    
  20 Cl20          -9.0308     1.3931    -0.6762 Cl      
  21 C21           -3.9116     2.2150    -0.5047 C.2     
  22 C22          -13.5984     9.2079     3.1625 C.ar    
  23 C23          -12.4877    10.3588     1.3610 C.ar    
  24 C24          -12.4906    11.5330     2.1075 C.ar    
  25 C25          -13.0318    11.5707     3.3565 C.ar    
  26 C26          -13.5952    10.4098     3.9126 C.ar    
  27 C27          -14.1613     8.0491     3.7196 C.ar    
  28 C28          -14.1614    10.4196     5.1993 C.ar    
  29 C29          -14.6990     9.2771     5.7072 C.ar    
  30 C30          -14.6963     8.0941     4.9708 C.ar    
  31 C31          -13.0215    12.8555     4.1442 C.3     
  32 N32           -2.8472     3.0144    -0.2935 N.am    
  33 O33           -3.7458     1.0553    -0.8301 O.2     
  34 C34           -1.4905     2.4859    -0.4560 C.3     
  35 C35           -0.4741     3.5903    -0.1591 C.3     
  36 O36            1.0862     1.8942    -0.6495 O.2     
  37 O37            1.9815     3.8443    -0.1212 O.3     
  38 C38            3.2955     3.2549    -0.3063 C.3     
  39 C39          -11.8025    12.8771     5.0686 C.3     
  40 C40            4.3703     4.3083    -0.0304 C.3     
  41 H41          -14.6631     6.7498     1.5684 H       
  42 H42          -12.7120     9.3399    -0.5310 H       
  43 H43          -11.1687     5.9350     0.9766 H       
  44 H44          -11.4357     5.5414    -0.7386 H       
  45 H45           -9.8525     3.6681     0.4169 H       
  46 H46           -6.2381     0.8893    -0.8488 H       
  47 H47           -4.6188     4.7217     0.2028 H       
  48 H48           -6.8957     5.6053     0.4690 H       
  49 H49          -12.0515    10.3553     0.3730 H       
  50 H50          -12.0561    12.4291     1.6896 H       
  51 H51          -14.1704     7.1265     3.1583 H       
  52 H52          -14.1694    11.3289     5.7818 H       
  53 H53          -15.1334     9.2873     6.6960 H       
  54 H54          -15.1297     7.2012     5.3966 H       
  55 H55          -12.9727    13.7015     3.4587 H       
  56 H56          -13.9312    12.9232     4.7408 H       
  57 H57           -2.9794     3.9396    -0.0340 H       
  58 H58           -1.3384     1.6568     0.2351 H       
  59 H59           -1.3574     2.1351    -1.4793 H       
  60 H60           -0.6072     3.9412     0.8642 H       
  61 H61           -0.6262     4.4194    -0.8502 H       
  62 H62            3.4196     2.4199     0.3833 H       
  63 H63            3.3921     2.8970    -1.3313 H       
  64 H64          -11.8513    12.0311     5.7541 H       
  65 H65          -10.8928    12.8094     4.4719 H       
  66 H66          -11.7950    13.8064     5.6383 H       
  67 H67            4.2463     5.1432    -0.7200 H       
  68 H68            4.2737     4.6661     0.9947 H       
  69 H69            5.3568     3.8658    -0.1693 H       
@<TRIPOS>BOND
   1    1   36 2
   2    1   37 1
   3    1   35 1
   4    2    5 1
   5    3    4 2
   6    3    5 1
   7    4    7 1
   8    5    6 1
   9    5   41 1
  10    6    7 1
  11    6   13 1
  12    7    8 1
  13    7   42 1
  14    8    9 1
  15    9   10 1
  16    9   43 1
  17    9   44 1
  18   10   11 2
  19   10   12 am
  20   12   14 1
  21   12   45 1
  22   13   22 ar
  23   13   23 ar
  24   14   15 ar
  25   14   19 ar
  26   15   16 ar
  27   15   20 1
  28   16   17 ar
  29   16   46 1
  30   17   18 ar
  31   17   21 1
  32   18   19 ar
  33   18   47 1
  34   19   48 1
  35   21   32 am
  36   21   33 2
  37   22   26 ar
  38   22   27 ar
  39   23   24 ar
  40   23   49 1
  41   24   25 ar
  42   24   50 1
  43   25   26 ar
  44   25   31 1
  45   26   28 ar
  46   27   30 ar
  47   27   51 1
  48   28   29 ar
  49   28   52 1
  50   29   30 ar
  51   29   53 1
  52   30   54 1
  53   31   39 1
  54   31   55 1
  55   31   56 1
  56   32   34 1
  57   32   57 1
  58   34   35 1
  59   34   58 1
  60   34   59 1
  61   35   60 1
  62   35   61 1
  63   37   38 1
  64   38   40 1
  65   38   62 1
  66   38   63 1
  67   39   64 1
  68   39   65 1
  69   39   66 1
  70   40   67 1
  71   40   68 1
  72   40   69 1

#	End of record

