#	Name: ASD03330355
#	Creating user name:	WinNT
#	Creation time:	15. 06. 2019 20:37

#	Modifying user name:	WinNT
#	Modification time:	15. 06. 2019 20:37

#	Program:	/corina/corina34_cracker 3.40 0067  02.08.2006

@<TRIPOS>MOLECULE
ASD03330355
  65   69    0    0    0
SMALL
NO_CHARGES


@<TRIPOS>ATOM
   1 C1            -0.5446     1.4044    -0.4547 C.3     
   2 N2            -0.5191    -0.0470    -0.6839 N.3     
   3 C3            -0.1763    -0.3589    -2.0833 C.3     
   4 C4             1.0607     0.4222    -2.4450 C.2     
   5 N5             1.5309     1.4690    -1.7174 N.pl3   
   6 C6             0.8837     1.9624    -0.4984 C.3     
   7 C7             1.9005     0.2536    -3.4968 C.2     
   8 N8             2.8711     1.1909    -3.4011 N.2     
   9 C9             2.6541     1.9241    -2.3321 C.2     
  10 C10            3.4918     3.0548    -1.8749 C.ar    
  11 C11            4.4279     3.6265    -2.7371 C.ar    
  12 C12            1.7776    -0.7665    -4.5531 C.2     
  13 O13            0.8549    -1.5585    -4.5293 O.2     
  14 C14            2.5657    -1.8361    -6.5957 C.3     
  15 N15            2.6878    -0.8219    -5.5456 N.am    
  16 C16           -1.7982    -0.6623    -0.3056 C.3     
  17 C17            5.2057     4.6810    -2.3049 C.ar    
  18 C18            5.0588     5.1714    -1.0196 C.ar    
  19 C19            4.1324     4.6089    -0.1599 C.ar    
  20 C20            3.3448     3.5574    -0.5818 C.ar    
  21 C21            3.2745    -1.3568    -7.8993 C.3     
  22 C22            3.9675    -2.9530    -4.8161 C.3     
  23 C23            3.3197    -3.1237    -6.1917 C.3     
  24 C24           -1.7661    -2.1543    -0.6432 C.3     
  25 O25           -0.7749    -2.8024     0.1564 O.3     
  26 C26            2.3665    -4.3205    -6.1864 C.3     
  27 C27            2.8644    -2.4079    -8.9755 C.3     
  28 C28            3.6184    -3.6955    -8.5715 C.3     
  29 C29            4.4129    -3.3011    -7.2892 C.3     
  30 C30            4.7510    -1.8017    -7.6070 C.3     
  31 C31            3.0564     0.1092    -8.2789 C.3     
  32 H32           -1.1445     1.8831    -1.2288 H       
  33 H33           -0.9840     1.6094     0.5215 H       
  34 H34            0.0189    -1.4264    -2.1857 H       
  35 H35           -0.9990    -0.0698    -2.7373 H       
  36 H36            0.8526     3.0519    -0.5137 H       
  37 H37            1.4384     1.6221     0.3760 H       
  38 H38            4.5437     3.2442    -3.7405 H       
  39 H39            1.5159    -2.0541    -6.7921 H       
  40 H40            3.4238    -0.1903    -5.5645 H       
  41 H41           -1.9599    -0.5354     0.7649 H       
  42 H42           -2.6086    -0.1829    -0.8548 H       
  43 H43            5.9310     5.1242    -2.9712 H       
  44 H44            5.6703     5.9967    -0.6859 H       
  45 H45            4.0224     4.9962     0.8422 H       
  46 H46            2.6219     3.1191     0.0902 H       
  47 H47            3.1961    -2.7458    -4.0744 H       
  48 H48            4.4943    -3.8684    -4.5465 H       
  49 H49            4.6736    -2.1233    -4.8475 H       
  50 H50           -2.7423    -2.5941    -0.4389 H       
  51 H51           -1.5232    -2.2830    -1.6980 H       
  52 H52           -0.6990    -3.7528    -0.0050 H       
  53 H53            1.6880    -4.2409    -5.3370 H       
  54 H54            1.7905    -4.3304    -7.1117 H       
  55 H55            2.9418    -5.2428    -6.1066 H       
  56 H56            1.7875    -2.5751    -8.9525 H       
  57 H57            3.1777    -2.0792    -9.9664 H       
  58 H58            2.9122    -4.4957    -8.3499 H       
  59 H59            4.3023    -3.9998    -9.3638 H       
  60 H60            5.2491    -3.9499    -7.0283 H       
  61 H61            5.3888    -1.7039    -8.4855 H       
  62 H62            5.1702    -1.2853    -6.7435 H       
  63 H63            3.4265     0.7506    -7.4791 H       
  64 H64            3.5951     0.3299    -9.2004 H       
  65 H65            1.9921     0.2915    -8.4277 H       
@<TRIPOS>BOND
   1    1    2 1
   2    1    6 1
   3    1   32 1
   4    1   33 1
   5    2    3 1
   6    2   16 1
   7    3    4 1
   8    3   34 1
   9    3   35 1
  10    4    5 1
  11    4    7 2
  12    5    6 1
  13    5    9 1
  14    6   36 1
  15    6   37 1
  16    7    8 1
  17    7   12 1
  18    8    9 2
  19    9   10 1
  20   10   11 ar
  21   10   20 ar
  22   11   17 ar
  23   11   38 1
  24   12   13 2
  25   12   15 am
  26   14   21 1
  27   14   15 1
  28   14   23 1
  29   14   39 1
  30   15   40 1
  31   16   24 1
  32   16   41 1
  33   16   42 1
  34   17   18 ar
  35   17   43 1
  36   18   19 ar
  37   18   44 1
  38   19   20 ar
  39   19   45 1
  40   20   46 1
  41   21   27 1
  42   21   31 1
  43   21   30 1
  44   22   23 1
  45   22   47 1
  46   22   48 1
  47   22   49 1
  48   23   26 1
  49   23   29 1
  50   24   25 1
  51   24   50 1
  52   24   51 1
  53   25   52 1
  54   26   53 1
  55   26   54 1
  56   26   55 1
  57   27   28 1
  58   27   56 1
  59   27   57 1
  60   28   29 1
  61   28   58 1
  62   28   59 1
  63   29   30 1
  64   29   60 1
  65   30   61 1
  66   30   62 1
  67   31   63 1
  68   31   64 1
  69   31   65 1

#	End of record

