#	Name: ASD01812984
#	Creating user name:	WinNT
#	Creation time:	15. 06. 2019 19:29

#	Modifying user name:	WinNT
#	Modification time:	15. 06. 2019 19:29

#	Program:	/corina/corina34_cracker 3.40 0067  02.08.2006

@<TRIPOS>MOLECULE
ASD01812984
  51   55    0    0    0
SMALL
NO_CHARGES


@<TRIPOS>ATOM
   1 N1             0.0024     1.3184    -0.2204 N.ar    
   2 C2             0.0314     0.0056    -0.3429 C.ar    
   3 C3             1.2335    -0.6846    -0.3647 C.ar    
   4 C4             2.4109     0.0201    -0.2565 C.ar    
   5 C5             2.3613     1.4129    -0.1277 C.ar    
   6 C6             1.1072     2.0395    -0.1133 C.ar    
   7 C7             3.8677    -0.3587    -0.2404 C.3     
   8 N8             4.6149     0.8970    -0.0963 N.am    
   9 C9             3.7394     1.9159    -0.0317 C.2     
  10 C10            6.0734     1.0197    -0.0327 C.3     
  11 C11            6.6240     1.1941    -1.4246 C.ar    
  12 O12            1.0259     3.3855     0.0104 O.3     
  13 O13            4.0443     3.0868     0.0885 O.2     
  14 C14            6.7718     2.4619    -1.9554 C.ar    
  15 C15            7.2772     2.6223    -3.2318 C.ar    
  16 C16            7.6351     1.5140    -3.9781 C.ar    
  17 C17            7.4870     0.2456    -3.4466 C.ar    
  18 C18            6.9864     0.0864    -2.1681 C.ar    
  19 C19           -0.2024     3.9618    -0.0794 C.ar    
  20 Br20           8.3260     1.7328    -5.7248 Br      
  21 C21           -1.0108     4.0603     1.0557 C.ar    
  22 C22           -2.2625     4.6470     0.9375 C.ar    
  23 C23           -2.7015     5.1361    -0.2740 C.ar    
  24 C24           -1.8955     5.0387    -1.3944 C.ar    
  25 C25           -0.6467     4.4548    -1.2939 C.ar    
  26 O26           -0.7706     3.6631     2.3363 O.3     
  27 C27           -2.0191     3.5633     3.0424 C.3     
  28 C28           -2.9107     4.5920     2.3074 C.3     
  29 C29           -2.6015     2.1540     2.9175 C.3     
  30 C30           -1.8432     3.9505     4.5121 C.3     
  31 H31           -0.8964    -0.5407    -0.4273 H       
  32 H32            1.2459    -1.7599    -0.4647 H       
  33 H33            4.0746    -1.0170     0.6033 H       
  34 H34            4.1376    -0.8503    -1.1751 H       
  35 H35            6.3390     1.8853     0.5742 H       
  36 H36            6.4946     0.1193     0.4145 H       
  37 H37            6.4920     3.3272    -1.3728 H       
  38 H38            7.3923     3.6128    -3.6466 H       
  39 H39            7.7659    -0.6201    -4.0290 H       
  40 H40            6.8746    -0.9037    -1.7514 H       
  41 H41           -3.6759     5.5957    -0.3489 H       
  42 H42           -2.2395     5.4215    -2.3439 H       
  43 H43           -0.0166     4.3791    -2.1678 H       
  44 H44           -2.8684     5.5646     2.7976 H       
  45 H45           -3.9389     4.2369     2.2378 H       
  46 H46           -1.9125     1.4354     3.3613 H       
  47 H47           -3.5584     2.1088     3.4375 H       
  48 H48           -2.7486     1.9137     1.8645 H       
  49 H49           -1.4592     4.9686     4.5762 H       
  50 H50           -2.8055     3.8925     5.0208 H       
  51 H51           -1.1397     3.2662     4.9864 H       
@<TRIPOS>BOND
   1    1    2 ar
   2    1    6 ar
   3    2    3 ar
   4    2   31 1
   5    3    4 ar
   6    3   32 1
   7    4    7 1
   8    4    5 ar
   9    5    6 ar
  10    5    9 1
  11    6   12 1
  12    7    8 1
  13    7   33 1
  14    7   34 1
  15    8    9 am
  16    8   10 1
  17    9   13 2
  18   10   11 1
  19   10   35 1
  20   10   36 1
  21   11   14 ar
  22   11   18 ar
  23   12   19 1
  24   14   15 ar
  25   14   37 1
  26   15   16 ar
  27   15   38 1
  28   16   17 ar
  29   16   20 1
  30   17   18 ar
  31   17   39 1
  32   18   40 1
  33   19   21 ar
  34   19   25 ar
  35   21   26 1
  36   21   22 ar
  37   22   23 ar
  38   22   28 1
  39   23   24 ar
  40   23   41 1
  41   24   25 ar
  42   24   42 1
  43   25   43 1
  44   26   27 1
  45   27   28 1
  46   27   29 1
  47   27   30 1
  48   28   44 1
  49   28   45 1
  50   29   46 1
  51   29   47 1
  52   29   48 1
  53   30   49 1
  54   30   50 1
  55   30   51 1

#	End of record

