#	Name: ASD02039177
#	Creating user name:	WinNT
#	Creation time:	15. 06. 2019 20:17

#	Modifying user name:	WinNT
#	Modification time:	15. 06. 2019 20:17

#	Program:	/corina/corina34_cracker 3.40 0067  02.08.2006

@<TRIPOS>MOLECULE
ASD02039177
  43   46    0    0    0
SMALL
NO_CHARGES


@<TRIPOS>ATOM
   1 N1            -0.2004     1.5039    -0.6536 N.am    
   2 C2            -0.1965     0.1596    -0.5934 C.2     
   3 C3             1.0928    -0.6000    -0.4337 C.3     
   4 C4             2.2144     0.1132    -1.1896 C.3     
   5 C5             2.2037     1.5789    -0.8414 C.ar    
   6 C6             3.3883     2.2855    -0.7759 C.ar    
   7 C7             3.3748     3.6308    -0.4564 C.ar    
   8 C8             2.1763     4.2722    -0.2012 C.ar    
   9 C9             0.9883     3.5708    -0.2653 C.ar    
  10 C10            0.9987     2.2198    -0.5864 C.ar    
  11 O11           -1.2442    -0.4468    -0.6683 O.2     
  12 C12            4.6689     4.3998    -0.3856 C.3     
  13 C13            4.9867     4.9911    -1.7605 C.3     
  14 O14            6.4194     7.0562    -1.3944 O.3     
  15 N15            7.5922     7.3643    -1.4216 N.2     
  16 C16            8.3227     6.3260    -1.7301 C.2     
  17 N17            7.4824     5.2838    -1.9052 N.2     
  18 C18            6.2808     5.7600    -1.6897 C.2     
  19 N19            9.7063     6.2993    -1.8547 N.pl3   
  20 C20           10.4404     7.4853    -1.7542 C.ar    
  21 C21           11.7477     7.4567    -1.2857 C.ar    
  22 C22           12.4709     8.6302    -1.1878 C.ar    
  23 C23           11.8926     9.8338    -1.5561 C.ar    
  24 C24           10.5905     9.8641    -2.0225 C.ar    
  25 C25            9.8655     8.6930    -2.1280 C.ar    
  26 Cl26          12.8030    11.3066    -1.4317 Cl      
  27 Cl27          14.1049     8.5960    -0.6025 Cl      
  28 H28           -1.0406     1.9794    -0.7482 H       
  29 H29            1.3497    -0.6590     0.6239 H       
  30 H30            0.9713    -1.6073    -0.8321 H       
  31 H31            3.1744    -0.3199    -0.9085 H       
  32 H32            2.0625    -0.0064    -2.2624 H       
  33 H33            4.3258     1.7872    -0.9739 H       
  34 H34            2.1694     5.3228     0.0488 H       
  35 H35            0.0528     4.0721    -0.0655 H       
  36 H36            4.5737     5.2050     0.3430 H       
  37 H37            5.4737     3.7296    -0.0834 H       
  38 H38            5.0819     4.1859    -2.4890 H       
  39 H39            4.1819     5.6612    -2.0626 H       
  40 H40           10.1630     5.4580    -2.0114 H       
  41 H41           12.1984     6.5183    -0.9979 H       
  42 H42           10.1417    10.8040    -2.3083 H       
  43 H43            8.8507     8.7171    -2.4967 H       
@<TRIPOS>BOND
   1    1    2 am
   2    1   10 1
   3    1   28 1
   4    2    3 1
   5    2   11 2
   6    3    4 1
   7    3   29 1
   8    3   30 1
   9    4    5 1
  10    4   31 1
  11    4   32 1
  12    5    6 ar
  13    5   10 ar
  14    6    7 ar
  15    6   33 1
  16    7    8 ar
  17    7   12 1
  18    8    9 ar
  19    8   34 1
  20    9   10 ar
  21    9   35 1
  22   12   13 1
  23   12   36 1
  24   12   37 1
  25   13   18 1
  26   13   38 1
  27   13   39 1
  28   14   15 1
  29   14   18 1
  30   15   16 2
  31   16   17 1
  32   16   19 1
  33   17   18 2
  34   19   20 1
  35   19   40 1
  36   20   21 ar
  37   20   25 ar
  38   21   22 ar
  39   21   41 1
  40   22   23 ar
  41   22   27 1
  42   23   24 ar
  43   23   26 1
  44   24   25 ar
  45   24   42 1
  46   25   43 1

#	End of record

