#	Name: ASD01885480
#	Creating user name:	WinNT
#	Creation time:	15. 06. 2019 19:49

#	Modifying user name:	WinNT
#	Modification time:	15. 06. 2019 19:49

#	Program:	/corina/corina34_cracker 3.40 0067  02.08.2006

@<TRIPOS>MOLECULE
ASD01885480
  47   50    0    0    0
SMALL
NO_CHARGES


@<TRIPOS>ATOM
   1 C1             0.0739     0.9495     0.4523 C.ar    
   2 C2             0.0703    -0.2170    -0.3136 C.ar    
   3 N3            -1.0012    -1.0398    -0.4313 N.2     
   4 C4            -2.2232    -0.6805    -0.5809 C.2     
   5 C5            -2.6247     0.7710    -0.6073 C.3     
   6 C6            -2.2859     1.3767     0.7313 C.2     
   7 N7            -1.0267     1.4057     1.1648 N.am    
   8 C8             1.2331     1.7214     0.5179 C.ar    
   9 C9             2.3735     1.3448    -0.1716 C.ar    
  10 C10            2.3691     0.1843    -0.9403 C.ar    
  11 C11            1.2350    -0.5867    -1.0113 C.ar    
  12 C12           -3.2619    -1.7150    -0.7305 C.ar    
  13 O13           -3.1688     1.8438     1.4193 O.2     
  14 C14           -2.9308    -3.0769    -0.7111 C.ar    
  15 C15           -3.9352    -4.0113    -0.8541 C.ar    
  16 N16           -5.1915    -3.6388    -1.0074 N.ar    
  17 C17           -5.5483    -2.3680    -1.0316 C.ar    
  18 C18           -4.6094    -1.3651    -0.8903 C.ar    
  19 Cl19          -7.2211    -1.9520    -1.2376 Cl      
  20 N20            3.5269     2.1290    -0.0961 N.pl3   
  21 C21            4.7508     1.5338     0.0439 C.2     
  22 N22            5.8502     2.2657     0.0015 N.2     
  23 N23            4.8365     0.1809     0.2279 N.pl3   
  24 C24            6.0862    -0.4245     0.3946 C.ar    
  25 C25            5.7746     3.5850    -0.2980 C.1     
  26 N26            5.7112     4.6911    -0.5491 N.1     
  27 C27            7.0950     0.2391     1.0809 C.ar    
  28 C28            8.3279    -0.3614     1.2437 C.ar    
  29 C29            8.5587    -1.6220     0.7242 C.ar    
  30 C30            7.5566    -2.2852     0.0399 C.ar    
  31 C31            6.3195    -1.6929    -0.1210 C.ar    
  32 H32           -2.0780     1.2897    -1.3948 H       
  33 H33           -3.6966     0.8529    -0.7875 H       
  34 H34           -0.8657     1.7715     2.0487 H       
  35 H35            1.2416     2.6228     1.1126 H       
  36 H36            3.2569    -0.1092    -1.4806 H       
  37 H37            1.2369    -1.4860    -1.6093 H       
  38 H38           -1.9047    -3.3898    -0.5864 H       
  39 H39           -3.6897    -5.0630    -0.8408 H       
  40 H40           -4.9079    -0.3274    -0.9106 H       
  41 H41            3.4602     3.0956    -0.1429 H       
  42 H42            4.0304    -0.3586     0.2427 H       
  43 H43            6.9155     1.2238     1.4866 H       
  44 H44            9.1129     0.1542     1.7771 H       
  45 H45            9.5238    -2.0894     0.8529 H       
  46 H46            7.7402    -3.2695    -0.3649 H       
  47 H47            5.5373    -2.2113    -0.6556 H       
@<TRIPOS>BOND
   1    1    2 ar
   2    1    8 ar
   3    1    7 1
   4    2    3 1
   5    2   11 ar
   6    3    4 2
   7    4    5 1
   8    4   12 1
   9    5    6 1
  10    5   32 1
  11    5   33 1
  12    6    7 am
  13    6   13 2
  14    7   34 1
  15    8    9 ar
  16    8   35 1
  17    9   10 ar
  18    9   20 1
  19   10   11 ar
  20   10   36 1
  21   11   37 1
  22   12   14 ar
  23   12   18 ar
  24   14   15 ar
  25   14   38 1
  26   15   16 ar
  27   15   39 1
  28   16   17 ar
  29   17   18 ar
  30   17   19 1
  31   18   40 1
  32   20   21 1
  33   20   41 1
  34   21   22 2
  35   21   23 1
  36   22   25 1
  37   23   24 1
  38   23   42 1
  39   24   27 ar
  40   24   31 ar
  41   25   26 3
  42   27   28 ar
  43   27   43 1
  44   28   29 ar
  45   28   44 1
  46   29   30 ar
  47   29   45 1
  48   30   31 ar
  49   30   46 1
  50   31   47 1

#	End of record

