#	Name: ASD08710041
#	Creating user name:	WinNT
#	Creation time:	15. 06. 2019 21:19

#	Modifying user name:	WinNT
#	Modification time:	15. 06. 2019 21:19

#	Program:	/corina/corina34_cracker 3.40 0067  02.08.2006

@<TRIPOS>MOLECULE
ASD08710041
  53   55    0    0    0
SMALL
NO_CHARGES


@<TRIPOS>ATOM
   1 C1             3.3810    -0.9871     1.6816 C.ar    
   2 C2             3.3129    -2.2913     1.2366 C.ar    
   3 C3             2.5154    -0.0270     1.1542 C.ar    
   4 C4             1.5859    -0.3946     0.1789 C.ar    
   5 C5             1.5288    -1.7020    -0.2568 C.ar    
   6 C6             2.3901    -2.6484     0.2699 C.ar    
   7 S7             2.3101    -4.3163    -0.2925 S.o2    
   8 O8             3.3413    -5.0189     0.3874 O.2     
   9 O9             0.9417    -4.6948    -0.2327 O.2     
  10 N10            2.7248    -4.3134    -1.8957 N.am    
  11 C11            4.1369    -4.3158    -2.3031 C.3     
  12 C12            1.6874    -4.3146    -2.9367 C.3     
  13 C13            1.9310    -5.5070    -3.8700 C.3     
  14 N14            3.3430    -5.5037    -4.2774 N.am    
  15 C15            4.3753    -5.5082    -3.2377 C.3     
  16 C16            3.6805    -5.5023    -5.5822 C.2     
  17 C17            5.1000    -5.6185    -5.9787 C.ar    
  18 O18            2.8178    -5.4054    -6.4330 O.2     
  19 C19            5.6589    -4.7200    -6.8957 C.ar    
  20 C20            6.9921    -4.8718    -7.2331 C.ar    
  21 C21            7.7234    -5.8965    -6.6592 C.ar    
  22 N22            7.1699    -6.7287    -5.7981 N.ar    
  23 C23            5.9068    -6.6218    -5.4410 C.ar    
  24 C24            2.5800     1.3284     1.6117 C.1     
  25 C25            4.8295    -3.6164    -7.5000 C.3     
  26 C26            9.1758    -6.0651    -7.0242 C.3     
  27 C27            1.6121    -6.8094    -3.1331 C.3     
  28 C28            0.5264    -2.1005    -1.3091 C.3     
  29 N29            2.6313     2.4037     1.9746 N.1     
  30 H30            4.0992    -0.7105     2.4393 H       
  31 H31            3.9819    -3.0350     1.6437 H       
  32 H32            0.9131     0.3431    -0.2329 H       
  33 H33            4.3680    -3.3884    -2.8270 H       
  34 H34            4.7717    -4.4091    -1.4219 H       
  35 H35            0.7049    -4.4070    -2.4739 H       
  36 H36            1.7401    -3.3871    -3.5068 H       
  37 H37            1.2958    -5.4175    -4.7513 H       
  38 H38            5.3588    -5.4150    -3.6984 H       
  39 H39            4.3204    -6.4381    -2.6717 H       
  40 H40            7.4569    -4.1977    -7.9373 H       
  41 H41            5.4895    -7.3225    -4.7330 H       
  42 H42            4.8134    -2.7619    -6.8235 H       
  43 H43            5.2634    -3.3165    -8.4539 H       
  44 H44            3.8118    -3.9726    -7.6598 H       
  45 H45            9.7924    -5.4828    -6.3395 H       
  46 H46            9.4485    -7.1180    -6.9528 H       
  47 H47            9.3369    -5.7164    -8.0442 H       
  48 H48            0.5684    -6.8029    -2.8188 H       
  49 H49            1.7860    -7.6552    -3.7984 H       
  50 H50            2.2548    -6.8980    -2.2572 H       
  51 H51            0.9735    -1.9900    -2.2971 H       
  52 H52            0.2335    -3.1394    -1.1570 H       
  53 H53           -0.3527    -1.4605    -1.2345 H       
@<TRIPOS>BOND
   1    1    2 ar
   2    1    3 ar
   3    1   30 1
   4    2    6 ar
   5    2   31 1
   6    3    4 ar
   7    3   24 1
   8    4    5 ar
   9    4   32 1
  10    5    6 ar
  11    5   28 1
  12    6    7 1
  13    7    8 2
  14    7    9 2
  15    7   10 am
  16   10   11 1
  17   10   12 1
  18   11   15 1
  19   11   33 1
  20   11   34 1
  21   12   13 1
  22   12   35 1
  23   12   36 1
  24   13   14 1
  25   13   27 1
  26   13   37 1
  27   14   15 1
  28   14   16 am
  29   15   38 1
  30   15   39 1
  31   16   17 1
  32   16   18 2
  33   17   19 ar
  34   17   23 ar
  35   19   20 ar
  36   19   25 1
  37   20   21 ar
  38   20   40 1
  39   21   22 ar
  40   21   26 1
  41   22   23 ar
  42   23   41 1
  43   24   29 3
  44   25   42 1
  45   25   43 1
  46   25   44 1
  47   26   45 1
  48   26   46 1
  49   26   47 1
  50   27   48 1
  51   27   49 1
  52   27   50 1
  53   28   51 1
  54   28   52 1
  55   28   53 1

#	End of record

