#	Name: ASD02198658
#	Creating user name:	WinNT
#	Creation time:	15. 06. 2019 20:19

#	Modifying user name:	WinNT
#	Modification time:	15. 06. 2019 20:19

#	Program:	/corina/corina34_cracker 3.40 0067  02.08.2006

@<TRIPOS>MOLECULE
ASD02198658
  43   45    0    0    0
SMALL
NO_CHARGES


@<TRIPOS>ATOM
   1 C1            -0.0163     1.3542     0.0095 C.2     
   2 C2             0.0021    -0.0041     0.0020 C.2     
   3 N3            -1.1536    -0.7145     0.0093 N.pl3   
   4 N4            -2.3144    -0.1713     0.0237 N.2     
   5 C5            -2.4769     1.1398     0.0327 C.2     
   6 C6            -1.2847     2.0007     0.0311 C.2     
   7 C7            -1.0744    -2.1107     0.0000 C.ar    
   8 C8            -1.6561    -4.2189    -0.9936 C.ar    
   9 C9            -0.9183    -4.8783    -0.0198 C.ar    
  10 C10           -0.2624    -4.1504     0.9688 C.ar    
  11 C11           -0.3405    -2.7718     0.9781 C.ar    
  12 C12           -3.8228     1.7264     0.0492 C.2     
  13 O13           -1.3785     3.2183     0.0392 O.2     
  14 C14           -1.7348    -2.8387    -0.9849 C.ar    
  15 O15            1.1380     2.0723     0.0023 O.3     
  16 C16            2.3613     1.3339    -0.0133 C.3     
  17 C17           -5.0350     0.8310     0.0559 C.3     
  18 O18           -3.9591     2.9317     0.0574 O.2     
  19 F19           -2.4530    -2.1969    -1.9322 F       
  20 F20            0.4555    -4.7926     1.9162 F       
  21 N21           -0.8388    -6.2741    -0.0288 N.3     
  22 C22           -2.1727    -6.8785     0.1006 C.3     
  23 C23           -2.0459    -8.4024     0.0262 C.3     
  24 O24           -1.1470    -8.8512     1.0441 O.3     
  25 C25            0.1618    -8.2827     0.9479 C.3     
  26 C26            0.0573    -6.7576     1.0316 C.3     
  27 H27            0.9482    -0.5247    -0.0102 H       
  28 H28           -2.1649    -4.7839    -1.7606 H       
  29 H29            0.1688    -2.2072     1.7451 H       
  30 H30            2.4153     0.7014     0.8728 H       
  31 H31            2.3983     0.7110    -0.9071 H       
  32 H32            3.2034     2.0259    -0.0176 H       
  33 H33           -4.7167    -0.2114     0.0469 H       
  34 H34           -5.6238     1.0234     0.9528 H       
  35 H35           -5.6412     1.0335    -0.8271 H       
  36 H36           -2.6090    -6.5959     1.0587 H       
  37 H37           -2.8119    -6.5266    -0.7091 H       
  38 H38           -3.0247    -8.8570     0.1788 H       
  39 H39           -1.6597    -8.6882    -0.9522 H       
  40 H40            0.7795    -8.6507     1.7670 H       
  41 H41            0.6121    -8.5650    -0.0038 H       
  42 H42            1.0459    -6.3174     0.9014 H       
  43 H43           -0.3433    -6.4731     2.0045 H       
@<TRIPOS>BOND
   1    1    2 2
   2    1   15 1
   3    1    6 1
   4    2    3 1
   5    2   27 1
   6    3    4 1
   7    3    7 1
   8    4    5 2
   9    5    6 1
  10    5   12 1
  11    6   13 2
  12    7   14 ar
  13    7   11 ar
  14    8    9 ar
  15    8   14 ar
  16    8   28 1
  17    9   10 ar
  18    9   21 1
  19   10   11 ar
  20   10   20 1
  21   11   29 1
  22   12   17 1
  23   12   18 2
  24   14   19 1
  25   15   16 1
  26   16   30 1
  27   16   31 1
  28   16   32 1
  29   17   33 1
  30   17   34 1
  31   17   35 1
  32   21   22 1
  33   21   26 1
  34   22   23 1
  35   22   36 1
  36   22   37 1
  37   23   24 1
  38   23   38 1
  39   23   39 1
  40   24   25 1
  41   25   26 1
  42   25   40 1
  43   25   41 1
  44   26   42 1
  45   26   43 1

#	End of record

