#	Name: ASD03330496
#	Creating user name:	WinNT
#	Creation time:	15. 06. 2019 20:37

#	Modifying user name:	WinNT
#	Modification time:	15. 06. 2019 20:37

#	Program:	/corina/corina34_cracker 3.40 0067  02.08.2006

@<TRIPOS>MOLECULE
ASD03330496
  71   75    0    0    0
SMALL
NO_CHARGES


@<TRIPOS>ATOM
   1 C1            -0.0179     1.4655     0.0101 C.3     
   2 N2             0.0021    -0.0041     0.0020 N.3     
   3 C3             0.4494    -0.5231    -1.3031 C.3     
   4 C4             1.7237     0.1898    -1.6760 C.2     
   5 N5             2.1518     1.3316    -1.0766 N.pl3   
   6 C6             1.4184     2.0045    -0.0007 C.3     
   7 C7             2.6416    -0.1381    -2.6193 C.2     
   8 N8             3.6170     0.7985    -2.5857 N.2     
   9 C9             3.3278     1.6845    -1.6589 C.2     
  10 C10            4.1451     2.8670    -1.3087 C.ar    
  11 C11            2.5863    -1.3044    -3.5184 C.2     
  12 O12            1.6515    -2.0796    -3.4520 O.2     
  13 C13            3.5165    -2.6712    -5.3082 C.3     
  14 N14            3.5715    -1.5119    -4.4144 N.am    
  15 C15           -1.3129    -0.5504     0.3632 C.3     
  16 C16            2.6714    -2.3284    -6.5367 C.3     
  17 C17            4.9121    -3.0359    -5.7444 C.2     
  18 N18            5.4261    -4.2414    -5.7901 N.2     
  19 C19            5.1563     3.2989    -2.1674 C.ar    
  20 C20            3.3007    -1.1450    -7.2746 C.3     
  21 C21            5.9150     4.4024    -1.8351 C.ar    
  22 C22            5.6748     5.0801    -0.6531 C.ar    
  23 C23            4.6739     4.6565     0.2029 C.ar    
  24 C24            3.9042     3.5582    -0.1210 C.ar    
  25 C25            2.6139    -3.5392    -7.4703 C.3     
  26 C26            1.2545    -1.9582    -6.0939 C.3     
  27 C27            6.6849    -4.0816    -6.2360 C.2     
  28 N28            6.8688    -2.8107    -6.4351 N.2     
  29 O29            5.8606    -2.1931    -6.1642 O.3     
  30 C30            7.6964    -5.1754    -6.4626 C.3     
  31 C31            7.1562    -6.1630    -7.4988 C.3     
  32 C32            9.0028    -4.5642    -6.9733 C.3     
  33 C33            7.9574    -5.9095    -5.1459 C.3     
  34 C34           -2.5156    -0.1076    -0.4724 C.3     
  35 C35           -1.9651    -1.5278    -0.6166 C.3     
  36 H36           -0.5467     1.8255    -0.8724 H       
  37 H37           -0.5297     1.8160     0.9063 H       
  38 H38            0.6347    -1.5947    -1.2296 H       
  39 H39           -0.3141    -0.3315    -2.0571 H       
  40 H40            1.4064     3.0795    -0.1803 H       
  41 H41            1.8965     1.7963     0.9564 H       
  42 H42            3.0682    -3.5143    -4.7826 H       
  43 H43            4.3170    -0.8935    -4.4673 H       
  44 H44           -1.4748    -0.7209     1.4275 H       
  45 H45            5.3449     2.7705    -3.0902 H       
  46 H46            4.3101    -1.4087    -7.5901 H       
  47 H47            2.6986    -0.9008    -8.1498 H       
  48 H48            3.3416    -0.2824    -6.6095 H       
  49 H49            6.6983     4.7375    -2.4988 H       
  50 H50            6.2715     5.9432    -0.3974 H       
  51 H51            4.4918     5.1893     1.1245 H       
  52 H52            3.1231     3.2285     0.5480 H       
  53 H53            2.1656    -4.3823    -6.9446 H       
  54 H54            2.0119    -3.2950    -8.3455 H       
  55 H55            3.6234    -3.8030    -7.7858 H       
  56 H56            1.2954    -1.0956    -5.4288 H       
  57 H57            0.6524    -1.7140    -6.9691 H       
  58 H58            0.8061    -2.8013    -5.5682 H       
  59 H59            6.9702    -5.6400    -8.4368 H       
  60 H60            7.8878    -6.9542    -7.6627 H       
  61 H61            6.2255    -6.5985    -7.1349 H       
  62 H62            9.3877    -3.8606    -6.2352 H       
  63 H63            9.7344    -5.3553    -7.1373 H       
  64 H64            8.8169    -4.0412    -7.9114 H       
  65 H65            7.0268    -6.3450    -4.7820 H       
  66 H66            8.6891    -6.7007    -5.3098 H       
  67 H67            8.3423    -5.2059    -4.4077 H       
  68 H68           -3.4689     0.0129     0.0421 H       
  69 H69           -2.3312     0.5891    -1.2901 H       
  70 H70           -1.4186    -1.7655    -1.5292 H       
  71 H71           -2.5563    -2.3417    -0.1970 H       
@<TRIPOS>BOND
   1    1    2 1
   2    1    6 1
   3    1   36 1
   4    1   37 1
   5    2    3 1
   6    2   15 1
   7    3    4 1
   8    3   38 1
   9    3   39 1
  10    4    5 1
  11    4    7 2
  12    5    6 1
  13    5    9 1
  14    6   40 1
  15    6   41 1
  16    7    8 1
  17    7   11 1
  18    8    9 2
  19    9   10 1
  20   10   19 ar
  21   10   24 ar
  22   11   12 2
  23   11   14 am
  24   13   14 1
  25   13   16 1
  26   13   17 1
  27   13   42 1
  28   14   43 1
  29   15   34 1
  30   15   35 1
  31   15   44 1
  32   16   20 1
  33   16   25 1
  34   16   26 1
  35   17   18 2
  36   17   29 1
  37   18   27 1
  38   19   21 ar
  39   19   45 1
  40   20   46 1
  41   20   47 1
  42   20   48 1
  43   21   22 ar
  44   21   49 1
  45   22   23 ar
  46   22   50 1
  47   23   24 ar
  48   23   51 1
  49   24   52 1
  50   25   53 1
  51   25   54 1
  52   25   55 1
  53   26   56 1
  54   26   57 1
  55   26   58 1
  56   27   28 2
  57   27   30 1
  58   28   29 1
  59   30   31 1
  60   30   32 1
  61   30   33 1
  62   31   59 1
  63   31   60 1
  64   31   61 1
  65   32   62 1
  66   32   63 1
  67   32   64 1
  68   33   65 1
  69   33   66 1
  70   33   67 1
  71   34   35 1
  72   34   68 1
  73   34   69 1
  74   35   70 1
  75   35   71 1

#	End of record

