#	Name: ASD01881941
#	Creating user name:	WinNT
#	Creation time:	15. 06. 2019 19:43

#	Modifying user name:	WinNT
#	Modification time:	15. 06. 2019 19:43

#	Program:	/corina/corina34_cracker 3.40 0067  02.08.2006

@<TRIPOS>MOLECULE
ASD01881941
  50   53    0    0    0
SMALL
NO_CHARGES


@<TRIPOS>ATOM
   1 C1             0.0025     1.2194    -0.2376 C.3     
   2 C2            -0.1490    -0.2504     0.1596 C.3     
   3 C3             0.6473    -0.5176     1.4385 C.3     
   4 C4             2.1249    -0.2051     1.1940 C.3     
   5 C5             2.2763     1.2647     0.7967 C.3     
   6 C6             1.4801     1.5319    -0.4822 C.3     
   7 C7            -0.7818     1.4826    -1.4973 C.2     
   8 O8            -1.3986     0.5867    -2.0233 O.2     
   9 O9            -0.7952     2.7125    -2.0349 O.3     
  10 O10            2.8686    -0.4547     2.3884 O.3     
  11 N11            8.2033    -1.6587     2.0802 N.pl3   
  12 N12            8.3796    -1.9302     3.4451 N.2     
  13 N13            7.2617    -1.7707     4.0611 N.2     
  14 C14            6.2984    -1.3978     3.1950 C.ar    
  15 C15            6.8795    -1.3195     1.9175 C.ar    
  16 C16            4.9364    -1.1034     3.3466 C.ar    
  17 C17            4.1901    -0.7414     2.2443 C.ar    
  18 C18            4.7801    -0.6678     0.9848 C.ar    
  19 C19            6.1064    -0.9534     0.8215 C.ar    
  20 C20            9.2281    -1.7184     1.0349 C.3     
  21 C21            9.2644    -3.1258     0.4361 C.3     
  22 C22           10.1925    -3.3621    -0.7571 C.3     
  23 C23           10.5494    -3.9368     0.6152 C.3     
  24 Br24           4.1268    -1.2007     5.0528 Br      
  25 C25           -1.5718     2.8931    -3.2484 C.3     
  26 C26           -1.4675     4.3484    -3.7087 C.3     
  27 H27           -0.3751     1.8534     0.5646 H       
  28 H28           -1.2017    -0.4730     0.3339 H       
  29 H29            0.2286    -0.8843    -0.6426 H       
  30 H30            0.2697     0.1163     2.2408 H       
  31 H31            0.5394    -1.5647     1.7215 H       
  32 H32            2.5025    -0.8391     0.3917 H       
  33 H33            1.8988     1.8987     1.5989 H       
  34 H34            3.3290     1.4873     0.6225 H       
  35 H35            1.8576     0.8980    -1.2844 H       
  36 H36            1.5880     2.5790    -0.7652 H       
  37 H37            4.1843    -0.3835     0.1301 H       
  38 H38            6.5545    -0.8937    -0.1593 H       
  39 H39            8.9918    -0.9968     0.2529 H       
  40 H40           10.2009    -1.4816     1.4659 H       
  41 H41            8.3195    -3.6689     0.4540 H       
  42 H42            9.8584    -4.0610    -1.5240 H       
  43 H43           10.7772    -2.5149    -1.1154 H       
  44 H44           11.3688    -3.4677     1.1597 H       
  45 H45           10.4500    -5.0137     0.7512 H       
  46 H46           -1.1852     2.2368    -4.0281 H       
  47 H47           -2.6155     2.6481    -3.0516 H       
  48 H48           -1.8540     5.0047    -2.9290 H       
  49 H49           -0.4238     4.5934    -3.9055 H       
  50 H50           -2.0505     4.4840    -4.6197 H       
@<TRIPOS>BOND
   1    1    2 1
   2    1    6 1
   3    1    7 1
   4    1   27 1
   5    2    3 1
   6    2   28 1
   7    2   29 1
   8    3    4 1
   9    3   30 1
  10    3   31 1
  11    4    5 1
  12    4   10 1
  13    4   32 1
  14    5    6 1
  15    5   33 1
  16    5   34 1
  17    6   35 1
  18    6   36 1
  19    7    8 2
  20    7    9 1
  21    9   25 1
  22   10   17 1
  23   11   12 1
  24   11   15 1
  25   11   20 1
  26   12   13 2
  27   13   14 1
  28   14   15 ar
  29   14   16 ar
  30   15   19 ar
  31   16   17 ar
  32   16   24 1
  33   17   18 ar
  34   18   19 ar
  35   18   37 1
  36   19   38 1
  37   20   21 1
  38   20   39 1
  39   20   40 1
  40   21   22 1
  41   21   23 1
  42   21   41 1
  43   22   23 1
  44   22   42 1
  45   22   43 1
  46   23   44 1
  47   23   45 1
  48   25   26 1
  49   25   46 1
  50   25   47 1
  51   26   48 1
  52   26   49 1
  53   26   50 1

#	End of record

