#	Name: ASD01880814
#	Creating user name:	WinNT
#	Creation time:	15. 06. 2019 19:41

#	Modifying user name:	WinNT
#	Modification time:	15. 06. 2019 19:41

#	Program:	/corina/corina34_cracker 3.40 0067  02.08.2006

@<TRIPOS>MOLECULE
ASD01880814
  44   46    0    0    0
SMALL
NO_CHARGES


@<TRIPOS>ATOM
   1 N1            -0.0158     1.3136     0.0093 N.ar    
   2 C2             0.0021    -0.0041     0.0020 C.ar    
   3 N3             1.1320    -0.6826    -0.0120 N.ar    
   4 C4             2.2987    -0.0578    -0.0198 C.ar    
   5 C5             2.3217     1.3274    -0.0130 C.ar    
   6 C6             1.1124     2.0071     0.0022 C.ar    
   7 C7             3.6286     2.0776    -0.0209 C.3     
   8 O8             4.0296     2.3216    -1.3707 O.3     
   9 C9             5.1949     2.9922    -1.5556 C.ar    
  10 C10            5.6440     3.2631    -2.8444 C.ar    
  11 C11            6.8226     3.9420    -3.0301 C.ar    
  12 C12            7.5769     4.3643    -1.9304 C.ar    
  13 C13            7.1211     4.0900    -0.6380 C.ar    
  14 C14            5.9356     3.4129    -0.4574 C.ar    
  15 C15            7.5756     4.3869    -4.2590 C.3     
  16 N16            8.7791     5.0734    -3.7759 N.am    
  17 C17            8.7759     5.0581    -2.4320 C.2     
  18 O18            9.6395     5.5476    -1.7299 O.2     
  19 C19           -1.3044    -0.7552     0.0105 C.3     
  20 C20            3.5851    -0.8427    -0.0353 C.3     
  21 C21            7.9235     4.5383     0.5562 C.3     
  22 Br22           1.0755     3.8977     0.0121 Br      
  23 C23            9.4562     7.1366    -4.9013 C.3     
  24 C24            9.8142     5.6760    -4.6196 C.3     
  25 H25            3.5053     3.0278     0.4988 H       
  26 H26            4.3914     1.4841     0.4831 H       
  27 H27            5.0662     2.9394    -3.6976 H       
  28 H28            5.5837     3.2015     0.5415 H       
  29 H29            7.8539     3.5222    -4.8615 H       
  30 H30            6.9637     5.0719    -4.8459 H       
  31 H31           -1.6291    -0.9308    -1.0151 H       
  32 H32           -1.1709    -1.7106     0.5179 H       
  33 H33           -2.0580    -0.1675     0.5347 H       
  34 H34            3.8858    -1.0271    -1.0666 H       
  35 H35            4.3635    -0.2747     0.4741 H       
  36 H36            3.4364    -1.7941     0.4755 H       
  37 H37            7.6057     5.5378     0.8530 H       
  38 H38            7.7632     3.8457     1.3825 H       
  39 H39            8.9821     4.5557     0.2969 H       
  40 H40            8.4961     7.1827    -5.4153 H       
  41 H41            9.3911     7.6827    -3.9602 H       
  42 H42           10.2263     7.5849    -5.5290 H       
  43 H43           10.7743     5.6298    -4.1056 H       
  44 H44            9.8792     5.1298    -5.5607 H       
@<TRIPOS>BOND
   1    1    2 ar
   2    1    6 ar
   3    2    3 ar
   4    2   19 1
   5    3    4 ar
   6    4    5 ar
   7    4   20 1
   8    5    6 ar
   9    5    7 1
  10    6   22 1
  11    7    8 1
  12    7   25 1
  13    7   26 1
  14    8    9 1
  15    9   10 ar
  16    9   14 ar
  17   10   11 ar
  18   10   27 1
  19   11   12 ar
  20   11   15 1
  21   12   13 ar
  22   12   17 1
  23   13   14 ar
  24   13   21 1
  25   14   28 1
  26   15   16 1
  27   15   29 1
  28   15   30 1
  29   16   17 am
  30   16   24 1
  31   17   18 2
  32   19   31 1
  33   19   32 1
  34   19   33 1
  35   20   34 1
  36   20   35 1
  37   20   36 1
  38   21   37 1
  39   21   38 1
  40   21   39 1
  41   23   24 1
  42   23   40 1
  43   23   41 1
  44   23   42 1
  45   24   43 1
  46   24   44 1

#	End of record

