#	Name: ASD03080159
#	Creating user name:	WinNT
#	Creation time:	15. 06. 2019 20:26

#	Modifying user name:	WinNT
#	Modification time:	15. 06. 2019 20:26

#	Program:	/corina/corina34_cracker 3.40 0067  02.08.2006

@<TRIPOS>MOLECULE
ASD03080159
  38   40    0    0    0
SMALL
NO_CHARGES


@<TRIPOS>ATOM
   1 C1            -0.3091     1.4678     0.4880 C.ar    
   2 C2            -0.1092     0.1505     0.1031 C.ar    
   3 C3             1.1712    -0.2944    -0.1915 C.ar    
   4 C4             2.2426     0.5708    -0.1015 C.ar    
   5 C5             2.0510     1.8887     0.2936 C.ar    
   6 C6             0.7615     2.3319     0.5831 C.ar    
   7 C7             3.7153     0.3695    -0.3804 C.3     
   8 C8             4.2709     1.8203    -0.4328 C.3     
   9 N9             3.2689     2.5796     0.3459 N.3     
  10 C10            4.4028    -0.2188     0.8757 C.3     
  11 C11            5.7999     0.4470     0.8091 C.3     
  12 N12            5.5435     1.8154     0.3136 N.3     
  13 C13            3.1221     3.9453    -0.1748 C.3     
  14 C14            6.6504     2.2859    -0.5298 C.3     
  15 O15           -1.1651    -0.7024     0.0153 O.3     
  16 C16           -1.9657    -0.5754    -1.0599 C.2     
  17 N17           -3.0873    -1.3166    -1.1563 N.am    
  18 O18           -1.6771     0.2076    -1.9433 O.2     
  19 C19           -3.9583    -1.1784    -2.3260 C.3     
  20 H20           -1.3061     1.8190     0.7094 H       
  21 H21            1.3300    -1.3198    -0.4913 H       
  22 H22            0.6001     3.3568     0.8832 H       
  23 H23            3.9044    -0.1992    -1.2909 H       
  24 H24            4.3779     2.1921    -1.4519 H       
  25 H25            3.8741     0.0732     1.7830 H       
  26 H26            4.4835    -1.3034     0.8046 H       
  27 H27            6.2516     0.4810     1.8005 H       
  28 H28            6.4448    -0.0928     0.1157 H       
  29 H29            2.7989     3.9048    -1.2150 H       
  30 H30            2.3793     4.4815     0.4159 H       
  31 H31            4.0792     4.4630    -0.1117 H       
  32 H32            6.7624     1.6213    -1.3864 H       
  33 H33            6.4370     3.2961    -0.8791 H       
  34 H34            7.5732     2.2894     0.0504 H       
  35 H35           -3.3177    -1.9415    -0.4511 H       
  36 H36           -3.3989    -1.4289    -3.2273 H       
  37 H37           -4.8090    -1.8527    -2.2272 H       
  38 H38           -4.3153    -0.1507    -2.3939 H       
@<TRIPOS>BOND
   1    1    2 ar
   2    1    6 ar
   3    1   20 1
   4    2    3 ar
   5    2   15 1
   6    3    4 ar
   7    3   21 1
   8    4    5 ar
   9    4    7 1
  10    5    6 ar
  11    5    9 1
  12    6   22 1
  13    7    8 1
  14    7   10 1
  15    7   23 1
  16    8    9 1
  17    8   12 1
  18    8   24 1
  19    9   13 1
  20   10   11 1
  21   10   25 1
  22   10   26 1
  23   11   12 1
  24   11   27 1
  25   11   28 1
  26   12   14 1
  27   13   29 1
  28   13   30 1
  29   13   31 1
  30   14   32 1
  31   14   33 1
  32   14   34 1
  33   15   16 1
  34   16   17 am
  35   16   18 2
  36   17   19 1
  37   17   35 1
  38   19   36 1
  39   19   37 1
  40   19   38 1

#	End of record

