#	Name: ASD01881929
#	Creating user name:	WinNT
#	Creation time:	15. 06. 2019 19:43

#	Modifying user name:	WinNT
#	Modification time:	15. 06. 2019 19:43

#	Program:	/corina/corina34_cracker 3.40 0067  02.08.2006

@<TRIPOS>MOLECULE
ASD01881929
  52   56    0    0    0
SMALL
NO_CHARGES


@<TRIPOS>ATOM
   1 C1            -0.4166     1.2549     0.4246 C.2     
   2 N2            -0.6325    -0.0478     0.6401 N.am    
   3 C3             0.5233    -0.7273     0.7766 C.2     
   4 C4             1.6248     0.3028     0.6239 C.3     
   5 N5             0.8931     1.5612     0.3979 N.am    
   6 O6            -1.3043     2.0696     0.2657 O.2     
   7 O7             0.6548    -1.9152     0.9799 O.2     
   8 C8            -1.9612    -0.6598     0.7187 C.3     
   9 C9             1.4776     2.8875     0.1848 C.3     
  10 C10            1.6518     3.5790     1.5124 C.ar    
  11 C11            2.8313     3.4264     2.2194 C.ar    
  12 C12            2.9964     4.0571     3.4354 C.ar    
  13 C13            1.9718     4.8493     3.9515 C.ar    
  14 C14            0.7857     4.9993     3.2349 C.ar    
  15 C15            0.6341     4.3682     2.0168 C.ar    
  16 C16            4.2815     3.8896     4.2044 C.3     
  17 C17            2.8837     7.5974     8.8729 C.2     
  18 N18            4.0159     8.2667     8.5963 N.am    
  19 C19            4.4222     7.9592     7.2204 C.3     
  20 C20            3.3866     7.0057     6.6780 C.ar    
  21 C21            3.2318     6.3776     5.4670 C.ar    
  22 C22            2.1429     5.5293     5.2581 C.ar    
  23 C23            1.2156     5.3223     6.2799 C.ar    
  24 C24            1.3710     5.9521     7.4937 C.ar    
  25 C25            2.4604     6.8020     7.7056 C.ar    
  26 O26            2.2952     7.6379     9.9359 O.2     
  27 C27            4.7269     9.1574     9.5168 C.3     
  28 C28            3.9690    10.3761    10.0473 C.3     
  29 C29            4.2558     9.1914    10.9721 C.3     
  30 H30            2.2213     0.3642     1.5342 H       
  31 H31            2.2549     0.0663    -0.2334 H       
  32 H32           -2.2721    -0.9823    -0.2750 H       
  33 H33           -1.9255    -1.5213     1.3856 H       
  34 H34           -2.6745     0.0687     1.1041 H       
  35 H35            2.4480     2.7832    -0.3006 H       
  36 H36            0.8162     3.4785    -0.4487 H       
  37 H37            3.6242     2.8123     1.8187 H       
  38 H38           -0.0113     5.6118     3.6299 H       
  39 H39           -0.2826     4.4875     1.4584 H       
  40 H40            4.9475     4.7242     3.9853 H       
  41 H41            4.0656     3.8678     5.2726 H       
  42 H42            4.7611     2.9556     3.9116 H       
  43 H43            4.4417     8.8706     6.6229 H       
  44 H44            5.4046     7.4870     7.2165 H       
  45 H45            3.9511     6.5392     4.6777 H       
  46 H46            0.3733     4.6662     6.1177 H       
  47 H47            0.6511     5.7899     8.2824 H       
  48 H48            5.7948     9.2708     9.3304 H       
  49 H49            4.5385    11.2911    10.2102 H       
  50 H50            2.9414    10.5151     9.7114 H       
  51 H51            3.4168     8.5511    11.2446 H       
  52 H52            5.0139     9.3271    11.7434 H       
@<TRIPOS>BOND
   1    1    2 am
   2    1    5 am
   3    1    6 2
   4    2    3 am
   5    2    8 1
   6    3    4 1
   7    3    7 2
   8    4    5 1
   9    4   30 1
  10    4   31 1
  11    5    9 1
  12    8   32 1
  13    8   33 1
  14    8   34 1
  15    9   10 1
  16    9   35 1
  17    9   36 1
  18   10   11 ar
  19   10   15 ar
  20   11   12 ar
  21   11   37 1
  22   12   13 ar
  23   12   16 1
  24   13   14 ar
  25   13   22 1
  26   14   15 ar
  27   14   38 1
  28   15   39 1
  29   16   40 1
  30   16   41 1
  31   16   42 1
  32   17   18 am
  33   17   25 1
  34   17   26 2
  35   18   19 1
  36   18   27 1
  37   19   20 1
  38   19   43 1
  39   19   44 1
  40   20   21 ar
  41   20   25 ar
  42   21   22 ar
  43   21   45 1
  44   22   23 ar
  45   23   24 ar
  46   23   46 1
  47   24   25 ar
  48   24   47 1
  49   27   28 1
  50   27   29 1
  51   27   48 1
  52   28   29 1
  53   28   49 1
  54   28   50 1
  55   29   51 1
  56   29   52 1

#	End of record

