#	Name: ASD03730240
#	Creating user name:	WinNT
#	Creation time:	15. 06. 2019 20:44

#	Modifying user name:	WinNT
#	Modification time:	15. 06. 2019 20:44

#	Program:	/corina/corina34_cracker 3.40 0067  02.08.2006

@<TRIPOS>MOLECULE
ASD03730240
  61   67    0    0    0
SMALL
NO_CHARGES


@<TRIPOS>ATOM
   1 N1            -0.3820     1.2904     0.9340 N.3     
   2 C2            -0.3342    -0.1898     0.9807 C.3     
   3 O3             0.8047    -0.5128     0.1626 O.3     
   4 C4             1.6494     0.5574     0.2291 C.ar    
   5 C5             0.9515     1.6726     0.6904 C.ar    
   6 C6             2.9962     0.6682    -0.0738 C.ar    
   7 C7             3.6563     1.8843     0.0725 C.ar    
   8 C8             2.9431     2.9933     0.5175 C.ar    
   9 C9             1.6036     2.8869     0.8293 C.ar    
  10 O10            4.9666     2.1955    -0.1459 O.3     
  11 C11            3.9093     4.1472     0.5350 C.3     
  12 C12            5.0994     3.6235    -0.2808 C.3     
  13 N13            3.3944     6.3479     0.8723 N.am    
  14 C14            3.3222     5.3891    -0.0724 C.2     
  15 C15            4.3114     4.5374     1.9259 C.ar    
  16 C16            4.9020     3.8545     2.9828 C.ar    
  17 C17            5.1548     4.5205     4.1840 C.ar    
  18 C18            4.8158     5.8524     4.3117 C.ar    
  19 C19            4.2296     6.5294     3.2612 C.ar    
  20 C20            3.9702     5.8785     2.0559 C.ar    
  21 O21            2.8718     5.5062    -1.1924 O.2     
  22 C22           -0.8635     1.8420     2.2076 C.3     
  23 C23            0.1978     1.6294     3.2890 C.3     
  24 C24           -0.3037     2.2039     4.6155 C.3     
  25 C25            0.7576     1.9914     5.6970 C.3     
  26 C26            0.2561     2.5658     7.0234 C.3     
  27 C27            5.2618     2.4276     2.8356 C.2     
  28 C28            6.1071     1.9556     1.9205 C.2     
  29 C29            6.3080     0.5194     1.9647 C.ar    
  30 C30            5.5569    -0.0827     2.9798 C.ar    
  31 S31            4.6370     1.1399     3.8475 S.3     
  32 C32            5.6284    -1.4664     3.1669 C.ar    
  33 C33            6.4332    -2.2335     2.3574 C.ar    
  34 C34            7.1801    -1.6389     1.3495 C.ar    
  35 C35            7.1263    -0.2938     1.1492 C.ar    
  36 H36           -0.1838    -0.5373     2.0028 H       
  37 H37           -1.2438    -0.6170     0.5586 H       
  38 H38            3.5387    -0.1966    -0.4262 H       
  39 H39            1.0622     3.7520     1.1825 H       
  40 H40            6.0420     3.9665     0.1458 H       
  41 H41            5.0144     3.9231    -1.3254 H       
  42 H42            3.0834     7.2579     0.7451 H       
  43 H43            5.6130     3.9958     5.0093 H       
  44 H44            5.0109     6.3687     5.2400 H       
  45 H45            3.9696     7.5715     3.3740 H       
  46 H46           -1.0559     2.9086     2.0920 H       
  47 H47           -1.7843     1.3360     2.4977 H       
  48 H48            0.3902     0.5628     3.4046 H       
  49 H49            1.1186     2.1354     2.9989 H       
  50 H50           -0.4961     3.2705     4.4999 H       
  51 H51           -1.2245     1.6979     4.9056 H       
  52 H52            0.9500     0.9247     5.8125 H       
  53 H53            1.6784     2.4974     5.4068 H       
  54 H54           -0.6647     2.0598     7.3135 H       
  55 H55            1.0122     2.4144     7.7939 H       
  56 H56            0.0637     3.6324     6.9078 H       
  57 H57            6.6032     2.5916     1.2023 H       
  58 H58            5.0502    -1.9343     3.9499 H       
  59 H59            6.4846    -3.3020     2.5065 H       
  60 H60            7.8098    -2.2491     0.7191 H       
  61 H61            7.7126     0.1549     0.3610 H       
@<TRIPOS>BOND
   1    1    2 1
   2    1    5 1
   3    1   22 1
   4    2    3 1
   5    2   36 1
   6    2   37 1
   7    3    4 1
   8    4    5 ar
   9    4    6 ar
  10    5    9 ar
  11    6    7 ar
  12    6   38 1
  13    7    8 ar
  14    7   10 1
  15    8    9 ar
  16    8   11 1
  17    9   39 1
  18   10   12 1
  19   11   12 1
  20   11   14 1
  21   11   15 1
  22   12   40 1
  23   12   41 1
  24   13   14 am
  25   13   20 1
  26   13   42 1
  27   14   21 2
  28   15   16 ar
  29   15   20 ar
  30   16   17 ar
  31   16   27 1
  32   17   18 ar
  33   17   43 1
  34   18   19 ar
  35   18   44 1
  36   19   20 ar
  37   19   45 1
  38   22   23 1
  39   22   46 1
  40   22   47 1
  41   23   24 1
  42   23   48 1
  43   23   49 1
  44   24   25 1
  45   24   50 1
  46   24   51 1
  47   25   26 1
  48   25   52 1
  49   25   53 1
  50   26   54 1
  51   26   55 1
  52   26   56 1
  53   27   28 2
  54   27   31 1
  55   28   29 1
  56   28   57 1
  57   29   30 ar
  58   29   35 ar
  59   30   31 1
  60   30   32 ar
  61   32   33 ar
  62   32   58 1
  63   33   34 ar
  64   33   59 1
  65   34   35 ar
  66   34   60 1
  67   35   61 1

#	End of record

