#	Name: ASD01310039
#	Creating user name:	WinNT
#	Creation time:	15. 06. 2019 19:15

#	Modifying user name:	WinNT
#	Modification time:	15. 06. 2019 19:15

#	Program:	/corina/corina34_cracker 3.40 0067  02.08.2006

@<TRIPOS>MOLECULE
ASD01310039
  45   50    0    0    0
SMALL
NO_CHARGES


@<TRIPOS>ATOM
   1 C1            -0.0182     1.4941     0.0103 C.3     
   2 C2             0.0021    -0.0041     0.0020 C.ar    
   3 C3             0.0724    -0.7476     1.1747 C.ar    
   4 C4            -0.2299     1.2622     2.4840 C.2     
   5 C5            -0.0447    -0.6727    -1.2115 C.ar    
   6 C6            -0.0022    -2.0522    -1.2532 C.ar    
   7 C7             0.0896    -2.7848    -0.0843 C.ar    
   8 C8             0.1274    -2.1303     1.1326 C.ar    
   9 N9             1.4422     3.2240     0.8785 N.am    
  10 C10            1.4189     2.0455    -0.0005 C.3     
  11 C11           -0.6327     2.0891     1.2913 C.3     
  12 C12            0.0796     3.4615     1.3868 C.3     
  13 N13            0.0793    -0.0652     2.3955 N.pl3   
  14 C14            0.3719    -0.5017     3.6486 C.2     
  15 C15            0.2512     0.5656     4.4666 C.2     
  16 N16           -0.1121     1.6260     3.7247 N.2     
  17 S17            2.7785     4.1337     1.2378 S.o2    
  18 O18            2.5069     4.7735     2.4772 O.2     
  19 O19            3.9046     3.2931     1.0274 O.2     
  20 C20            2.8793     5.4122     0.0295 C.ar    
  21 C21            3.5841     5.2010    -1.1410 C.ar    
  22 C22            2.2489     6.6223     0.2515 C.ar    
  23 C23            3.0413     7.4181    -1.8738 C.ar    
  24 C24            3.6660     6.2009    -2.0920 C.ar    
  25 C25            2.3264     7.6288    -0.6974 C.ar    
  26 O26            1.8051     8.8901    -0.7236 O.3     
  27 C27            2.5458     9.5912    -1.7399 C.3     
  28 O28            2.9673     8.5471    -2.6375 O.3     
  29 H29           -0.5598     1.8600    -0.8621 H       
  30 H30           -1.7155     2.1876     1.2151 H       
  31 H31           -0.1153    -0.1105    -2.1309 H       
  32 H32           -0.0412    -2.5619    -2.2045 H       
  33 H33            0.1323    -3.8633    -0.1219 H       
  34 H34            0.1990    -2.6969     2.0493 H       
  35 H35            2.1086     1.2896     0.3748 H       
  36 H36            1.6976     2.3337    -1.0141 H       
  37 H37            0.1155     3.7978     2.4230 H       
  38 H38           -0.4325     4.1974     0.7669 H       
  39 H39            0.6470    -1.5062     3.9344 H       
  40 H40            0.4173     0.5670     5.5337 H       
  41 H41            4.0720     4.2529    -1.3126 H       
  42 H42            1.6954     6.7829     1.1648 H       
  43 H43            4.2175     6.0333    -3.0053 H       
  44 H44            1.9049    10.3053    -2.2571 H       
  45 H45            3.4095    10.0947    -1.3057 H       
@<TRIPOS>BOND
   1    1    2 1
   2    1   10 1
   3    1   11 1
   4    1   29 1
   5    2    3 ar
   6    2    5 ar
   7    3   13 1
   8    3    8 ar
   9    4   11 1
  10    4   16 2
  11    4   13 1
  12    5    6 ar
  13    5   31 1
  14    6    7 ar
  15    6   32 1
  16    7    8 ar
  17    7   33 1
  18    8   34 1
  19    9   10 1
  20    9   12 1
  21    9   17 am
  22   10   35 1
  23   10   36 1
  24   11   12 1
  25   11   30 1
  26   12   37 1
  27   12   38 1
  28   13   14 1
  29   14   15 2
  30   14   39 1
  31   15   16 1
  32   15   40 1
  33   17   18 2
  34   17   19 2
  35   17   20 1
  36   20   22 ar
  37   20   21 ar
  38   21   24 ar
  39   21   41 1
  40   22   25 ar
  41   22   42 1
  42   23   24 ar
  43   23   28 1
  44   23   25 ar
  45   24   43 1
  46   25   26 1
  47   26   27 1
  48   27   28 1
  49   27   44 1
  50   27   45 1

#	End of record

