#	Name: ASD03731337
#	Creating user name:	WinNT
#	Creation time:	15. 06. 2019 20:45

#	Modifying user name:	WinNT
#	Modification time:	15. 06. 2019 20:45

#	Program:	/corina/corina34_cracker 3.40 0067  02.08.2006

@<TRIPOS>MOLECULE
ASD03731337
  67   73    0    0    0
SMALL
NO_CHARGES


@<TRIPOS>ATOM
   1 C1            -0.0180     1.4742     0.0101 C.2     
   2 C2             0.0021    -0.0041     0.0020 C.ar    
   3 C3             1.2184    -0.6885    -0.0133 C.ar    
   4 C4             1.2301    -2.0680    -0.0203 C.ar    
   5 C5             0.0396    -2.7730    -0.0127 C.ar    
   6 C6            -1.1695    -2.1007     0.0024 C.ar    
   7 C7            -1.1952    -0.7214     0.0154 C.ar    
   8 O8             1.0263     2.0963     0.0035 O.2     
   9 N9            -1.1942     2.1322     0.0193 N.am    
  10 C10           -1.2141     3.5970     0.0274 C.3     
  11 C11           -2.6633     4.0874     0.0369 C.3     
  12 N12           -2.6833     5.5562     0.0450 N.3     
  13 C13           -4.0470     6.0674    -0.1848 C.3     
  14 C14           -4.4029     6.9746     1.0118 C.3     
  15 C15           -3.0128     7.3793     1.5691 C.3     
  16 C16           -2.1933     6.0856     1.3355 C.3     
  17 C17            0.0601    -4.2798    -0.0215 C.3     
  18 O18           -2.0563    -1.5348     6.2775 O.3     
  19 C19           -2.2837    -1.6203     7.6967 C.3     
  20 O20           -2.7818    -2.9582     7.8836 O.3     
  21 C21           -2.2564    -3.6908     6.8579 C.ar    
  22 C22           -1.8113    -2.8150     5.8702 C.ar    
  23 C23           -2.1186    -5.0563     6.6848 C.ar    
  24 C24           -1.5385    -5.5652     5.5267 C.ar    
  25 C25           -1.1053    -4.6808     4.5435 C.ar    
  26 C26           -1.2356    -3.3185     4.7159 C.ar    
  27 O27           -1.2955    -6.8588     5.1692 O.3     
  28 C28           -0.5594    -5.5216     3.4206 C.3     
  29 C29           -1.0841    -6.9267     3.7458 C.3     
  30 N30            0.0802    -4.7759     1.3568 N.am    
  31 C31           -1.0278    -5.0465     2.0754 C.2     
  32 C32            0.9387    -5.4848     3.3560 C.ar    
  33 C33            1.9375    -5.7964     4.2513 C.ar    
  34 C34            3.2644    -5.6548     3.8860 C.ar    
  35 C35            3.5850    -5.1990     2.6202 C.ar    
  36 C36            2.5881    -4.8847     1.7202 C.ar    
  37 C37            1.2497    -5.0246     2.0792 C.ar    
  38 O38           -2.1775    -4.9294     1.7074 O.2     
  39 H39            2.1484    -0.1393    -0.0199 H       
  40 H40            2.1706    -2.5988    -0.0321 H       
  41 H41           -2.0953    -2.6569     0.0083 H       
  42 H42           -2.1396    -0.1978     0.0318 H       
  43 H43           -2.0276     1.6358     0.0206 H       
  44 H44           -0.7010     3.9625     0.9169 H       
  45 H45           -0.7094     3.9721    -0.8630 H       
  46 H46           -3.1764     3.7219    -0.8527 H       
  47 H47           -3.1680     3.7122     0.9273 H       
  48 H48           -4.0759     6.6445    -1.1091 H       
  49 H49           -4.7499     5.2362    -0.2419 H       
  50 H50           -4.9552     7.8532     0.6785 H       
  51 H51           -4.9715     6.4212     1.7592 H       
  52 H52           -2.5942     8.2136     1.0063 H       
  53 H53           -3.0721     7.6174     2.6311 H       
  54 H54           -2.3797     5.3687     2.1351 H       
  55 H55           -1.1299     6.3164     1.2718 H       
  56 H56           -0.8299    -4.6523    -0.5288 H       
  57 H57            0.9498    -4.6281    -0.5460 H       
  58 H58           -1.3511    -1.4791     8.2431 H       
  59 H59           -3.0272    -0.8875     8.0102 H       
  60 H60           -2.4636    -5.7319     7.4534 H       
  61 H61           -0.8881    -2.6428     3.9484 H       
  62 H62           -0.3397    -7.6843     3.5007 H       
  63 H63           -2.0214    -7.1203     3.2241 H       
  64 H64            1.6849    -6.1520     5.2393 H       
  65 H65            4.0481    -5.9000     4.5876 H       
  66 H66            4.6208    -5.0884     2.3351 H       
  67 H67            2.8463    -4.5288     0.7338 H       
@<TRIPOS>BOND
   1    1    2 1
   2    1    8 2
   3    1    9 am
   4    2    3 ar
   5    2    7 ar
   6    3    4 ar
   7    3   39 1
   8    4    5 ar
   9    4   40 1
  10    5    6 ar
  11    5   17 1
  12    6    7 ar
  13    6   41 1
  14    7   42 1
  15    9   10 1
  16    9   43 1
  17   10   11 1
  18   10   44 1
  19   10   45 1
  20   11   12 1
  21   11   46 1
  22   11   47 1
  23   12   13 1
  24   12   16 1
  25   13   14 1
  26   13   48 1
  27   13   49 1
  28   14   15 1
  29   14   50 1
  30   14   51 1
  31   15   16 1
  32   15   52 1
  33   15   53 1
  34   16   54 1
  35   16   55 1
  36   17   30 1
  37   17   56 1
  38   17   57 1
  39   18   19 1
  40   18   22 1
  41   19   20 1
  42   19   58 1
  43   19   59 1
  44   20   21 1
  45   21   22 ar
  46   21   23 ar
  47   22   26 ar
  48   23   24 ar
  49   23   60 1
  50   24   25 ar
  51   24   27 1
  52   25   26 ar
  53   25   28 1
  54   26   61 1
  55   27   29 1
  56   28   29 1
  57   28   31 1
  58   28   32 1
  59   29   62 1
  60   29   63 1
  61   30   31 am
  62   30   37 1
  63   31   38 2
  64   32   33 ar
  65   32   37 ar
  66   33   34 ar
  67   33   64 1
  68   34   35 ar
  69   34   65 1
  70   35   36 ar
  71   35   66 1
  72   36   37 ar
  73   36   67 1

#	End of record

