#	Name: ASD01411051
#	Creating user name:	WinNT
#	Creation time:	15. 06. 2019 19:19

#	Modifying user name:	WinNT
#	Modification time:	15. 06. 2019 19:19

#	Program:	/corina/corina34_cracker 3.40 0067  02.08.2006

@<TRIPOS>MOLECULE
ASD01411051
  27   28    0    0    0
SMALL
NO_CHARGES


@<TRIPOS>ATOM
   1 C1            -0.1819     1.7698    -0.8503 C.2     
   2 S2            -0.0928     0.0138    -0.6282 S.3     
   3 C3            -1.8208    -0.1713    -0.2677 C.2     
   4 C4            -2.3511     1.1960    -0.3513 C.2     
   5 N5            -1.4557     2.1239    -0.6455 N.am    
   6 O6            -3.5243     1.4560    -0.1592 O.2     
   7 S7             1.1158     2.8146    -1.2445 S.2     
   8 C8            -2.4961    -1.3124     0.0184 C.2     
   9 C9            -1.8252    -2.6141    -0.1058 C.ar    
  10 C10           -1.8582     3.5281    -0.7582 C.3     
  11 C11           -2.3251    -3.7303     0.5741 C.ar    
  12 C12           -1.6911    -4.9484     0.4527 C.ar    
  13 C13           -0.5618    -5.0697    -0.3400 C.ar    
  14 C14           -0.0600    -3.9683    -1.0172 C.ar    
  15 C15           -0.6868    -2.7446    -0.9095 C.ar    
  16 Cl16           1.3561    -4.1320    -2.0079 Cl      
  17 Cl17           0.2298    -6.6078    -0.4861 Cl      
  18 C18           -1.7344     4.1957     0.5871 C.2     
  19 O19           -1.3494     3.5634     1.5421 O.2     
  20 O20           -2.0517     5.4926     0.7245 O.3     
  21 H21           -3.5267    -1.2643     0.3376 H       
  22 H22           -1.2128     4.0345    -1.4759 H       
  23 H23           -2.8925     3.5834    -1.0975 H       
  24 H24           -3.2053    -3.6376     1.1930 H       
  25 H25           -2.0759    -5.8104     0.9774 H       
  26 H26           -0.2955    -1.8875    -1.4374 H       
  27 H27           -1.9562     5.8769     1.6067 H       
@<TRIPOS>BOND
   1    1    2 1
   2    1    7 2
   3    1    5 am
   4    2    3 1
   5    3    4 1
   6    3    8 2
   7    4    5 am
   8    4    6 2
   9    5   10 1
  10    8    9 1
  11    8   21 1
  12    9   11 ar
  13    9   15 ar
  14   10   18 1
  15   10   22 1
  16   10   23 1
  17   11   12 ar
  18   11   24 1
  19   12   13 ar
  20   12   25 1
  21   13   14 ar
  22   13   17 1
  23   14   15 ar
  24   14   16 1
  25   15   26 1
  26   18   19 2
  27   18   20 1
  28   20   27 1

#	End of record

