#	Name: ASD01810005
#	Creating user name:	WinNT
#	Creation time:	15. 06. 2019 19:23

#	Modifying user name:	WinNT
#	Modification time:	15. 06. 2019 19:23

#	Program:	/corina/corina34_cracker 3.40 0067  02.08.2006

@<TRIPOS>MOLECULE
ASD01810005
  43   47    0    0    0
SMALL
NO_CHARGES


@<TRIPOS>ATOM
   1 N1             0.2210     1.4150    -1.0354 N.am    
   2 C2             0.3130     0.0880    -1.2776 C.2     
   3 C3            -0.6850    -0.5406    -2.2194 C.3     
   4 C4            -2.1097    -0.0311    -2.0152 C.3     
   5 C5            -2.1285     1.4676    -1.8824 C.ar    
   6 C6            -0.9752     2.0564    -1.3788 C.ar    
   7 C7            -3.1834     2.2740    -2.2153 C.ar    
   8 C8            -3.0960     3.6566    -2.0239 C.ar    
   9 C9            -1.9644     4.2308    -1.4893 C.ar    
  10 C10           -0.8737     3.4233    -1.1474 C.ar    
  11 C11            1.0693     2.3398    -0.4959 C.ar    
  12 C12            0.4453     3.6130    -0.5476 C.ar    
  13 C13            1.0959     4.7653    -0.0698 C.ar    
  14 C14            2.3789     4.5912     0.4647 C.ar    
  15 C15            2.9736     3.3486     0.5169 C.ar    
  16 C16            2.3461     2.2050     0.0473 C.ar    
  17 C17           -4.2847     4.4900    -2.4310 C.3     
  18 N18           -4.2338     5.8093    -1.7950 N.3     
  19 C19           -2.9350     6.4503    -2.0557 C.3     
  20 C20           -1.8635     5.7148    -1.2509 C.3     
  21 O21            1.1766    -0.5808    -0.7512 O.2     
  22 C22            0.4577     6.0932    -0.1293 C.2     
  23 O23            0.7873     6.9558    -1.1107 O.3     
  24 O24           -0.3654     6.4096     0.7066 O.2     
  25 C25            0.1192     8.2450    -1.1071 C.3     
  26 H26           -0.3809    -0.3282    -3.2444 H       
  27 H27           -0.6748    -1.6203    -2.0706 H       
  28 H28           -2.7208    -0.3230    -2.8693 H       
  29 H29           -2.5235    -0.4764    -1.1105 H       
  30 H30           -4.0839     1.8422    -2.6264 H       
  31 H31            2.9141     5.4493     0.8438 H       
  32 H32            3.9635     3.2627     0.9402 H       
  33 H33            2.8316     1.2416     0.0982 H       
  34 H34           -4.2829     4.6131    -3.5141 H       
  35 H35           -5.2002     3.9811    -2.1296 H       
  36 H36           -4.9945     6.3923    -2.1103 H       
  37 H37           -2.7022     6.3889    -3.1188 H       
  38 H38           -2.9729     7.4951    -1.7476 H       
  39 H39           -2.0036     5.9208    -0.1897 H       
  40 H40           -0.8776     6.0640    -1.5578 H       
  41 H41           -0.9569     8.0968    -1.1967 H       
  42 H42            0.3380     8.7650    -0.1745 H       
  43 H43            0.4751     8.8410    -1.9475 H       
@<TRIPOS>BOND
   1    1    2 am
   2    1   11 1
   3    1    6 1
   4    2    3 1
   5    2   21 2
   6    3    4 1
   7    3   26 1
   8    3   27 1
   9    4    5 1
  10    4   28 1
  11    4   29 1
  12    5    6 ar
  13    5    7 ar
  14    6   10 ar
  15    7    8 ar
  16    7   30 1
  17    8    9 ar
  18    8   17 1
  19    9   10 ar
  20    9   20 1
  21   10   12 1
  22   11   12 ar
  23   11   16 ar
  24   12   13 ar
  25   13   14 ar
  26   13   22 1
  27   14   15 ar
  28   14   31 1
  29   15   16 ar
  30   15   32 1
  31   16   33 1
  32   17   18 1
  33   17   34 1
  34   17   35 1
  35   18   19 1
  36   18   36 1
  37   19   20 1
  38   19   37 1
  39   19   38 1
  40   20   39 1
  41   20   40 1
  42   22   23 1
  43   22   24 2
  44   23   25 1
  45   25   41 1
  46   25   42 1
  47   25   43 1

#	End of record

