#	Name: ASD01209156
#	Creating user name:	WinNT
#	Creation time:	15. 06. 2019 19:11

#	Modifying user name:	WinNT
#	Modification time:	15. 06. 2019 19:11

#	Program:	/corina/corina34_cracker 3.40 0067  02.08.2006

@<TRIPOS>MOLECULE
ASD01209156
  63   65    0    0    0
SMALL
NO_CHARGES


@<TRIPOS>ATOM
   1 O1             0.2708    -1.6804    -2.1394 O.3     
   2 O2             1.8380    -0.9615    -0.1546 O.3     
   3 C3             2.0138     6.4405    -8.0405 C.ar    
   4 C4             1.3431     6.7473    -9.2153 C.ar    
   5 C5             0.1266     6.1442    -9.5023 C.ar    
   6 C6            -0.4225     5.2321    -8.6162 C.ar    
   7 C7             0.2490     4.9207    -7.4332 C.ar    
   8 C8             1.4741     5.5258    -7.1511 C.ar    
   9 O9            -0.5268     6.4489   -10.6542 O.3     
  10 C10           -1.4273     7.4662   -10.6269 C.ar    
  11 C11           -0.3336     3.9486    -6.4841 C.2     
  12 N12            0.3166     3.6492    -5.3421 N.am    
  13 O13           -1.3990     3.4193    -6.7336 O.2     
  14 C14           -0.2308     2.7359    -4.4503 C.2     
  15 P15            1.1867    -0.4943    -1.5509 P.3     
  16 O16            2.2633    -0.1772    -2.5157 O.2     
  17 C17            0.1603     0.9872    -1.2771 C.3     
  18 N18            0.3102     2.3784    -3.3277 N.2     
  19 S19           -1.7198     1.9248    -4.6698 S.3     
  20 C20           -1.5042     1.0910    -3.1329 C.2     
  21 C21           -0.3497     1.4966    -2.6005 C.2     
  22 C22            0.8019    -2.9397    -2.5570 C.3     
  23 C23           -0.3352    -3.8307    -3.0610 C.3     
  24 C24            2.7779    -2.0332    -0.0542 C.3     
  25 C25            3.1930    -2.2123     1.4075 C.3     
  26 O26            3.2048     7.0340    -7.7643 O.3     
  27 C27            3.7059     7.9626    -8.7280 C.3     
  28 C28           -2.1967     7.7436   -11.7478 C.ar    
  29 C29           -3.1117     8.7780   -11.7173 C.ar    
  30 C30           -3.2612     9.5368   -10.5710 C.ar    
  31 C31           -2.4957     9.2625    -9.4527 C.ar    
  32 C32           -1.5830     8.2258    -9.4762 C.ar    
  33 S33           -4.4288    10.8559   -10.5357 S.o2    
  34 O34           -3.9175    11.7503    -9.5570 O.2     
  35 O35           -4.5531    11.2504   -11.8951 O.2     
  36 C36           -5.9645    10.0855    -9.9535 C.3     
  37 H37            1.7687     7.4578    -9.9085 H       
  38 H38           -1.3694     4.7635    -8.8401 H       
  39 H39            1.9970     5.2876    -6.2366 H       
  40 H40            1.1668     4.0716    -5.1430 H       
  41 H41           -0.6837     0.7312    -0.6366 H       
  42 H42            0.7595     1.7606    -0.7966 H       
  43 H43           -2.1885     0.3785    -2.6963 H       
  44 H44            1.5228    -2.7820    -3.3592 H       
  45 H45            1.2960    -3.4231    -1.7142 H       
  46 H46           -1.0561    -3.9884    -2.2588 H       
  47 H47           -0.8293    -3.3473    -3.9038 H       
  48 H48            0.0699    -4.7913    -3.3795 H       
  49 H49            2.3200    -2.9533    -0.4172 H       
  50 H50            3.6571    -1.8029    -0.6559 H       
  51 H51            3.6508    -1.2922     1.7706 H       
  52 H52            2.3138    -2.4426     2.0092 H       
  53 H53            3.9099    -3.0297     1.4841 H       
  54 H54            4.6604     8.3621    -8.3855 H       
  55 H55            3.8457     7.4556    -9.6827 H       
  56 H56            2.9936     8.7786    -8.8508 H       
  57 H57           -2.0800     7.1515   -12.6435 H       
  58 H58           -3.7105     8.9945   -12.5896 H       
  59 H59           -2.6142     9.8568    -8.5588 H       
  60 H60           -0.9853     8.0120    -8.6025 H       
  61 H61           -5.8039     9.6576    -8.9640 H       
  62 H62           -6.7512    10.8381    -9.9006 H       
  63 H63           -6.2612     9.2979   -10.6462 H       
@<TRIPOS>BOND
   1    1   22 1
   2    1   15 1
   3    2   24 1
   4    2   15 1
   5    3    4 ar
   6    3   26 1
   7    3    8 ar
   8    4    5 ar
   9    4   37 1
  10    5    6 ar
  11    5    9 1
  12    6    7 ar
  13    6   38 1
  14    7    8 ar
  15    7   11 1
  16    8   39 1
  17    9   10 1
  18   10   28 ar
  19   10   32 ar
  20   11   12 am
  21   11   13 2
  22   12   14 1
  23   12   40 1
  24   14   18 2
  25   14   19 1
  26   15   16 2
  27   15   17 1
  28   17   21 1
  29   17   41 1
  30   17   42 1
  31   18   21 1
  32   19   20 1
  33   20   21 2
  34   20   43 1
  35   22   23 1
  36   22   44 1
  37   22   45 1
  38   23   46 1
  39   23   47 1
  40   23   48 1
  41   24   25 1
  42   24   49 1
  43   24   50 1
  44   25   51 1
  45   25   52 1
  46   25   53 1
  47   26   27 1
  48   27   54 1
  49   27   55 1
  50   27   56 1
  51   28   29 ar
  52   28   57 1
  53   29   30 ar
  54   29   58 1
  55   30   31 ar
  56   30   33 1
  57   31   32 ar
  58   31   59 1
  59   32   60 1
  60   33   34 2
  61   33   35 2
  62   33   36 1
  63   36   61 1
  64   36   62 1
  65   36   63 1

#	End of record

