#	Name: ASD04560035
#	Creating user name:	WinNT
#	Creation time:	15. 06. 2019 20:49

#	Modifying user name:	WinNT
#	Modification time:	15. 06. 2019 20:49

#	Program:	/corina/corina34_cracker 3.40 0067  02.08.2006

@<TRIPOS>MOLECULE
ASD04560035
  46   49    0    0    0
SMALL
NO_CHARGES


@<TRIPOS>ATOM
   1 C1            -0.0173     1.3666     0.0244 C.ar    
   2 C2             0.0010    -0.0041     0.0241 C.ar    
   3 C3             1.2157    -0.6859     0.0136 C.ar    
   4 C4             2.4151     0.0225     0.0039 C.ar    
   5 C5             2.4031     1.3933     0.0042 C.ar    
   6 C6             1.1852     2.0805     0.0143 C.ar    
   7 C7             1.1690     3.5549     0.0141 C.2     
   8 O8             2.2154     4.1746     0.0053 O.2     
   9 N9            -0.0055     4.2159     0.0238 N.am    
  10 C10           -0.0226     5.6108     0.1367 C.ar    
  11 C11           -0.9921     6.3504    -0.5279 C.ar    
  12 C12            0.9079     7.6335     1.0278 C.ar    
  13 C13            0.9265     6.2569     0.9179 C.ar    
  14 F14           -0.0727     9.7160     0.4686 F       
  15 S15            1.2351    -2.4478     0.0132 S.3     
  16 C16           -1.0071     7.7268    -0.4152 C.ar    
  17 C17           -0.0563     8.3694     0.3597 C.ar    
  18 C18            3.1932    -4.3318    -0.0038 C.ar    
  19 C19            3.2683    -5.0164    -1.2030 C.ar    
  20 C20            3.4447    -6.3862    -1.2079 C.ar    
  21 C21            3.5467    -7.0759    -0.0073 C.ar    
  22 C22            3.4709    -6.3859     1.1951 C.ar    
  23 C23            3.2944    -5.0160     1.1936 C.ar    
  24 C24            3.0069    -2.8364    -0.0020 C.3     
  25 N25            3.7254    -8.4666    -0.0090 N.pl3   
  26 N26            3.8302    -9.1909     1.0484 N.2     
  27 C27            3.9865   -10.4447     0.6871 C.2     
  28 C28            3.9705   -10.4450    -0.7102 C.2     
  29 N29            3.8012    -9.1919    -1.0682 N.2     
  30 H30           -0.9594     1.8947     0.0280 H       
  31 H31           -0.9274    -0.5560     0.0322 H       
  32 H32            3.3553    -0.5088    -0.0035 H       
  33 H33            3.3333     1.9420    -0.0029 H       
  34 H34           -0.8390     3.7249    -0.0474 H       
  35 H35           -1.7336     5.8496    -1.1326 H       
  36 H36            1.6459     8.1363     1.6353 H       
  37 H37            1.6784     5.6833     1.4393 H       
  38 H38           -1.7607     8.3024    -0.9321 H       
  39 H39            3.1885    -4.4793    -2.1366 H       
  40 H40            3.5029    -6.9204    -2.1448 H       
  41 H41            3.5496    -6.9197     2.1306 H       
  42 H42            3.2357    -4.4786     2.1286 H       
  43 H43            3.4643    -2.4122    -0.8959 H       
  44 H44            3.4794    -2.4125     0.8840 H       
  45 H45            4.1039   -11.2994     1.3368 H       
  46 H46            4.0729   -11.3000    -1.3620 H       
@<TRIPOS>BOND
   1    1    2 ar
   2    1    6 ar
   3    1   30 1
   4    2    3 ar
   5    2   31 1
   6    3    4 ar
   7    3   15 1
   8    4    5 ar
   9    4   32 1
  10    5    6 ar
  11    5   33 1
  12    6    7 1
  13    7    8 2
  14    7    9 am
  15    9   10 1
  16    9   34 1
  17   10   11 ar
  18   10   13 ar
  19   11   16 ar
  20   11   35 1
  21   12   13 ar
  22   12   17 ar
  23   12   36 1
  24   13   37 1
  25   14   17 1
  26   15   24 1
  27   16   17 ar
  28   16   38 1
  29   18   19 ar
  30   18   23 ar
  31   18   24 1
  32   19   20 ar
  33   19   39 1
  34   20   21 ar
  35   20   40 1
  36   21   22 ar
  37   21   25 1
  38   22   23 ar
  39   22   41 1
  40   23   42 1
  41   24   43 1
  42   24   44 1
  43   25   26 1
  44   25   29 1
  45   26   27 2
  46   27   28 1
  47   27   45 1
  48   28   29 2
  49   28   46 1

#	End of record

