#	Name: ASD09740010
#	Creating user name:	WinNT
#	Creation time:	15. 06. 2019 21:22

#	Modifying user name:	WinNT
#	Modification time:	15. 06. 2019 21:22

#	Program:	/corina/corina34_cracker 3.40 0067  02.08.2006

@<TRIPOS>MOLECULE
ASD09740010
  48   51    0    0    0
SMALL
NO_CHARGES


@<TRIPOS>ATOM
   1 N1            -0.0144     1.2085     0.0087 N.2     
   2 O2             0.0021    -0.0041     0.0020 O.3     
   3 C3             1.2061     1.6798    -0.0004 C.2     
   4 N4             2.0457     0.6235    -0.0141 N.2     
   5 C5             1.2698    -0.4440    -0.0125 C.2     
   6 C6             1.7125    -1.8545    -0.0235 C.ar    
   7 C7             0.7708    -2.8847    -0.0202 C.ar    
   8 C8             3.0738    -2.1617    -0.0431 C.ar    
   9 C9             3.4802    -3.4801    -0.0533 C.ar    
  10 C10            2.5417    -4.4966    -0.0446 C.ar    
  11 C11            1.1906    -4.1988    -0.0305 C.ar    
  12 C12            1.5955     3.1123     0.0028 C.ar    
  13 C13            0.6160     4.1029     0.0172 C.ar    
  14 C14            0.9836     5.4333     0.0201 C.ar    
  15 C15            2.3216     5.7838     0.0083 C.ar    
  16 C16            3.2981     4.8043    -0.0065 C.ar    
  17 C17            2.9417     3.4708    -0.0028 C.ar    
  18 S18            2.7837     7.4841     0.0115 S.o2    
  19 O19            4.0894     7.5461    -0.5458 O.2     
  20 O20            1.6775     8.2015    -0.5186 O.2     
  21 N21            2.9281     7.9498     1.5941 N.am    
  22 C22            2.9929    -5.9344    -0.0563 C.3     
  23 C23            2.4744    -6.6419     1.1973 C.3     
  24 C24            2.9326    -8.1016     1.1854 C.3     
  25 C25            2.3803    -8.7993    -0.0593 C.3     
  26 C26            2.8988    -8.0918    -1.3129 C.3     
  27 C27            2.4406    -6.6321    -1.3010 C.3     
  28 H28           -0.2841    -2.6536    -0.0091 H       
  29 H29            3.8074    -1.3692    -0.0507 H       
  30 H30            4.5333    -3.7192    -0.0685 H       
  31 H31            0.4630    -4.9969    -0.0234 H       
  32 H32           -0.4290     3.8303     0.0257 H       
  33 H33            0.2251     6.2021     0.0313 H       
  34 H34            4.3414     5.0834    -0.0160 H       
  35 H35            3.7050     2.7068    -0.0140 H       
  36 H36            3.5558     8.6476     1.8389 H       
  37 H37            2.3850     7.5248     2.2762 H       
  38 H38            4.0821    -5.9732    -0.0712 H       
  39 H39            2.8679    -6.1448     2.0840 H       
  40 H40            1.3852    -6.6030     1.2122 H       
  41 H41            4.0218    -8.1405     1.1705 H       
  42 H42            2.5632    -8.6056     2.0785 H       
  43 H43            2.7067    -9.8393    -0.0677 H       
  44 H44            1.2911    -8.7605    -0.0444 H       
  45 H45            3.9880    -8.1307    -1.3278 H       
  46 H46            2.5053    -8.5889    -2.1996 H       
  47 H47            1.3514    -6.5932    -1.2861 H       
  48 H48            2.8100    -6.1281    -2.1941 H       
@<TRIPOS>BOND
   1    1    2 1
   2    1    3 2
   3    2    5 1
   4    3    4 1
   5    3   12 1
   6    4    5 2
   7    5    6 1
   8    6    7 ar
   9    6    8 ar
  10    7   11 ar
  11    7   28 1
  12    8    9 ar
  13    8   29 1
  14    9   10 ar
  15    9   30 1
  16   10   11 ar
  17   10   22 1
  18   11   31 1
  19   12   13 ar
  20   12   17 ar
  21   13   14 ar
  22   13   32 1
  23   14   15 ar
  24   14   33 1
  25   15   16 ar
  26   15   18 1
  27   16   17 ar
  28   16   34 1
  29   17   35 1
  30   18   19 2
  31   18   20 2
  32   18   21 am
  33   21   36 1
  34   21   37 1
  35   22   23 1
  36   22   27 1
  37   22   38 1
  38   23   24 1
  39   23   39 1
  40   23   40 1
  41   24   25 1
  42   24   41 1
  43   24   42 1
  44   25   26 1
  45   25   43 1
  46   25   44 1
  47   26   27 1
  48   26   45 1
  49   26   46 1
  50   27   47 1
  51   27   48 1

#	End of record

