#	Name: ASD03950041
#	Creating user name:	WinNT
#	Creation time:	15. 06. 2019 20:48

#	Modifying user name:	WinNT
#	Modification time:	15. 06. 2019 20:48

#	Program:	/corina/corina34_cracker 3.40 0067  02.08.2006

@<TRIPOS>MOLECULE
ASD03950041
  56   59    0    0    0
SMALL
NO_CHARGES


@<TRIPOS>ATOM
   1 N1            -0.0169     1.3942     0.0097 N.pl3   
   2 N2             0.0021    -0.0041     0.0020 N.2     
   3 C3             1.2311    -0.4341    -0.0120 C.2     
   4 C4             2.1093     0.7334    -0.0141 C.ar    
   5 C5             3.4967     0.8990    -0.0264 C.ar    
   6 C6             4.0411     2.1756    -0.0248 C.ar    
   7 C7             3.2112     3.2979    -0.0104 C.ar    
   8 C8             1.8299     3.1501     0.0024 C.ar    
   9 C9             1.2663     1.8606    -0.0000 C.ar    
  10 C10            0.9576     4.3398     0.0186 C.2     
  11 O11           -0.2510     4.2074     0.0298 O.2     
  12 N12            1.5005     5.5734     0.0209 N.am    
  13 C13            5.5152     2.3486    -0.0379 C.ar    
  14 C14            6.0688     3.6270    -0.0363 C.ar    
  15 C15            7.4423     3.7820    -0.0486 C.ar    
  16 C16            8.2665     2.6684    -0.0630 C.ar    
  17 C17            7.7202     1.3983    -0.0646 C.ar    
  18 C18            6.3497     1.2331    -0.0461 C.ar    
  19 F19            7.9815     5.0207    -0.0472 F       
  20 N20            1.2106    -4.6672    -0.0358 N.am    
  21 C21            1.6134    -4.0366     1.2286 C.3     
  22 C22            1.1378    -2.5804     1.2268 C.3     
  23 C23            1.6687    -1.8761    -0.0239 C.3     
  24 C24            1.1164    -2.5662    -1.2733 C.3     
  25 C25            1.5918    -4.0222    -1.2998 C.3     
  26 S26            0.3495    -6.0817    -0.0365 S.o2    
  27 O27            0.6710    -6.6871    -1.2812 O.2     
  28 O28            0.6973    -6.7043     1.1926 O.2     
  29 C29           -1.3862    -5.5549    -0.0144 C.3     
  30 C30           -2.2932    -6.7870    -0.0133 C.3     
  31 C31           -3.7572    -6.3427     0.0054 C.3     
  32 Cl32          -4.8260    -7.7947     0.0067 Cl      
  33 H33           -0.8151     1.9454     0.0166 H       
  34 H34            4.1444     0.0349    -0.0369 H       
  35 H35            3.6454     4.2867    -0.0089 H       
  36 H36            2.4646     5.6790     0.0120 H       
  37 H37            0.9269     6.3556     0.0315 H       
  38 H38            5.4262     4.4950    -0.0259 H       
  39 H39            9.3393     2.7928    -0.0733 H       
  40 H40            8.3670     0.5335    -0.0757 H       
  41 H41            5.9249     0.2402    -0.0424 H       
  42 H42            1.1578    -4.5687     2.0637 H       
  43 H43            2.6989    -4.0663     1.3223 H       
  44 H44            0.0481    -2.5535     1.2245 H       
  45 H45            1.5127    -2.0740     2.1162 H       
  46 H46            2.7576    -1.9251    -0.0336 H       
  47 H47            0.0269    -2.5395    -1.2520 H       
  48 H48            1.4761    -2.0498    -2.1632 H       
  49 H49            2.6756    -4.0508    -1.4123 H       
  50 H50            1.1219    -4.5449    -2.1329 H       
  51 H51           -1.5751    -4.9638     0.8818 H       
  52 H52           -1.5941    -4.9515    -0.8980 H       
  53 H53           -2.1043    -7.3780    -0.9094 H       
  54 H54           -2.0854    -7.3904     0.8704 H       
  55 H55           -3.9461    -5.7517     0.9016 H       
  56 H56           -3.9650    -5.7393    -0.8782 H       
@<TRIPOS>BOND
   1    1    2 1
   2    1    9 1
   3    1   33 1
   4    2    3 2
   5    3    4 1
   6    3   23 1
   7    4    5 ar
   8    4    9 ar
   9    5    6 ar
  10    5   34 1
  11    6    7 ar
  12    6   13 1
  13    7    8 ar
  14    7   35 1
  15    8    9 ar
  16    8   10 1
  17   10   11 2
  18   10   12 am
  19   12   36 1
  20   12   37 1
  21   13   14 ar
  22   13   18 ar
  23   14   15 ar
  24   14   38 1
  25   15   16 ar
  26   15   19 1
  27   16   17 ar
  28   16   39 1
  29   17   18 ar
  30   17   40 1
  31   18   41 1
  32   20   21 1
  33   20   25 1
  34   20   26 am
  35   21   22 1
  36   21   42 1
  37   21   43 1
  38   22   23 1
  39   22   44 1
  40   22   45 1
  41   23   24 1
  42   23   46 1
  43   24   25 1
  44   24   47 1
  45   24   48 1
  46   25   49 1
  47   25   50 1
  48   26   27 2
  49   26   28 2
  50   26   29 1
  51   29   30 1
  52   29   51 1
  53   29   52 1
  54   30   31 1
  55   30   53 1
  56   30   54 1
  57   31   32 1
  58   31   55 1
  59   31   56 1

#	End of record

