#	Name: ASD03090535
#	Creating user name:	WinNT
#	Creation time:	15. 06. 2019 20:29

#	Modifying user name:	WinNT
#	Modification time:	15. 06. 2019 20:29

#	Program:	/corina/corina34_cracker 3.40 0067  02.08.2006

@<TRIPOS>MOLECULE
ASD03090535
  43   46    0    0    0
SMALL
NO_CHARGES


@<TRIPOS>ATOM
   1 C1            -0.0088     1.5048     0.0105 C.2     
   2 C2             0.0130    -0.0021     0.0063 C.3     
   3 O3             1.0327     2.1264     0.0096 O.2     
   4 N4            -1.1856     2.1617     0.0096 N.am    
   5 N5             5.3437    -1.8036     0.2613 N.pl3   
   6 C6             5.5069    -1.8611     1.6186 C.2     
   7 C7             4.3756    -1.4792     2.2321 C.2     
   8 C8             3.4089    -1.1504     1.1818 C.ar    
   9 C9             2.0860    -0.7036     1.1856 C.ar    
  10 C10            1.4409    -0.4838     0.0014 C.ar    
  11 C11            2.0902    -0.7010    -1.2063 C.ar    
  12 C12            3.3949    -1.1421    -1.2331 C.ar    
  13 C13            4.0711    -1.3724    -0.0393 C.ar    
  14 C14           -2.1723     4.3023    -0.5390 C.ar    
  15 C15           -1.2087     3.5580     0.1257 C.ar    
  16 C16           -0.2643     4.2166     0.9105 C.ar    
  17 C17           -0.3257     5.5961     0.9962 C.ar    
  18 C18           -1.3194     6.2742     0.3022 C.ar    
  19 N19           -2.2000     5.6168    -0.4338 N.ar    
  20 O20           -1.3879     7.6276     0.3805 O.3     
  21 C21           -2.3064     8.2656    -0.3915 C.ar    
  22 C22           -3.6494     8.2323    -0.0443 C.ar    
  23 C23           -4.5815     8.8826    -0.8312 C.ar    
  24 C24           -4.1755     9.5659    -1.9643 C.ar    
  25 C25           -2.8379     9.6000    -2.3114 C.ar    
  26 C26           -1.9020     8.9563    -1.5248 C.ar    
  27 Cl27          -6.2621     8.8417    -0.3982 Cl      
  28 H28           -0.4933    -0.3752     0.8966 H       
  29 H29           -0.4978    -0.3704    -0.8834 H       
  30 H30           -2.0166     1.6680    -0.0713 H       
  31 H31            6.0245    -2.0291    -0.3918 H       
  32 H32            6.4117    -2.1684     2.1219 H       
  33 H33            4.2096    -1.4248     3.2979 H       
  34 H34            1.5742    -0.5333     2.1213 H       
  35 H35            1.5670    -0.5228    -2.1341 H       
  36 H36            3.8913    -1.3085    -2.1778 H       
  37 H37           -2.9053     3.8001    -1.1529 H       
  38 H38            0.4974     3.6632     1.4396 H       
  39 H39            0.3901     6.1390     1.5956 H       
  40 H40           -3.9662     7.6985     0.8395 H       
  41 H41           -4.9049    10.0729    -2.5785 H       
  42 H42           -2.5236    10.1335    -3.1962 H       
  43 H43           -0.8566     8.9872    -1.7943 H       
@<TRIPOS>BOND
   1    1    2 1
   2    1    3 2
   3    1    4 am
   4    2   10 1
   5    2   28 1
   6    2   29 1
   7    4   15 1
   8    4   30 1
   9    5    6 1
  10    5   13 1
  11    5   31 1
  12    6    7 2
  13    6   32 1
  14    7    8 1
  15    7   33 1
  16    8    9 ar
  17    8   13 ar
  18    9   10 ar
  19    9   34 1
  20   10   11 ar
  21   11   12 ar
  22   11   35 1
  23   12   13 ar
  24   12   36 1
  25   14   15 ar
  26   14   19 ar
  27   14   37 1
  28   15   16 ar
  29   16   17 ar
  30   16   38 1
  31   17   18 ar
  32   17   39 1
  33   18   19 ar
  34   18   20 1
  35   20   21 1
  36   21   22 ar
  37   21   26 ar
  38   22   23 ar
  39   22   40 1
  40   23   24 ar
  41   23   27 1
  42   24   25 ar
  43   24   41 1
  44   25   26 ar
  45   25   42 1
  46   26   43 1

#	End of record

