#	Name: ASD02198491
#	Creating user name:	WinNT
#	Creation time:	15. 06. 2019 20:19

#	Modifying user name:	WinNT
#	Modification time:	15. 06. 2019 20:19

#	Program:	/corina/corina34_cracker 3.40 0067  02.08.2006

@<TRIPOS>MOLECULE
ASD02198491
  42   45    0    0    0
SMALL
NO_CHARGES


@<TRIPOS>ATOM
   1 C1             0.0836     1.0094    -0.1357 C.2     
   2 C2             0.3437    -0.3195    -0.2213 C.2     
   3 N3             1.6157    -0.7782    -0.2231 N.pl3   
   4 N4             2.6404    -0.0120    -0.1461 N.2     
   5 C5             2.5301     1.2962    -0.0584 C.2     
   6 C6             1.1853     1.8941    -0.0488 C.2     
   7 C7             1.8238    -2.1589    -0.3130 C.ar    
   8 C8             3.3145    -4.0210    -0.5625 C.ar    
   9 C9             2.2357    -4.8911    -0.4908 C.ar    
  10 C10            0.9499    -4.3922    -0.3359 C.ar    
  11 C11            0.7437    -3.0304    -0.2471 C.ar    
  12 C12            3.7331     2.1486     0.0291 C.2     
  13 N13            4.8694     1.8789     0.7389 N.pl3   
  14 N14            5.7558     2.9459     0.5466 N.2     
  15 C15            5.1910     3.8256    -0.2415 C.2     
  16 C16            3.9234     3.3624    -0.5941 C.2     
  17 C17            5.1051     0.7397     1.5191 C.ar    
  18 C18            4.1053     0.2429     2.3449 C.ar    
  19 O19            1.0264     3.1031     0.0305 O.2     
  20 C20            3.1101    -2.6589    -0.4739 C.ar    
  21 C21            6.3371     0.1014     1.4640 C.ar    
  22 C22            6.5662    -1.0219     2.2342 C.ar    
  23 C23            5.5703    -1.5111     3.0595 C.ar    
  24 C24            4.3406    -0.8808     3.1126 C.ar    
  25 O25            2.4379    -6.2322    -0.5781 O.3     
  26 C26            1.2825    -7.0691    -0.4967 C.3     
  27 F27            0.6439    -6.8644     0.7311 F       
  28 F28            0.4033    -6.7530    -1.5380 F       
  29 H29           -0.9306     1.3803    -0.1384 H       
  30 H30           -0.4757    -1.0199    -0.2885 H       
  31 H31            4.3148    -4.4100    -0.6828 H       
  32 H32            0.1109    -5.0700    -0.2805 H       
  33 H33           -0.2569    -2.6423    -0.1261 H       
  34 H34            5.6347     4.7547    -0.5677 H       
  35 H35            3.2158     3.8676    -1.2347 H       
  36 H36            3.1448     0.7350     2.3870 H       
  37 H37            3.9497    -1.9819    -0.5301 H       
  38 H38            7.1152     0.4827     0.8194 H       
  39 H39            7.5241    -1.5190     2.1916 H       
  40 H40            5.7519    -2.3897     3.6608 H       
  41 H41            3.5648    -1.2652     3.7581 H       
  42 H42            1.5836    -8.1134    -0.5799 H       
@<TRIPOS>BOND
   1    1    2 2
   2    1    6 1
   3    1   29 1
   4    2    3 1
   5    2   30 1
   6    3    4 1
   7    3    7 1
   8    4    5 2
   9    5    6 1
  10    5   12 1
  11    6   19 2
  12    7   20 ar
  13    7   11 ar
  14    8    9 ar
  15    8   20 ar
  16    8   31 1
  17    9   10 ar
  18    9   25 1
  19   10   11 ar
  20   10   32 1
  21   11   33 1
  22   12   13 1
  23   12   16 2
  24   13   14 1
  25   13   17 1
  26   14   15 2
  27   15   16 1
  28   15   34 1
  29   16   35 1
  30   17   21 ar
  31   17   18 ar
  32   18   24 ar
  33   18   36 1
  34   20   37 1
  35   21   22 ar
  36   21   38 1
  37   22   23 ar
  38   22   39 1
  39   23   24 ar
  40   23   40 1
  41   24   41 1
  42   25   26 1
  43   26   27 1
  44   26   28 1
  45   26   42 1

#	End of record

