#	Name: ASD01810768
#	Creating user name:	WinNT
#	Creation time:	15. 06. 2019 19:25

#	Modifying user name:	WinNT
#	Modification time:	15. 06. 2019 19:25

#	Program:	/corina/corina34_cracker 3.40 0067  02.08.2006

@<TRIPOS>MOLECULE
ASD01810768
  19   19    0    0    0
SMALL
NO_CHARGES


@<TRIPOS>ATOM
   1 O1            -0.0175     1.4400     0.0100 O.3     
   2 C2             0.0021    -0.0041     0.0020 C.3     
   3 C3             1.1520    -0.3885     0.9592 C.3     
   4 C4             2.0729     0.8522     0.9571 C.3     
   5 C5             1.3704     1.8394    -0.0011 C.3     
   6 C6            -1.3078    -0.5493     0.5100 C.2     
   7 O7            -2.1649     0.2086     0.9123 O.2     
   8 N8            -1.5268    -1.8791     0.5172 N.am    
   9 N9            -2.7141    -2.3734     0.9776 N.3     
  10 H10            0.2045    -0.3753    -1.0026 H       
  11 H11            0.7676    -0.5771     1.9616 H       
  12 H12            1.6861    -1.2612     0.5835 H       
  13 H13            2.1438     1.2770     1.9584 H       
  14 H14            3.0622     0.5929     0.5803 H       
  15 H15            1.7827     1.7510    -1.0063 H       
  16 H16            1.4741     2.8613     0.3638 H       
  17 H17           -0.8412    -2.4853     0.1954 H       
  18 H18           -3.4920    -1.9694     0.4779 H       
  19 H19           -2.7324    -3.3806     0.9220 H       
@<TRIPOS>BOND
   1    1    2 1
   2    1    5 1
   3    2    3 1
   4    2    6 1
   5    2   10 1
   6    3    4 1
   7    3   11 1
   8    3   12 1
   9    4    5 1
  10    4   13 1
  11    4   14 1
  12    5   15 1
  13    5   16 1
  14    6    7 2
  15    6    8 am
  16    8    9 1
  17    8   17 1
  18    9   18 1
  19    9   19 1

#	End of record

