#	Name: ASD03091520
#	Creating user name:	WinNT
#	Creation time:	15. 06. 2019 20:30

#	Modifying user name:	WinNT
#	Modification time:	15. 06. 2019 20:30

#	Program:	/corina/corina34_cracker 3.40 0067  02.08.2006

@<TRIPOS>MOLECULE
ASD03091520
  40   42    0    0    0
SMALL
NO_CHARGES


@<TRIPOS>ATOM
   1 Cl1            0.0000     0.0000     0.0000 Cl      
   2 H2             0.0000     1.3700     0.0000 H       
   3 C3            14.5233    10.3500     6.5722 C.ar    
   4 C4            14.5423     8.9500     6.5645 C.ar    
   5 C5            15.7655     8.2697     6.5492 C.ar    
   6 C6            16.9469     8.9728     6.5417 C.ar    
   7 C7            16.9328    10.3624     6.5493 C.ar    
   8 C8            15.7573    11.0444     6.5641 C.ar    
   9 S9            12.8922     8.3383     6.5769 S.3     
  10 C10           12.2361     9.9658     6.5919 C.2     
  11 C11           13.2196    10.8712     6.5931 C.2     
  12 C12           10.8020    10.2890     6.6069 C.2     
  13 O13           10.4404    11.4505     6.6162 O.2     
  14 N14            9.8880     9.2986     6.6104 N.am    
  15 N15            6.9510     8.8766     8.4053 N.3     
  16 C16            7.9994     9.8489     8.0683 C.3     
  17 C17            8.4589     9.6207     6.6254 C.3     
  18 C18            7.6624     8.4523     6.0312 C.3     
  19 C19            6.1694     8.7999     6.0861 C.3     
  20 C20            5.7732     9.0502     7.5439 C.3     
  21 C21            7.4618     7.5010     8.3268 C.3     
  22 C22            7.9066     7.2061     6.8915 C.3     
  23 Br23          15.7932     6.3789     6.5394 Br      
  24 H24           17.8884     8.4438     6.5302 H       
  25 H25           17.8659    10.9061     6.5437 H       
  26 H26           15.7644    12.1243     6.5698 H       
  27 H27           13.0243    11.9334     6.6018 H       
  28 H28           10.1764     8.3725     6.6030 H       
  29 H29            7.6037    10.8596     8.1684 H       
  30 H30            8.8451     9.7206     8.7438 H       
  31 H31            8.2794    10.5213     6.0381 H       
  32 H32            7.9685     8.2760     5.0000 H       
  33 H33            5.9816     9.6977     5.4973 H       
  34 H34            5.5863     7.9702     5.6865 H       
  35 H35            5.0000     8.3404     7.8377 H       
  36 H36            5.3931    10.0664     7.6482 H       
  37 H37            8.3109     7.3893     9.0009 H       
  38 H38            6.6747     6.8038     8.6141 H       
  39 H39            7.3305     6.3700     6.4951 H       
  40 H40            8.9679     6.9579     6.8819 H       
@<TRIPOS>BOND
   1    1    2 1
   2    3    4 ar
   3    3    8 ar
   4    3   11 1
   5    4    5 ar
   6    4    9 1
   7    5    6 ar
   8    5   23 1
   9    6    7 ar
  10    6   24 1
  11    7    8 ar
  12    7   25 1
  13    8   26 1
  14    9   10 1
  15   10   11 2
  16   10   12 1
  17   11   27 1
  18   12   13 2
  19   12   14 am
  20   14   17 1
  21   14   28 1
  22   15   16 1
  23   15   20 1
  24   15   21 1
  25   16   17 1
  26   16   29 1
  27   16   30 1
  28   17   18 1
  29   17   31 1
  30   18   19 1
  31   18   22 1
  32   18   32 1
  33   19   20 1
  34   19   33 1
  35   19   34 1
  36   20   35 1
  37   20   36 1
  38   21   22 1
  39   21   37 1
  40   21   38 1
  41   22   39 1
  42   22   40 1

#	End of record

