#	Name: ASD01510058
#	Creating user name:	WinNT
#	Creation time:	15. 06. 2019 19:21

#	Modifying user name:	WinNT
#	Modification time:	15. 06. 2019 19:21

#	Program:	/corina/corina34_cracker 3.40 0067  02.08.2006

@<TRIPOS>MOLECULE
ASD01510058
  53   55    0    0    0
SMALL
NO_CHARGES


@<TRIPOS>ATOM
   1 C1             2.3574    -2.6598    -0.0319 C.2     
   2 C2             1.1965    -2.0101    -0.0205 C.2     
   3 C3            -0.0669    -2.7623    -0.0088 C.2     
   4 O4            -0.0506    -3.9783    -0.0095 O.2     
   5 N5            -1.2429    -2.1042     0.0026 N.am    
   6 C6            -2.4353    -2.8106    -0.0947 C.ar    
   7 C7            -3.6599    -2.1518     0.0238 C.ar    
   8 C8            -4.8213    -2.8946    -0.0795 C.ar    
   9 N9            -4.7392    -4.1999    -0.2864 N.ar    
  10 C10           -3.5617    -4.7995    -0.3949 C.ar    
  11 N11           -2.4261    -4.1219    -0.3072 N.ar    
  12 S12           -3.5053    -6.5391    -0.6694 S.3     
  13 C13           -5.2297    -6.8992    -0.7052 C.ar    
  14 C14           -5.9435    -6.8591    -1.9029 C.ar    
  15 O15           -5.3199    -6.5415    -3.0647 O.3     
  16 C16           -6.1218    -6.5225    -4.2473 C.3     
  17 N17           -7.2428    -7.1368    -1.8898 N.ar    
  18 C18           -7.8592    -7.4483    -0.7599 C.ar    
  19 N19           -7.2153    -7.4965     0.3962 N.ar    
  20 C20           -5.9137    -7.2371     0.4624 C.ar    
  21 O21           -5.2618    -7.2887     1.6507 O.3     
  22 C22           -6.0369    -7.6304     2.8016 C.3     
  23 N23           -9.2160    -7.7311    -0.7880 N.3     
  24 C24           -9.7152    -8.0521     0.5566 C.3     
  25 C25          -11.2240    -8.2990     0.4919 C.3     
  26 N26          -11.4996    -9.4093    -0.4294 N.4     
  27 C27          -11.0176    -9.0640    -1.7732 C.3     
  28 C28           -9.5070    -8.8234    -1.7273 C.3     
  29 O29          -10.8139   -10.6135     0.0398 O.3     
  30 C30          -12.9466    -9.6577    -0.4773 C.3     
  31 H31            3.2853    -2.1073    -0.0404 H       
  32 H32            2.3719    -3.7397    -0.0280 H       
  33 H33            1.1821    -0.9302    -0.0199 H       
  34 H34           -1.2569    -1.1373     0.0788 H       
  35 H35           -3.6995    -1.0858     0.1928 H       
  36 H36           -5.7853    -2.4154     0.0079 H       
  37 H37           -6.9200    -5.7889    -4.1333 H       
  38 H38           -5.5016    -6.2545    -5.1027 H       
  39 H39           -6.5556    -7.5094    -4.4081 H       
  40 H40           -6.8318    -6.8966     2.9352 H       
  41 H41           -6.4746    -8.6192     2.6644 H       
  42 H42           -5.3957    -7.6360     3.6829 H       
  43 H43           -9.2156    -8.9478     0.9257 H       
  44 H44           -9.5115    -7.2185     1.2287 H       
  45 H45          -11.5938    -8.5511     1.4857 H       
  46 H46          -11.7245    -7.3986     0.1357 H       
  47 H47          -11.2343    -9.8833    -2.4586 H       
  48 H48          -11.5191    -8.1596    -2.1178 H       
  49 H49           -9.1515    -8.5526    -2.7215 H       
  50 H50           -9.0040    -9.7318    -1.3958 H       
  51 H51          -13.4579    -8.7606    -0.8262 H       
  52 H52          -13.1513   -10.4817    -1.1609 H       
  53 H53          -13.3043    -9.9153     0.5196 H       
@<TRIPOS>BOND
   1    1    2 2
   2    1   31 1
   3    1   32 1
   4    2    3 1
   5    2   33 1
   6    3    4 2
   7    3    5 am
   8    5    6 1
   9    5   34 1
  10    6    7 ar
  11    6   11 ar
  12    7    8 ar
  13    7   35 1
  14    8    9 ar
  15    8   36 1
  16    9   10 ar
  17   10   11 ar
  18   10   12 1
  19   12   13 1
  20   13   14 ar
  21   13   20 ar
  22   14   15 1
  23   14   17 ar
  24   15   16 1
  25   16   37 1
  26   16   38 1
  27   16   39 1
  28   17   18 ar
  29   18   19 ar
  30   18   23 1
  31   19   20 ar
  32   20   21 1
  33   21   22 1
  34   22   40 1
  35   22   41 1
  36   22   42 1
  37   23   24 1
  38   23   28 1
  39   24   25 1
  40   24   43 1
  41   24   44 1
  42   25   26 1
  43   25   45 1
  44   25   46 1
  45   26   27 1
  46   26   29 1
  47   26   30 1
  48   27   28 1
  49   27   47 1
  50   27   48 1
  51   28   49 1
  52   28   50 1
  53   30   51 1
  54   30   52 1
  55   30   53 1

#	End of record

