#	Name: ASD07931651
#	Creating user name:	WinNT
#	Creation time:	15. 06. 2019 21:13

#	Modifying user name:	WinNT
#	Modification time:	15. 06. 2019 21:13

#	Program:	/corina/corina34_cracker 3.40 0067  02.08.2006

@<TRIPOS>MOLECULE
ASD07931651
  65   71    0    0    0
SMALL
NO_CHARGES


@<TRIPOS>ATOM
   1 C1            -0.1410     1.5003     0.0164 C.3     
   2 N2            -6.0861     2.5893    -8.0048 N.pl3   
   3 C3             1.9250     2.2937    -1.1663 C.ar    
   4 N4             1.3926     1.7997    -2.3628 N.am    
   5 N5             0.9650     0.4847    -2.5633 N.2     
   6 C6             0.5168     0.3180    -3.7745 C.2     
   7 C7             0.6412     1.6175    -4.4734 C.2     
   8 C8             1.2136     2.5275    -3.4861 C.2     
   9 O9             1.4822     3.7071    -3.6457 O.2     
  10 C10           -0.0473    -0.8086    -4.5415 C.ar    
  11 C11           -0.4280    -0.5819    -5.8740 C.ar    
  12 N12           -0.2734     0.6701    -6.4459 N.pl3   
  13 C13            0.2341     1.7198    -5.7806 C.2     
  14 C14           -0.2040    -2.0707    -3.9723 C.ar    
  15 C15           -0.7363    -3.1000    -4.7253 C.ar    
  16 C16           -1.1122    -2.8792    -6.0401 C.ar    
  17 C17           -0.9626    -1.6324    -6.6151 C.ar    
  18 C18           -0.6836     0.8577    -7.8397 C.3     
  19 C19           -2.1181     1.3175    -7.8837 C.ar    
  20 C20           -2.4187     2.6570    -7.7181 C.ar    
  21 C21           -3.7324     3.0814    -7.7579 C.ar    
  22 C22           -4.7517     2.1616    -7.9644 C.ar    
  23 C23           -4.4467     0.8174    -8.1303 C.ar    
  24 C24           -3.1306     0.3998    -8.0952 C.ar    
  25 C25           -7.1686     1.8021    -8.1974 C.2     
  26 F26           -1.3339    -1.4323    -7.8986 F       
  27 C27           -8.2647     2.5951    -8.1684 C.2     
  28 C28           -7.8393     3.9102    -7.9510 C.2     
  29 N29           -6.5347     3.9069    -7.8468 N.2     
  30 C30            3.1683     2.9126    -1.1610 C.ar    
  31 C31            3.6906     3.3995     0.0214 C.ar    
  32 C32            2.9773     3.2708     1.1989 C.ar    
  33 C33            1.7387     2.6553     1.1970 C.ar    
  34 C34            1.2085     2.1712     0.0175 C.ar    
  35 N35            0.0366     0.0462     0.0043 N.pl3   
  36 F36            0.1632    -2.2872    -2.6903 F       
  37 C37           -1.0741    -0.7897     0.0011 C.ar    
  38 N38           -0.9068    -2.1030    -0.0099 N.ar    
  39 C39           -1.9342    -2.9313    -0.0132 C.ar    
  40 C40           -3.2290    -2.4534    -0.0058 C.ar    
  41 C41           -3.4478    -1.0819     0.0058 C.ar    
  42 C42           -2.3516    -0.2387     0.0153 C.ar    
  43 H43           -0.6923     1.7916     0.9105 H       
  44 H44           -0.6979     1.8057    -0.8694 H       
  45 H45            0.3267     2.6689    -6.2875 H       
  46 H46           -0.8591    -4.0796    -4.2874 H       
  47 H47           -1.5266    -3.6899    -6.6211 H       
  48 H48           -0.0469     1.6084    -8.3080 H       
  49 H49           -0.5879    -0.0860    -8.3768 H       
  50 H50           -1.6254     3.3720    -7.5571 H       
  51 H51           -3.9666     4.1277    -7.6281 H       
  52 H52           -5.2375     0.0995    -8.2911 H       
  53 H53           -2.8927    -0.6457    -8.2245 H       
  54 H54           -7.1599     0.7326    -8.3477 H       
  55 H55           -9.2873     2.2703    -8.2916 H       
  56 H56           -8.4780     4.7780    -7.8769 H       
  57 H57            3.7262     3.0128    -2.0802 H       
  58 H58            4.6574     3.8809     0.0262 H       
  59 H59            3.3881     3.6520     2.1221 H       
  60 H60            1.1844     2.5558     2.1185 H       
  61 H61            0.9292    -0.3334    -0.0016 H       
  62 H62           -1.7595    -3.9971    -0.0223 H       
  63 H63           -4.0635    -3.1389    -0.0093 H       
  64 H64           -4.4514    -0.6829     0.0115 H       
  65 H65           -2.4855     0.8329     0.0247 H       
@<TRIPOS>BOND
   1    1   35 1
   2    1   34 1
   3    1   43 1
   4    1   44 1
   5    2   25 1
   6    2   22 1
   7    2   29 1
   8    3    4 1
   9    3   30 ar
  10    3   34 ar
  11    4    5 1
  12    4    8 am
  13    5    6 2
  14    6    7 1
  15    6   10 1
  16    7    8 1
  17    7   13 2
  18    8    9 2
  19   10   11 ar
  20   10   14 ar
  21   11   12 1
  22   11   17 ar
  23   12   13 1
  24   12   18 1
  25   13   45 1
  26   14   15 ar
  27   14   36 1
  28   15   16 ar
  29   15   46 1
  30   16   17 ar
  31   16   47 1
  32   17   26 1
  33   18   19 1
  34   18   48 1
  35   18   49 1
  36   19   20 ar
  37   19   24 ar
  38   20   21 ar
  39   20   50 1
  40   21   22 ar
  41   21   51 1
  42   22   23 ar
  43   23   24 ar
  44   23   52 1
  45   24   53 1
  46   25   27 2
  47   25   54 1
  48   27   28 1
  49   27   55 1
  50   28   29 2
  51   28   56 1
  52   30   31 ar
  53   30   57 1
  54   31   32 ar
  55   31   58 1
  56   32   33 ar
  57   32   59 1
  58   33   34 ar
  59   33   60 1
  60   35   37 1
  61   35   61 1
  62   37   38 ar
  63   37   42 ar
  64   38   39 ar
  65   39   40 ar
  66   39   62 1
  67   40   41 ar
  68   40   63 1
  69   41   42 ar
  70   41   64 1
  71   42   65 1

#	End of record

