#	Name: ASD02562002
#	Creating user name:	WinNT
#	Creation time:	15. 06. 2019 20:25

#	Modifying user name:	WinNT
#	Modification time:	15. 06. 2019 20:25

#	Program:	/corina/corina34_cracker 3.40 0067  02.08.2006

@<TRIPOS>MOLECULE
ASD02562002
  66   68    0    0    0
SMALL
NO_CHARGES


@<TRIPOS>ATOM
   1 C1            -0.0167     1.3835     0.0096 C.ar    
   2 C2             0.0021    -0.0041     0.0020 C.ar    
   3 C3            -1.1793    -0.7141     0.0094 C.ar    
   4 C4            -2.4040    -0.0432     0.0242 C.ar    
   5 C5            -2.4363     1.3465     0.0320 C.ar    
   6 C6            -1.2418     2.0672     0.0309 C.ar    
   7 C7             1.3187    -0.7371    -0.0149 C.3     
   8 C8            -1.2666     3.5412     0.0391 C.2     
   9 O9            -0.2248     4.1665     0.0380 O.2     
  10 C10           -3.6709    -0.8137     0.0312 C.2     
  11 C11           -4.5968    -0.7286    -1.1241 C.ar    
  12 C12           -3.9787    -1.5859     1.0800 C.2     
  13 C13           -3.0378    -1.6724     2.2540 C.3     
  14 C14           -3.7893    -1.3134     3.5374 C.3     
  15 C15           -2.8340    -1.4011     4.7293 C.3     
  16 C16           -3.5743    -1.0475     5.9935 C.2     
  17 O17           -4.7457    -0.7553     5.9460 O.2     
  18 C18           -5.8632    -0.1665    -0.9616 C.ar    
  19 C19           -6.7292    -0.0853    -2.0377 C.ar    
  20 C20           -6.3419    -0.5642    -3.2893 C.ar    
  21 C21           -5.0702    -1.1296    -3.4558 C.ar    
  22 C22           -4.1989    -1.2044    -2.3695 C.ar    
  23 C23           -4.6534    -1.6386    -4.7757 C.2     
  24 O24           -5.4129    -1.5683    -5.7215 O.2     
  25 O25           -7.3752    -0.3561    -4.1379 O.3     
  26 C26           -8.3835     0.2286    -3.4718 C.2     
  27 N27           -8.0256     0.4100    -2.1852 N.am    
  28 O28           -9.4536     0.5456    -3.9545 O.2     
  29 C29           -8.8468     1.0161    -1.1342 C.3     
  30 O30           -2.9322    -1.0572     7.1722 O.3     
  31 C31           -3.7080    -0.7061     8.3483 C.3     
  32 O32           -2.4448     4.1952     0.0477 O.3     
  33 C33           -2.3933     5.6462     0.0554 C.3     
  34 O34           -3.4303    -2.1816    -4.9328 O.3     
  35 C35           -3.0877    -2.6618    -6.2596 C.3     
  36 O36            1.1480     2.0780     0.0023 O.3     
  37 C37            1.6931     2.4171    -1.2745 C.3     
  38 H38           -1.1578    -1.7939     0.0034 H       
  39 H39           -3.3828     1.8665     0.0434 H       
  40 H40            1.6463    -0.9194     1.0086 H       
  41 H41            1.1981    -1.6887    -0.5327 H       
  42 H42            2.0639    -0.1335    -0.5329 H       
  43 H43           -4.9014    -2.1471     1.0850 H       
  44 H44           -2.6478    -2.6871     2.3330 H       
  45 H45           -2.2118    -0.9759     2.1097 H       
  46 H46           -4.1793    -0.2986     3.4583 H       
  47 H47           -4.6153    -2.0099     3.6817 H       
  48 H48           -2.4440    -2.4159     4.8084 H       
  49 H49           -2.0081    -0.7047     4.5850 H       
  50 H50           -6.1682     0.2055     0.0054 H       
  51 H51           -3.2179    -1.6389    -2.4932 H       
  52 H52           -8.6701     2.0914    -1.1098 H       
  53 H53           -9.8999     0.8255    -1.3407 H       
  54 H54           -8.5812     0.5823    -0.1701 H       
  55 H55           -3.0707    -0.7532     9.2313 H       
  56 H56           -4.0998     0.3049     8.2365 H       
  57 H57           -4.5358    -1.4063     8.4599 H       
  58 H58           -1.8706     5.9960    -0.8349 H       
  59 H59           -3.4074     6.0458     0.0619 H       
  60 H60           -1.8631     5.9862     0.9450 H       
  61 H61           -3.7930    -3.4372    -6.5586 H       
  62 H62           -3.1345    -1.8352    -6.9685 H       
  63 H63           -2.0786    -3.0736    -6.2476 H       
  64 H64            1.8920     1.5057    -1.8383 H       
  65 H65            0.9805     3.0345    -1.8214 H       
  66 H66            2.6226     2.9698    -1.1375 H       
@<TRIPOS>BOND
   1    1    2 ar
   2    1   36 1
   3    1    6 ar
   4    2    3 ar
   5    2    7 1
   6    3    4 ar
   7    3   38 1
   8    4    5 ar
   9    4   10 1
  10    5    6 ar
  11    5   39 1
  12    6    8 1
  13    7   40 1
  14    7   41 1
  15    7   42 1
  16    8    9 2
  17    8   32 1
  18   10   11 1
  19   10   12 2
  20   11   18 ar
  21   11   22 ar
  22   12   13 1
  23   12   43 1
  24   13   14 1
  25   13   44 1
  26   13   45 1
  27   14   15 1
  28   14   46 1
  29   14   47 1
  30   15   16 1
  31   15   48 1
  32   15   49 1
  33   16   17 2
  34   16   30 1
  35   18   19 ar
  36   18   50 1
  37   19   20 ar
  38   19   27 1
  39   20   21 ar
  40   20   25 1
  41   21   22 ar
  42   21   23 1
  43   22   51 1
  44   23   24 2
  45   23   34 1
  46   25   26 1
  47   26   28 2
  48   26   27 am
  49   27   29 1
  50   29   52 1
  51   29   53 1
  52   29   54 1
  53   30   31 1
  54   31   55 1
  55   31   56 1
  56   31   57 1
  57   32   33 1
  58   33   58 1
  59   33   59 1
  60   33   60 1
  61   34   35 1
  62   35   61 1
  63   35   62 1
  64   35   63 1
  65   36   37 1
  66   37   64 1
  67   37   65 1
  68   37   66 1

#	End of record

