#	Name: ASD03930183
#	Creating user name:	WinNT
#	Creation time:	15. 06. 2019 20:47

#	Modifying user name:	WinNT
#	Modification time:	15. 06. 2019 20:47

#	Program:	/corina/corina34_cracker 3.40 0067  02.08.2006

@<TRIPOS>MOLECULE
ASD03930183
  22   23    0    0    0
SMALL
NO_CHARGES


@<TRIPOS>ATOM
   1 S1            -0.0205     1.6625     0.0112 S.o2    
   2 N2             0.0021    -0.0041     0.0020 N.am    
   3 C3             0.3290    -0.7077    -1.2343 C.3     
   4 C4             1.7433    -0.4306    -1.7209 C.3     
   5 O5             1.9114     0.9489    -2.0693 O.3     
   6 C6             2.4372     1.7409    -1.1017 C.ar    
   7 C7             1.6898     2.1415    -0.0026 C.ar    
   8 C8             3.7623     2.1538    -1.1893 C.ar    
   9 C9             4.3170     2.9079    -0.1740 C.ar    
  10 C10            3.5687     3.2605     0.9347 C.ar    
  11 C11            2.2377     2.8750     1.0166 C.ar    
  12 Br12           4.3552     4.2628     2.3320 Br      
  13 O13           -0.5708     2.0718    -1.2334 O.2     
  14 O14           -0.5469     2.0584     1.2703 O.2     
  15 H15           -0.1996    -0.5013     0.8101 H       
  16 H16            0.2191    -1.7792    -1.0676 H       
  17 H17           -0.3746    -0.4017    -2.0086 H       
  18 H18            2.4494    -0.6882    -0.9316 H       
  19 H19            1.9470    -1.0473    -2.5963 H       
  20 H20            4.3567     1.8849    -2.0499 H       
  21 H21            5.3466     3.2257    -0.2463 H       
  22 H22            1.6410     3.1504     1.8736 H       
@<TRIPOS>BOND
   1    1    2 am
   2    1    7 1
   3    1   13 2
   4    1   14 2
   5    2    3 1
   6    2   15 1
   7    3    4 1
   8    3   16 1
   9    3   17 1
  10    4    5 1
  11    4   18 1
  12    4   19 1
  13    5    6 1
  14    6    7 ar
  15    6    8 ar
  16    7   11 ar
  17    8    9 ar
  18    8   20 1
  19    9   10 ar
  20    9   21 1
  21   10   11 ar
  22   10   12 1
  23   11   22 1

#	End of record

