#	Name: ASD01000138
#	Creating user name:	WinNT
#	Creation time:	15. 06. 2019 18:54

#	Modifying user name:	WinNT
#	Modification time:	15. 06. 2019 18:54

#	Program:	/corina/corina34_cracker 3.40 0067  02.08.2006

@<TRIPOS>MOLECULE
ASD01000138
  44   46    0    0    0
SMALL
NO_CHARGES


@<TRIPOS>ATOM
   1 C1             0.0149     1.4054     0.1001 C.ar    
   2 C2             0.0080     0.0214     0.0712 C.ar    
   3 C3             1.1995    -0.6740    -0.0107 C.ar    
   4 C4             2.3999     0.0134    -0.0639 C.ar    
   5 C5             2.4068     1.3978    -0.0350 C.ar    
   6 C6             1.2156     2.0930     0.0470 C.ar    
   7 C7             1.1921    -2.1807    -0.0416 C.3     
   8 C8             0.5056    -2.7586     1.2211 C.3     
   9 N9             0.0224    -4.0899     0.8121 N.am    
  10 C10           -0.1544    -4.0994    -0.6475 C.3     
  11 C11            0.2662    -2.7092    -1.1690 C.3     
  12 C12            0.7182    -5.1630    -1.2625 C.ar    
  13 C13            0.2489    -5.9132    -2.3245 C.ar    
  14 C14            1.0494    -6.8889    -2.8887 C.ar    
  15 C15            2.3192    -7.1141    -2.3911 C.ar    
  16 C16            2.7889    -6.3633    -1.3296 C.ar    
  17 C17            1.9901    -5.3847    -0.7683 C.ar    
  18 C18           -0.2170    -5.1269     1.6390 C.2     
  19 N19            0.0273    -5.0065     2.9590 N.am    
  20 C20           -0.3447    -6.0881     3.8744 C.3     
  21 C21            0.6648    -3.7940     3.4783 C.3     
  22 O22           -0.6533    -6.1710     1.1943 O.2     
  23 F23            3.5647    -0.6664    -0.1436 F       
  24 F24           -1.1502     2.0853     0.1746 F       
  25 H25           -0.9285    -0.5149     0.1131 H       
  26 H26            3.3433     1.9342    -0.0762 H       
  27 H27            1.2210     3.1728     0.0695 H       
  28 H28            2.2035    -2.5721    -0.1503 H       
  29 H29            1.2243    -2.8496     2.0355 H       
  30 H30           -0.3307    -2.1270     1.5209 H       
  31 H31           -1.1997    -4.2868    -0.8931 H       
  32 H32           -0.6033    -2.0629    -1.2886 H       
  33 H33            0.8136    -2.7987    -2.1073 H       
  34 H34           -0.7432    -5.7373    -2.7133 H       
  35 H35            0.6825    -7.4755    -3.7180 H       
  36 H36            2.9443    -7.8769    -2.8314 H       
  37 H37            3.7809    -6.5395    -0.9407 H       
  38 H38            2.3584    -4.7955     0.0585 H       
  39 H39            0.4873    -6.7858     3.9695 H       
  40 H40           -0.5823    -5.6705     4.8528 H       
  41 H41           -1.2158    -6.6128     3.4820 H       
  42 H42            0.0964    -2.9200     3.1604 H       
  43 H43            0.6899    -3.8347     4.5673 H       
  44 H44            1.6824    -3.7253     3.0937 H       
@<TRIPOS>BOND
   1    1    2 ar
   2    1    6 ar
   3    1   24 1
   4    2    3 ar
   5    2   25 1
   6    3    4 ar
   7    3    7 1
   8    4    5 ar
   9    4   23 1
  10    5    6 ar
  11    5   26 1
  12    6   27 1
  13    7    8 1
  14    7   11 1
  15    7   28 1
  16    8    9 1
  17    8   29 1
  18    8   30 1
  19    9   10 1
  20    9   18 am
  21   10   11 1
  22   10   12 1
  23   10   31 1
  24   11   32 1
  25   11   33 1
  26   12   13 ar
  27   12   17 ar
  28   13   14 ar
  29   13   34 1
  30   14   15 ar
  31   14   35 1
  32   15   16 ar
  33   15   36 1
  34   16   17 ar
  35   16   37 1
  36   17   38 1
  37   18   19 am
  38   18   22 2
  39   19   20 1
  40   19   21 1
  41   20   39 1
  42   20   40 1
  43   20   41 1
  44   21   42 1
  45   21   43 1
  46   21   44 1

#	End of record

