#	Name: ASD02408423
#	Creating user name:	WinNT
#	Creation time:	15. 06. 2019 20:21

#	Modifying user name:	WinNT
#	Modification time:	15. 06. 2019 20:21

#	Program:	/corina/corina34_cracker 3.40 0067  02.08.2006

@<TRIPOS>MOLECULE
ASD02408423
  37   40    0    0    0
SMALL
NO_CHARGES


@<TRIPOS>ATOM
   1 N1            -0.0163     1.3525     0.0095 N.am    
   2 C2             0.0021    -0.0041     0.0020 C.2     
   3 N3             1.1023    -0.6986    -0.0118 N.2     
   4 C4             2.3093    -0.1135    -0.0202 C.2     
   5 C5             2.3912     1.2878    -0.0139 C.2     
   6 C6             1.1433     2.0508     0.0022 C.2     
   7 N7             3.5900    -0.5770    -0.0351 N.pl3   
   8 N8             4.4551     0.5245    -0.0379 N.2     
   9 C9             3.7576     1.6269    -0.0255 C.2     
  10 C10           -1.3126    -0.7406     0.0107 C.3     
  11 C11           -1.0526    -2.2483     0.0001 C.3     
  12 C12            3.9744    -1.9196    -0.0452 C.ar    
  13 C13            5.2105    -2.2777    -0.5692 C.ar    
  14 C14            5.5794    -3.6119    -0.5727 C.ar    
  15 C15            4.6950    -4.5446    -0.0497 C.ar    
  16 C16            3.4820    -4.1173     0.4551 C.ar    
  17 N17            3.1601    -2.8385     0.4495 N.ar    
  18 O18            1.1475     3.2691     0.0079 O.2     
  19 C19           -0.3931    -2.6778     1.2900 C.2     
  20 C20           -0.9427    -3.7646     1.7596 C.2     
  21 C21           -2.0603    -4.2412     0.8612 C.3     
  22 C22           -2.3892    -3.0252    -0.0357 C.3     
  23 H23           -0.8640     1.8240     0.0161 H       
  24 H24            4.1598     2.6292    -0.0249 H       
  25 H25           -1.8722    -0.4747     0.9075 H       
  26 H26           -1.8892    -0.4652    -0.8724 H       
  27 H27           -0.4307    -2.5197    -0.8530 H       
  28 H28            5.8743    -1.5252    -0.9687 H       
  29 H29            6.5337    -3.9200    -0.9738 H       
  30 H30            4.9520    -5.5935    -0.0377 H       
  31 H31            2.7901    -4.8394     0.8629 H       
  32 H32            0.4256    -2.1545     1.7612 H       
  33 H33           -0.6383    -4.2586     2.6705 H       
  34 H34           -1.7265    -5.0821     0.2534 H       
  35 H35           -2.9306    -4.5220     1.4543 H       
  36 H36           -3.1981    -2.4320     0.3906 H       
  37 H37           -2.6308    -3.3415    -1.0504 H       
@<TRIPOS>BOND
   1    1    2 1
   2    1    6 am
   3    1   23 1
   4    2    3 2
   5    2   10 1
   6    3    4 1
   7    4    5 2
   8    4    7 1
   9    5    6 1
  10    5    9 1
  11    6   18 2
  12    7    8 1
  13    7   12 1
  14    8    9 2
  15    9   24 1
  16   10   11 1
  17   10   25 1
  18   10   26 1
  19   11   19 1
  20   11   22 1
  21   11   27 1
  22   12   13 ar
  23   12   17 ar
  24   13   14 ar
  25   13   28 1
  26   14   15 ar
  27   14   29 1
  28   15   16 ar
  29   15   30 1
  30   16   17 ar
  31   16   31 1
  32   19   20 2
  33   19   32 1
  34   20   21 1
  35   20   33 1
  36   21   22 1
  37   21   34 1
  38   21   35 1
  39   22   36 1
  40   22   37 1

#	End of record

