#	Name: ASD01911769
#	Creating user name:	WinNT
#	Creation time:	15. 06. 2019 19:58

#	Modifying user name:	WinNT
#	Modification time:	15. 06. 2019 19:58

#	Program:	/corina/corina34_cracker 3.40 0067  02.08.2006

@<TRIPOS>MOLECULE
ASD01911769
  35   37    0    0    0
SMALL
NO_CHARGES


@<TRIPOS>ATOM
   1 N1            -0.0178     1.4648     0.0101 N.3     
   2 C2             0.0021    -0.0041     0.0020 C.3     
   3 C3            -1.3925    -0.5241    -0.2342 C.2     
   4 C4            -1.9403    -0.7865    -1.4272 C.2     
   5 S5            -2.5802    -0.8986     1.0130 S.3     
   6 C6            -3.7305    -1.3771    -0.2326 C.2     
   7 N7            -3.1730    -1.2339    -1.4050 N.2     
   8 C8            -5.0609    -1.8518     0.0028 C.1     
   9 C9            -6.1515    -2.2410     0.1958 C.1     
  10 C10           -7.4819    -2.7158     0.4312 C.ar    
  11 C11           -8.3033    -3.0662    -0.6444 C.ar    
  12 C12           -9.5831    -3.5231    -0.4097 C.ar    
  13 C13          -10.0549    -3.6350     0.8865 C.ar    
  14 C14           -9.2478    -3.2896     1.9564 C.ar    
  15 C15           -7.9637    -2.8367     1.7379 C.ar    
  16 C16           -0.7439     1.9913    -1.1653 C.3     
  17 C17            1.3513     2.0118    -0.0000 C.3     
  18 C18            1.4642     2.9387    -1.2287 C.3     
  19 C19           -0.0131     3.3092    -1.5239 C.3     
  20 F20           -0.1894     3.6284    -2.8746 F       
  21 H21            0.6600    -0.3541    -0.7934 H       
  22 H22            0.3677    -0.3678     0.9623 H       
  23 H23           -1.4006    -0.6385    -2.3509 H       
  24 H24           -7.9367    -2.9790    -1.6565 H       
  25 H25          -10.2190    -3.7938    -1.2396 H       
  26 H26          -11.0581    -3.9934     1.0640 H       
  27 H27           -9.6230    -3.3793     2.9651 H       
  28 H28           -7.3349    -2.5679     2.5738 H       
  29 H29           -0.6847     1.2867    -1.9948 H       
  30 H30           -1.7844     2.1917    -0.9100 H       
  31 H31            1.5297     2.5816     0.9119 H       
  32 H32            2.0744     1.2001    -0.0802 H       
  33 H33            2.0441     3.8295    -0.9875 H       
  34 H34            1.9045     2.4078    -2.0728 H       
  35 H35           -0.3459     4.1267    -0.8844 H       
@<TRIPOS>BOND
   1    1    2 1
   2    1   17 1
   3    1   16 1
   4    2    3 1
   5    2   21 1
   6    2   22 1
   7    3    4 2
   8    3    5 1
   9    4    7 1
  10    4   23 1
  11    5    6 1
  12    6    7 2
  13    6    8 1
  14    8    9 3
  15    9   10 1
  16   10   11 ar
  17   10   15 ar
  18   11   12 ar
  19   11   24 1
  20   12   13 ar
  21   12   25 1
  22   13   14 ar
  23   13   26 1
  24   14   15 ar
  25   14   27 1
  26   15   28 1
  27   16   19 1
  28   16   29 1
  29   16   30 1
  30   17   18 1
  31   17   31 1
  32   17   32 1
  33   18   19 1
  34   18   33 1
  35   18   34 1
  36   19   20 1
  37   19   35 1

#	End of record

