#	Name: ASD01890150
#	Creating user name:	WinNT
#	Creation time:	15. 06. 2019 19:50

#	Modifying user name:	WinNT
#	Modification time:	15. 06. 2019 19:50

#	Program:	/corina/corina34_cracker 3.40 0067  02.08.2006

@<TRIPOS>MOLECULE
ASD01890150
  30   31    0    0    0
SMALL
NO_CHARGES


@<TRIPOS>ATOM
   1 C1            -0.0184     1.5028     0.0103 C.2     
   2 C2             0.0021    -0.0041     0.0020 C.3     
   3 C3             1.4513    -0.4944    -0.0145 C.3     
   4 O4             1.0234     2.1233     0.0037 O.2     
   5 C5            -1.3028     2.2212     0.0203 C.ar    
   6 C6            -1.3256     3.6195     0.0280 C.ar    
   7 C7            -2.5351     4.2860     0.0369 C.ar    
   8 C8            -3.7232     3.5716     0.0386 C.ar    
   9 C9            -3.7064     2.1883     0.0315 C.ar    
  10 C10           -2.5061     1.5091     0.0163 C.ar    
  11 F11           -2.5605     5.6368     0.0443 F       
  12 C12            1.4717    -2.0012    -0.0227 C.ar    
  13 C13            1.4697    -2.6856    -1.2238 C.ar    
  14 C14            1.4884    -4.0676    -1.2321 C.ar    
  15 C15            1.5092    -4.7660    -0.0379 C.ar    
  16 C16            1.5113    -4.0805     1.1638 C.ar    
  17 C17            1.4982    -2.6984     1.1707 C.ar    
  18 Cl18           1.5322    -6.5018    -0.0475 Cl      
  19 H19           -0.4983    -0.3791     0.8948 H       
  20 H20           -0.5153    -0.3696    -0.8850 H       
  21 H21            1.9516    -0.1193    -0.9073 H       
  22 H22            1.9686    -0.1289     0.8726 H       
  23 H23           -0.4003     4.1764     0.0274 H       
  24 H24           -4.6665     4.0975     0.0459 H       
  25 H25           -4.6360     1.6386     0.0332 H       
  26 H26           -2.4957     0.4292     0.0062 H       
  27 H27            1.4531    -2.1404    -2.1559 H       
  28 H28            1.4864    -4.6022    -2.1705 H       
  29 H29            1.5275    -4.6251     2.0963 H       
  30 H30            1.5043    -2.1631     2.1087 H       
@<TRIPOS>BOND
   1    1    2 1
   2    1    4 2
   3    1    5 1
   4    2    3 1
   5    2   19 1
   6    2   20 1
   7    3   12 1
   8    3   21 1
   9    3   22 1
  10    5    6 ar
  11    5   10 ar
  12    6    7 ar
  13    6   23 1
  14    7    8 ar
  15    7   11 1
  16    8    9 ar
  17    8   24 1
  18    9   10 ar
  19    9   25 1
  20   10   26 1
  21   12   13 ar
  22   12   17 ar
  23   13   14 ar
  24   13   27 1
  25   14   15 ar
  26   14   28 1
  27   15   16 ar
  28   15   18 1
  29   16   17 ar
  30   16   29 1
  31   17   30 1

#	End of record

