#	Name: ASD01810949
#	Creating user name:	WinNT
#	Creation time:	15. 06. 2019 19:25

#	Modifying user name:	WinNT
#	Modification time:	15. 06. 2019 19:25

#	Program:	/corina/corina34_cracker 3.40 0067  02.08.2006

@<TRIPOS>MOLECULE
ASD01810949
  22   22    0    0    0
SMALL
NO_CHARGES


@<TRIPOS>ATOM
   1 C1            -0.0180     1.4726     0.0101 C.2     
   2 C2             0.0021    -0.0041     0.0020 C.ar    
   3 C3             1.2217    -0.6887    -0.0133 C.ar    
   4 C4             1.2414    -2.0705    -0.0209 C.ar    
   5 C5             0.0598    -2.7838    -0.0130 C.ar    
   6 C6            -1.1659    -2.1124     0.0028 C.ar    
   7 C7            -1.1940    -0.7190     0.0154 C.ar    
   8 O8             1.0257     2.0943     0.0035 O.2     
   9 O9            -1.1936     2.1303     0.0193 O.3     
  10 C10            0.0914    -4.2905    -0.0218 C.3     
  11 C11           -2.3904    -2.8547     0.0110 C.1     
  12 N12           -3.3619    -3.4436     0.0175 N.1     
  13 Br13           2.8467     0.2784    -0.0243 Br      
  14 C14           -1.1373     3.5812     0.0269 C.3     
  15 H15            2.1856    -2.5946    -0.0334 H       
  16 H16           -2.1386    -0.1956     0.0318 H       
  17 H17            0.1094    -4.6595     1.0036 H       
  18 H18           -0.7959    -4.6695    -0.5289 H       
  19 H19            0.9836    -4.6321    -0.5467 H       
  20 H20           -0.6056     3.9195     0.9162 H       
  21 H21           -0.6140     3.9291    -0.8637 H       
  22 H22           -2.1501     3.9841     0.0339 H       
@<TRIPOS>BOND
   1    1    2 1
   2    1    8 2
   3    1    9 1
   4    2    3 ar
   5    2    7 ar
   6    3    4 ar
   7    3   13 1
   8    4    5 ar
   9    4   15 1
  10    5    6 ar
  11    5   10 1
  12    6    7 ar
  13    6   11 1
  14    7   16 1
  15    9   14 1
  16   10   17 1
  17   10   18 1
  18   10   19 1
  19   11   12 3
  20   14   20 1
  21   14   21 1
  22   14   22 1

#	End of record

