#	Name: ASD01881341
#	Creating user name:	WinNT
#	Creation time:	15. 06. 2019 19:42

#	Modifying user name:	WinNT
#	Modification time:	15. 06. 2019 19:42

#	Program:	/corina/corina34_cracker 3.40 0067  02.08.2006

@<TRIPOS>MOLECULE
ASD01881341
  61   62    0    0    0
SMALL
NO_CHARGES


@<TRIPOS>ATOM
   1 C1            -0.0179     1.4705     0.0101 C.2     
   2 C2             0.0021    -0.0041     0.0020 C.ar    
   3 C3             1.2214    -0.6883    -0.0133 C.ar    
   4 C4             1.2346    -2.0690    -0.0204 C.ar    
   5 C5             0.0337    -2.7778    -0.0122 C.ar    
   6 C6            -1.1768    -2.0986     0.0025 C.ar    
   7 C7            -1.1973    -0.7207     0.0155 C.ar    
   8 O8             1.0260     2.0923     0.0035 O.2     
   9 O9            -1.1939     2.1283     0.0193 O.3     
  10 O10            2.4188    -2.7376    -0.0357 O.3     
  11 C11            3.6097    -1.9479    -0.0438 C.3     
  12 O12            0.0484    -4.1356    -0.0192 O.3     
  13 C13           -1.2176    -4.7982    -0.0102 C.3     
  14 C14           -1.0007    -6.3127    -0.0199 C.3     
  15 C15           -2.3562    -7.0222    -0.0102 C.3     
  16 C16           -2.1393    -8.5367    -0.0200 C.3     
  17 O17           -3.4053    -9.1993    -0.0109 O.3     
  18 C18           -3.3906   -10.5559    -0.0179 C.ar    
  19 C19           -4.5868   -11.2594    -0.0098 C.ar    
  20 C20           -4.5742   -12.6431    -0.0168 C.ar    
  21 C21           -3.3447   -13.3268    -0.0323 C.ar    
  22 C22           -2.1468   -12.5996    -0.0403 C.ar    
  23 C23           -2.1754   -11.2353    -0.0389 C.ar    
  24 C24           -3.3168   -14.7914    -0.0394 C.2     
  25 C25           -1.9977   -15.5198    -0.0559 C.3     
  26 C26           -2.2486   -17.0291    -0.0605 C.3     
  27 C27           -0.9160   -17.7672    -0.2029 C.3     
  28 O28           -4.3559   -15.4180    -0.0320 O.2     
  29 C29           -2.9206   -17.4384     1.2517 C.3     
  30 C30           -5.8982   -10.5171     0.0072 C.3     
  31 O31           -5.7399   -13.3360    -0.0085 O.3     
  32 H32            2.1508    -0.1381    -0.0200 H       
  33 H33           -2.1047    -2.6512     0.0081 H       
  34 H34           -2.1404    -0.1948     0.0317 H       
  35 H35           -1.1564     3.0946     0.0244 H       
  36 H36            3.6376    -1.3233     0.8491 H       
  37 H37            4.4804    -2.6035    -0.0559 H       
  38 H38            3.6196    -1.3144    -0.9308 H       
  39 H39           -1.7691    -4.5159     0.8867 H       
  40 H40           -1.7864    -4.5070    -0.8932 H       
  41 H41           -0.4492    -6.5950    -0.9167 H       
  42 H42           -0.4319    -6.6039     0.8631 H       
  43 H43           -2.9077    -6.7399     0.8866 H       
  44 H44           -2.9250    -6.7309    -0.8933 H       
  45 H45           -1.5878    -8.8190    -0.9168 H       
  46 H46           -1.5705    -8.8279     0.8631 H       
  47 H47           -1.2002   -13.1194    -0.0521 H       
  48 H48           -1.2497   -10.6791    -0.0499 H       
  49 H49           -1.4401   -15.2415    -0.9502 H       
  50 H50           -1.4224   -15.2498     0.8297 H       
  51 H51           -2.8980   -17.2869    -0.8971 H       
  52 H52           -0.2666   -17.5094     0.6337 H       
  53 H53           -1.0947   -18.8424    -0.2062 H       
  54 H54           -0.4372   -17.4756    -1.1377 H       
  55 H55           -2.2712   -17.1806     2.0883 H       
  56 H56           -3.8699   -16.9126     1.3532 H       
  57 H57           -3.0993   -18.5136     1.2484 H       
  58 H58           -6.2246   -10.3327    -1.0163 H       
  59 H59           -6.6477   -11.1155     0.5253 H       
  60 H60           -5.7710    -9.5664     0.5249 H       
  61 H61           -6.0869   -13.5325    -0.8894 H       
@<TRIPOS>BOND
   1    1    2 1
   2    1    8 2
   3    1    9 1
   4    2    3 ar
   5    2    7 ar
   6    3    4 ar
   7    3   32 1
   8    4    5 ar
   9    4   10 1
  10    5    6 ar
  11    5   12 1
  12    6    7 ar
  13    6   33 1
  14    7   34 1
  15    9   35 1
  16   10   11 1
  17   11   36 1
  18   11   37 1
  19   11   38 1
  20   12   13 1
  21   13   14 1
  22   13   39 1
  23   13   40 1
  24   14   15 1
  25   14   41 1
  26   14   42 1
  27   15   16 1
  28   15   43 1
  29   15   44 1
  30   16   17 1
  31   16   45 1
  32   16   46 1
  33   17   18 1
  34   18   19 ar
  35   18   23 ar
  36   19   20 ar
  37   19   30 1
  38   20   21 ar
  39   20   31 1
  40   21   22 ar
  41   21   24 1
  42   22   23 ar
  43   22   47 1
  44   23   48 1
  45   24   25 1
  46   24   28 2
  47   25   26 1
  48   25   49 1
  49   25   50 1
  50   26   27 1
  51   26   29 1
  52   26   51 1
  53   27   52 1
  54   27   53 1
  55   27   54 1
  56   29   55 1
  57   29   56 1
  58   29   57 1
  59   30   58 1
  60   30   59 1
  61   30   60 1
  62   31   61 1

#	End of record

