#	Name: ASD01882006
#	Creating user name:	WinNT
#	Creation time:	15. 06. 2019 19:43

#	Modifying user name:	WinNT
#	Modification time:	15. 06. 2019 19:43

#	Program:	/corina/corina34_cracker 3.40 0067  02.08.2006

@<TRIPOS>MOLECULE
ASD01882006
  52   55    0    0    0
SMALL
NO_CHARGES


@<TRIPOS>ATOM
   1 N1            -0.0179     1.4664     0.0101 N.am    
   2 C2             0.0021    -0.0041     0.0020 C.3     
   3 C3             1.3598     0.0722    -0.7099 C.3     
   4 C4             1.4523     1.4322    -0.0041 C.3     
   5 C5            -0.9662     2.4241     0.0201 C.2     
   6 O6            -2.1414     2.1153     0.0243 O.2     
   7 O7            -0.6114     3.7228     0.0253 O.3     
   8 C8             2.3817    -0.9576    -0.2239 C.3     
   9 O9             3.5604    -0.8750    -1.0277 O.3     
  10 N10            7.7918    -4.2039    -0.0188 N.pl3   
  11 N11            8.6181    -3.7181    -1.0429 N.2     
  12 N12            8.0067    -2.7817    -1.6785 N.2     
  13 C13            6.7823    -2.5800    -1.1519 C.ar    
  14 C14            6.6222    -3.4815    -0.0853 C.ar    
  15 C15            5.7388    -1.6982    -1.4652 C.ar    
  16 C16            4.5746    -1.7290    -0.7257 C.ar    
  17 C17            4.4306    -2.6283     0.3281 C.ar    
  18 C18            5.4398    -3.4929     0.6460 C.ar    
  19 C19            8.1088    -5.2738     0.9304 C.3     
  20 C20            8.7745    -4.6744     2.1707 C.3     
  21 C21            9.0781    -5.6188     3.3356 C.3     
  22 C22           10.2184    -5.0856     2.4659 C.3     
  23 Br23           5.9255    -0.4737    -2.8941 Br      
  24 C24           -1.6857     4.6996     0.0361 C.3     
  25 C25           -2.5419     4.5023     1.2886 C.3     
  26 C26           -1.0925     6.1100     0.0407 C.3     
  27 C27           -2.5545     4.5159    -1.2098 C.3     
  28 H28            0.0583    -0.4429     0.9982 H       
  29 H29           -0.7846    -0.4455    -0.6098 H       
  30 H30            1.2921     0.1360    -1.7959 H       
  31 H31            1.8987     2.2120    -0.6212 H       
  32 H32            1.8949     1.3759     0.9904 H       
  33 H33            2.6362    -0.7540     0.8162 H       
  34 H34            1.9562    -1.9578    -0.3047 H       
  35 H35            3.5141    -2.6417     0.8991 H       
  36 H36            5.3185    -4.1862     1.4651 H       
  37 H37            7.1911    -5.7847     1.2217 H       
  38 H38            8.7880    -5.9859     0.4617 H       
  39 H39            8.4821    -3.6529     2.4140 H       
  40 H40            8.9858    -5.2185     4.3452 H       
  41 H41            8.8035    -6.6671     3.2183 H       
  42 H42           10.6940    -5.7831     1.7764 H       
  43 H43           10.8762    -4.3346     2.9033 H       
  44 H44           -1.9229     4.6332     2.1762 H       
  45 H45           -3.3484     5.2356     1.2966 H       
  46 H46           -2.9645     3.4975     1.2852 H       
  47 H47           -0.4825     6.2506    -0.8516 H       
  48 H48           -1.8990     6.8432     0.0488 H       
  49 H49           -0.4736     6.2409     0.9283 H       
  50 H50           -2.9770     3.5111    -1.2132 H       
  51 H51           -3.3609     5.2491    -1.2018 H       
  52 H52           -1.9445     4.6564    -2.1022 H       
@<TRIPOS>BOND
   1    1    2 1
   2    1    4 1
   3    1    5 am
   4    2    3 1
   5    2   28 1
   6    2   29 1
   7    3    4 1
   8    3    8 1
   9    3   30 1
  10    4   31 1
  11    4   32 1
  12    5    6 2
  13    5    7 1
  14    7   24 1
  15    8    9 1
  16    8   33 1
  17    8   34 1
  18    9   16 1
  19   10   11 1
  20   10   14 1
  21   10   19 1
  22   11   12 2
  23   12   13 1
  24   13   14 ar
  25   13   15 ar
  26   14   18 ar
  27   15   16 ar
  28   15   23 1
  29   16   17 ar
  30   17   18 ar
  31   17   35 1
  32   18   36 1
  33   19   20 1
  34   19   37 1
  35   19   38 1
  36   20   21 1
  37   20   22 1
  38   20   39 1
  39   21   22 1
  40   21   40 1
  41   21   41 1
  42   22   42 1
  43   22   43 1
  44   24   25 1
  45   24   27 1
  46   24   26 1
  47   25   44 1
  48   25   45 1
  49   25   46 1
  50   26   47 1
  51   26   48 1
  52   26   49 1
  53   27   50 1
  54   27   51 1
  55   27   52 1

#	End of record

