#	Name: ASD03090034
#	Creating user name:	WinNT
#	Creation time:	15. 06. 2019 20:28

#	Modifying user name:	WinNT
#	Modification time:	15. 06. 2019 20:28

#	Program:	/corina/corina34_cracker 3.40 0067  02.08.2006

@<TRIPOS>MOLECULE
ASD03090034
 126  127    0    0    0
SMALL
NO_CHARGES


@<TRIPOS>ATOM
   1 C1            -0.0167     1.3784     0.0096 C.ar    
   2 C2             0.0021    -0.0041     0.0020 C.ar    
   3 C3             1.2070    -0.6796    -0.0132 C.ar    
   4 C4             2.3989     0.0304    -0.0208 C.ar    
   5 C5             2.3774     1.4175    -0.0131 C.ar    
   6 C6             1.1698     2.0883     0.0021 C.ar    
   7 O7             3.5855    -0.6319    -0.0353 O.3     
   8 C8             3.5315    -2.0599    -0.0419 C.3     
   9 C9             3.6702     2.1918    -0.0209 C.3     
  10 N10            4.2013     2.2444    -1.3895 N.3     
  11 C11            5.4642     2.9934    -1.4357 C.3     
  12 C12            5.9852     3.0264    -2.8739 C.3     
  13 C13            7.3006     3.8064    -2.9220 C.3     
  14 N14            7.8008     3.8382    -4.3028 N.3     
  15 C15            9.0655     4.5806    -4.3876 C.3     
  16 C16            9.5540     4.5919    -5.8375 C.3     
  17 C17           10.8713     5.3652    -5.9258 C.3     
  18 C18           11.3598     5.3765    -7.3757 C.3     
  19 C19           12.6770     6.1498    -7.4640 C.3     
  20 C20           13.1655     6.1611    -8.9139 C.3     
  21 N21           14.4302     6.9036    -8.9987 N.3     
  22 C22           14.9305     6.9353   -10.3796 C.3     
  23 C23           16.2458     7.7153   -10.4277 C.3     
  24 C24           16.7668     7.7484   -11.8659 C.3     
  25 C25           18.0822     8.5284   -11.9140 C.3     
  26 C26           18.6032     8.5614   -13.3521 C.3     
  27 C27           19.9186     9.3414   -13.4003 C.3     
  28 C28           20.4396     9.3745   -14.8384 C.3     
  29 C29           21.7550    10.1545   -14.8866 C.3     
  30 N30           22.2552    10.1862   -16.2674 N.3     
  31 C31           23.5199    10.9287   -16.3522 C.3     
  32 C32           24.0084    10.9400   -17.8021 C.3     
  33 C33           25.3257    11.7133   -17.8904 C.3     
  34 C34           25.8142    11.7246   -19.3403 C.3     
  35 C35           27.1314    12.4979   -19.4286 C.3     
  36 C36           27.6199    12.5092   -20.8785 C.3     
  37 N37           28.8846    13.2517   -20.9633 N.3     
  38 C38           29.3849    13.2834   -22.3441 C.3     
  39 C39           30.7002    14.0634   -22.3923 C.3     
  40 C40           31.2213    14.0965   -23.8304 C.3     
  41 N41           32.4842    14.8454   -23.8766 N.3     
  42 C42           33.0153    14.8980   -25.2453 C.3     
  43 C43           34.3081    15.6723   -25.2530 C.ar    
  44 C44           35.4873    15.0586   -24.8563 C.ar    
  45 C45           36.6758    15.7742   -24.8645 C.ar    
  46 C46           36.6824    17.0955   -25.2674 C.ar    
  47 C47           35.5057    17.7051   -25.6619 C.ar    
  48 C48           34.3209    16.9923   -25.6605 C.ar    
  49 O49           35.4782    13.7587   -24.4600 O.3     
  50 C50           36.7292    13.1921   -24.0650 C.3     
  51 H51           -0.9597     1.9047     0.0170 H       
  52 H52           -0.9260    -0.5563     0.0083 H       
  53 H53            1.2211    -1.7595    -0.0187 H       
  54 H54            1.1525     3.1682     0.0081 H       
  55 H55            3.0127    -2.4080     0.8512 H       
  56 H56            2.9959    -2.3990    -0.9287 H       
  57 H57            4.5446    -2.4617    -0.0535 H       
  58 H58            3.4890     3.2051     0.3378 H       
  59 H59            4.3924     1.6996     0.6305 H       
  60 H60            4.3171     1.3165    -1.7683 H       
  61 H61            5.2954     4.0122    -1.0869 H       
  62 H62            6.1989     2.5067    -0.7942 H       
  63 H63            6.1540     2.0076    -3.2227 H       
  64 H64            5.2505     3.5131    -3.5154 H       
  65 H65            7.1318     4.8252    -2.5732 H       
  66 H66            8.0352     3.3198    -2.2805 H       
  67 H67            7.9041     2.9046    -4.6715 H       
  68 H68            8.9090     5.6048    -4.0490 H       
  69 H69            9.8124     4.0993    -3.7563 H       
  70 H70            9.7106     3.5677    -6.1761 H       
  71 H71            8.8071     5.0732    -6.4688 H       
  72 H72           10.7147     6.3894    -5.5872 H       
  73 H73           11.6182     4.8839    -5.2945 H       
  74 H74           11.5163     4.3523    -7.7143 H       
  75 H75           10.6129     5.8578    -8.0070 H       
  76 H76           12.5205     7.1740    -7.1254 H       
  77 H77           13.4239     5.6685    -6.8327 H       
  78 H78           13.3221     5.1369    -9.2526 H       
  79 H79           12.4186     6.6424    -9.5452 H       
  80 H80           14.3269     7.8371    -8.6300 H       
  81 H81           15.0992     5.9165   -10.7284 H       
  82 H82           14.1958     7.4220   -11.0211 H       
  83 H83           16.0771     8.7341   -10.0789 H       
  84 H84           16.9805     7.2287    -9.7862 H       
  85 H85           16.9356     6.7296   -12.2147 H       
  86 H86           16.0322     8.2350   -12.5074 H       
  87 H87           17.9134     9.5472   -11.5652 H       
  88 H88           18.8169     8.0417   -11.2725 H       
  89 H89           18.7720     7.5426   -13.7010 H       
  90 H90           17.8685     9.0481   -13.9936 H       
  91 H91           19.7498    10.3602   -13.0515 H       
  92 H92           20.6533     8.8548   -12.7588 H       
  93 H93           20.6084     8.3557   -15.1872 H       
  94 H94           19.7049     9.8612   -15.4799 H       
  95 H95           21.5862    11.1733   -14.5377 H       
  96 H96           22.4896     9.6679   -14.2451 H       
  97 H97           22.3585     9.2527   -16.6361 H       
  98 H98           23.3634    11.9529   -16.0136 H       
  99 H99           24.2668    10.4474   -15.7209 H       
 100 H100          24.1650     9.9158   -18.1407 H       
 101 H101          23.2615    11.4213   -18.4334 H       
 102 H102          25.1691    12.7375   -17.5518 H       
 103 H103          26.0726    11.2320   -17.2591 H       
 104 H104          25.9707    10.7004   -19.6789 H       
 105 H105          25.0673    12.2059   -19.9716 H       
 106 H106          26.9749    13.5221   -19.0900 H       
 107 H107          27.8783    12.0166   -18.7973 H       
 108 H108          27.7765    11.4850   -21.2171 H       
 109 H109          26.8730    12.9905   -21.5098 H       
 110 H110          28.7813    14.1852   -20.5946 H       
 111 H111          29.5536    12.2646   -22.6930 H       
 112 H112          28.6502    13.7701   -22.9856 H       
 113 H113          30.5315    15.0822   -22.0435 H       
 114 H114          31.4349    13.5768   -21.7508 H       
 115 H115          31.3900    13.0777   -24.1792 H       
 116 H116          30.4866    14.5831   -24.4719 H       
 117 H117          32.3683    15.7734   -23.4978 H       
 118 H118          33.1965    13.8848   -25.6039 H       
 119 H119          32.2930    15.3902   -25.8966 H       
 120 H120          37.5951    15.2987   -24.5558 H       
 121 H121          37.6073    17.6530   -25.2740 H       
 122 H122          35.5128    18.7384   -25.9759 H       
 123 H123          33.4031    17.4706   -25.9690 H       
 124 H124          37.1318    13.7527   -23.2214 H       
 125 H125          36.5811    12.1524   -23.7729 H       
 126 H126          37.4289    13.2389   -24.8995 H       
@<TRIPOS>BOND
   1    1    2 ar
   2    1    6 ar
   3    1   51 1
   4    2    3 ar
   5    2   52 1
   6    3    4 ar
   7    3   53 1
   8    4    5 ar
   9    4    7 1
  10    5    6 ar
  11    5    9 1
  12    6   54 1
  13    7    8 1
  14    8   55 1
  15    8   56 1
  16    8   57 1
  17    9   10 1
  18    9   58 1
  19    9   59 1
  20   10   11 1
  21   10   60 1
  22   11   12 1
  23   11   61 1
  24   11   62 1
  25   12   13 1
  26   12   63 1
  27   12   64 1
  28   13   14 1
  29   13   65 1
  30   13   66 1
  31   14   15 1
  32   14   67 1
  33   15   16 1
  34   15   68 1
  35   15   69 1
  36   16   17 1
  37   16   70 1
  38   16   71 1
  39   17   18 1
  40   17   72 1
  41   17   73 1
  42   18   19 1
  43   18   74 1
  44   18   75 1
  45   19   20 1
  46   19   76 1
  47   19   77 1
  48   20   21 1
  49   20   78 1
  50   20   79 1
  51   21   22 1
  52   21   80 1
  53   22   23 1
  54   22   81 1
  55   22   82 1
  56   23   24 1
  57   23   83 1
  58   23   84 1
  59   24   25 1
  60   24   85 1
  61   24   86 1
  62   25   26 1
  63   25   87 1
  64   25   88 1
  65   26   27 1
  66   26   89 1
  67   26   90 1
  68   27   28 1
  69   27   91 1
  70   27   92 1
  71   28   29 1
  72   28   93 1
  73   28   94 1
  74   29   30 1
  75   29   95 1
  76   29   96 1
  77   30   31 1
  78   30   97 1
  79   31   32 1
  80   31   98 1
  81   31   99 1
  82   32   33 1
  83   32  100 1
  84   32  101 1
  85   33   34 1
  86   33  102 1
  87   33  103 1
  88   34   35 1
  89   34  104 1
  90   34  105 1
  91   35   36 1
  92   35  106 1
  93   35  107 1
  94   36   37 1
  95   36  108 1
  96   36  109 1
  97   37   38 1
  98   37  110 1
  99   38   39 1
 100   38  111 1
 101   38  112 1
 102   39   40 1
 103   39  113 1
 104   39  114 1
 105   40   41 1
 106   40  115 1
 107   40  116 1
 108   41   42 1
 109   41  117 1
 110   42   43 1
 111   42  118 1
 112   42  119 1
 113   43   44 ar
 114   43   48 ar
 115   44   45 ar
 116   44   49 1
 117   45   46 ar
 118   45  120 1
 119   46   47 ar
 120   46  121 1
 121   47   48 ar
 122   47  122 1
 123   48  123 1
 124   49   50 1
 125   50  124 1
 126   50  125 1
 127   50  126 1

#	End of record

