#	Name: ASD01881651
#	Creating user name:	WinNT
#	Creation time:	15. 06. 2019 19:43

#	Modifying user name:	WinNT
#	Modification time:	15. 06. 2019 19:43

#	Program:	/corina/corina34_cracker 3.40 0067  02.08.2006

@<TRIPOS>MOLECULE
ASD01881651
  46   48    0    0    0
SMALL
NO_CHARGES


@<TRIPOS>ATOM
   1 N1             0.0158     1.2269    -0.5356 N.pl3   
   2 N2             0.0433    -0.0604    -0.4970 N.2     
   3 N3             1.2427    -0.5083    -0.3687 N.2     
   4 C4             2.1013     0.5298    -0.3149 C.ar    
   5 C5             1.3060     1.6863    -0.4239 C.ar    
   6 C6             3.4869     0.6560    -0.1843 C.ar    
   7 C7             4.0556     1.9142    -0.1642 C.ar    
   8 C8             3.2578     3.0507    -0.2729 C.ar    
   9 C9             1.9014     2.9408    -0.4019 C.ar    
  10 C10           -1.1827     2.0569    -0.6799 C.3     
  11 C11           -1.7447     2.3863     0.7046 C.3     
  12 C12           -0.6924     3.1463     1.5145 C.3     
  13 C13           -2.9964     3.2532     0.5539 C.3     
  14 C14           -2.1072     1.0888     1.4297 C.3     
  15 O15            5.4033     2.0444    -0.0370 O.3     
  16 C16            5.9405     3.3642    -0.1452 C.3     
  17 C17            6.0180     3.9988     1.2449 C.3     
  18 F18            6.8450     3.2244     2.0656 F       
  19 F19            6.5440     5.2908     1.1390 F       
  20 F20            4.7358     4.0614     1.8010 F       
  21 C21            7.3217     3.2967    -0.7442 C.ar    
  22 C22            7.7585     4.3003    -1.5886 C.ar    
  23 C23            9.0253     4.2391    -2.1379 C.ar    
  24 C24            9.8562     3.1733    -1.8426 C.ar    
  25 C25            9.4188     2.1693    -0.9977 C.ar    
  26 C26            8.1537     2.2341    -0.4447 C.ar    
  27 Br27          11.5893     3.0887    -2.5943 Br      
  28 Br28           4.5744    -0.8839    -0.0358 Br      
  29 H29            3.7155     4.0288    -0.2554 H       
  30 H30            1.2929     3.8291    -0.4856 H       
  31 H31           -0.9244     2.9813    -1.1965 H       
  32 H32           -1.9324     1.5155    -1.2569 H       
  33 H33           -0.4341     4.0707     0.9979 H       
  34 H34           -1.0927     3.3810     2.5008 H       
  35 H35            0.1993     2.5287     1.6218 H       
  36 H36           -3.7460     2.7118    -0.0231 H       
  37 H37           -3.3967     3.4879     1.5402 H       
  38 H38           -2.7381     4.1776     0.0372 H       
  39 H39           -1.2155     0.4712     1.5371 H       
  40 H40           -2.5076     1.3235     2.4160 H       
  41 H41           -2.8569     0.5474     0.8527 H       
  42 H42            5.2962     3.9675    -0.7846 H       
  43 H43            7.1095     5.1322    -1.8194 H       
  44 H44            9.3663     5.0231    -2.7979 H       
  45 H45           10.0670     1.3368    -0.7671 H       
  46 H46            7.8136     1.4523     0.2183 H       
@<TRIPOS>BOND
   1    1    2 1
   2    1    5 1
   3    1   10 1
   4    2    3 2
   5    3    4 1
   6    4    5 ar
   7    4    6 ar
   8    5    9 ar
   9    6    7 ar
  10    6   28 1
  11    7    8 ar
  12    7   15 1
  13    8    9 ar
  14    8   29 1
  15    9   30 1
  16   10   11 1
  17   10   31 1
  18   10   32 1
  19   11   12 1
  20   11   13 1
  21   11   14 1
  22   12   33 1
  23   12   34 1
  24   12   35 1
  25   13   36 1
  26   13   37 1
  27   13   38 1
  28   14   39 1
  29   14   40 1
  30   14   41 1
  31   15   16 1
  32   16   17 1
  33   16   21 1
  34   16   42 1
  35   17   18 1
  36   17   19 1
  37   17   20 1
  38   21   22 ar
  39   21   26 ar
  40   22   23 ar
  41   22   43 1
  42   23   24 ar
  43   23   44 1
  44   24   25 ar
  45   24   27 1
  46   25   26 ar
  47   25   45 1
  48   26   46 1

#	End of record

