#	Name: ASD01900983
#	Creating user name:	WinNT
#	Creation time:	15. 06. 2019 19:52

#	Modifying user name:	WinNT
#	Modification time:	15. 06. 2019 19:52

#	Program:	/corina/corina34_cracker 3.40 0067  02.08.2006

@<TRIPOS>MOLECULE
ASD01900983
  58   63    0    0    0
SMALL
NO_CHARGES


@<TRIPOS>ATOM
   1 C1             0.0891     1.4912    -1.2680 C.ar    
   2 C2             0.0334     0.1136    -1.2594 C.ar    
   3 C3             1.0234    -0.6269    -0.6326 C.ar    
   4 C4             2.0775     0.0051    -0.0020 C.ar    
   5 C5             2.1467     1.3885     0.0010 C.ar    
   6 C6             1.1514     2.1434    -0.6425 C.ar    
   7 N7             3.1841     2.0601     0.6426 N.pl3   
   8 C8             3.5335     3.4037     0.1755 C.3     
   9 N9             2.3685     4.2094    -0.1827 N.am    
  10 C10            1.2456     3.6138    -0.6387 C.2     
  11 C11            2.4159     5.6028    -0.0516 C.ar    
  12 C12            1.9712     6.2060     1.1175 C.ar    
  13 C13            2.0182     7.5801     1.2460 C.ar    
  14 C14            2.5096     8.3578     0.2077 C.ar    
  15 C15            2.9541     7.7559    -0.9604 C.ar    
  16 C16            2.9130     6.3816    -1.0882 C.ar    
  17 O17            0.3178     4.2871    -1.0450 O.2     
  18 O18            2.5552     9.7108     0.3349 O.3     
  19 C19            4.5249     4.1305     1.0947 C.3     
  20 C20            3.0731    10.4495    -0.7733 C.3     
  21 N21            5.1946     4.5736    -0.1490 N.3     
  22 C22            4.6418     3.4142    -0.8857 C.3     
  23 C23            6.6548     4.4714    -0.0257 C.3     
  24 C24            7.2894     4.6917    -1.3747 C.ar    
  25 C25            7.6427     5.9819    -1.7645 C.ar    
  26 C26            8.2172     6.2155    -2.9763 C.ar    
  27 C27            8.4593     5.1416    -3.8493 C.ar    
  28 C28            8.1004     3.8289    -3.4526 C.ar    
  29 C29            7.5140     3.6265    -2.1920 C.ar    
  30 C30            9.0501     5.3434    -5.1086 C.ar    
  31 C31            9.2691     4.2791    -5.9279 C.ar    
  32 C32            8.9163     2.9884    -5.5378 C.ar    
  33 C33            8.3424     2.7548    -4.3261 C.ar    
  34 H34           -0.6839     2.0623    -1.7607 H       
  35 H35           -0.7882    -0.3925    -1.7445 H       
  36 H36            0.9701    -1.7055    -0.6370 H       
  37 H37            2.8445    -0.5772     0.4871 H       
  38 H38            3.6625     1.6492     1.3796 H       
  39 H39            1.5882     5.6007     1.9257 H       
  40 H40            1.6720     8.0494     2.1550 H       
  41 H41            3.3366     8.3621    -1.7683 H       
  42 H42            3.2636     5.9128    -1.9958 H       
  43 H43            4.0785     4.9436     1.6672 H       
  44 H44            5.1304     3.4608     1.7053 H       
  45 H45            2.4612    10.2587    -1.6550 H       
  46 H46            3.0537    11.5143    -0.5412 H       
  47 H47            4.0994    10.1390    -0.9692 H       
  48 H48            5.2820     2.5323    -0.8615 H       
  49 H49            4.2887     3.6579    -1.8877 H       
  50 H50            7.0142     5.2272     0.6726 H       
  51 H51            6.9199     3.4806     0.3431 H       
  52 H52            7.4576     6.8092    -1.0953 H       
  53 H53            8.4851     7.2210    -3.2653 H       
  54 H54            7.2390     2.6314    -1.8747 H       
  55 H55            9.3284     6.3380    -5.4244 H       
  56 H56            9.7229     4.4371    -6.8951 H       
  57 H57            9.1011     2.1612    -6.2071 H       
  58 H58            8.0746     1.7492    -4.0371 H       
@<TRIPOS>BOND
   1    1    2 ar
   2    1    6 ar
   3    1   34 1
   4    2    3 ar
   5    2   35 1
   6    3    4 ar
   7    3   36 1
   8    4    5 ar
   9    4   37 1
  10    5    7 1
  11    5    6 ar
  12    6   10 1
  13    7    8 1
  14    7   38 1
  15    8    9 1
  16    8   19 1
  17    8   22 1
  18    9   10 am
  19    9   11 1
  20   10   17 2
  21   11   12 ar
  22   11   16 ar
  23   12   13 ar
  24   12   39 1
  25   13   14 ar
  26   13   40 1
  27   14   15 ar
  28   14   18 1
  29   15   16 ar
  30   15   41 1
  31   16   42 1
  32   18   20 1
  33   19   21 1
  34   19   43 1
  35   19   44 1
  36   20   45 1
  37   20   46 1
  38   20   47 1
  39   21   23 1
  40   21   22 1
  41   22   48 1
  42   22   49 1
  43   23   24 1
  44   23   50 1
  45   23   51 1
  46   24   25 ar
  47   24   29 ar
  48   25   26 ar
  49   25   52 1
  50   26   27 ar
  51   26   53 1
  52   27   28 ar
  53   27   30 ar
  54   28   29 ar
  55   28   33 ar
  56   29   54 1
  57   30   31 ar
  58   30   55 1
  59   31   32 ar
  60   31   56 1
  61   32   33 ar
  62   32   57 1
  63   33   58 1

#	End of record

