#	Name: ASD01911200
#	Creating user name:	WinNT
#	Creation time:	15. 06. 2019 19:57

#	Modifying user name:	WinNT
#	Modification time:	15. 06. 2019 19:57

#	Program:	/corina/corina34_cracker 3.40 0067  02.08.2006

@<TRIPOS>MOLECULE
ASD01911200
  48   50    0    0    0
SMALL
NO_CHARGES


@<TRIPOS>ATOM
   1 C1             1.8298    -0.1701    -0.1768 C.ar    
   2 N2             1.3987    -1.3717    -0.4921 N.ar    
   3 C3             1.8971    -2.0419    -1.5241 C.ar    
   4 C4             2.9026    -1.4851    -2.3109 C.ar    
   5 C5             3.3764    -0.2196    -2.0018 C.ar    
   6 C6             2.8279     0.4448    -0.9163 C.ar    
   7 C7             1.3799    -3.3932    -1.8411 C.2     
   8 N8             0.4074    -3.9375    -1.0832 N.am    
   9 C9            -0.1309    -5.1827    -1.4244 C.ar    
  10 C10           -1.4307    -5.5033    -1.0555 C.ar    
  11 C11           -1.9599    -6.7333    -1.3941 C.ar    
  12 C12           -1.1961    -7.6458    -2.1001 C.ar    
  13 C13            0.0999    -7.3291    -2.4686 C.ar    
  14 C14            0.6319    -6.0986    -2.1377 C.ar    
  15 C15           -2.2630    -4.5101    -0.2861 C.3     
  16 N16           -2.8965    -3.5762    -1.2203 N.am    
  17 O17            1.8325    -4.0112    -2.7847 O.2     
  18 Cl18          -1.8643    -9.1910    -2.5241 Cl      
  19 C19           -4.1217    -3.8438    -1.7139 C.2     
  20 C20           -4.7019    -2.9773    -2.7611 C.ar    
  21 C21           -5.4580    -3.5359    -3.7931 C.ar    
  22 C22           -5.9973    -2.7227    -4.7679 C.ar    
  23 C23           -5.7901    -1.3543    -4.7249 C.ar    
  24 C24           -5.0398    -0.7932    -3.7030 C.ar    
  25 C25           -4.5007    -1.5963    -2.7188 C.ar    
  26 O26           -4.7495    -4.7980    -1.2978 O.2     
  27 C27           -2.1981    -2.3513    -1.6179 C.3     
  28 C28           -2.4023    -1.2774    -0.5475 C.3     
  29 Cl29          -6.4721    -0.3374    -5.9555 Cl      
  30 Cl30          -4.7841     0.9233    -3.6574 Cl      
  31 H31            1.3972     0.3465     0.6672 H       
  32 H32            3.3076    -2.0317    -3.1497 H       
  33 H33            4.1554     0.2382    -2.5935 H       
  34 H34            3.1746     1.4322    -0.6492 H       
  35 H35            0.0807    -3.4657    -0.3012 H       
  36 H36           -2.9707    -6.9833    -1.1072 H       
  37 H37            0.6941    -8.0434    -3.0191 H       
  38 H38            1.6431    -5.8518    -2.4258 H       
  39 H39           -3.0324    -5.0392     0.2763 H       
  40 H40           -1.6245    -3.9576     0.4031 H       
  41 H41           -5.6202    -4.6030    -3.8283 H       
  42 H42           -6.5820    -3.1542    -5.5668 H       
  43 H43           -3.9162    -1.1587    -1.9230 H       
  44 H44           -1.1335    -2.5588    -1.7259 H       
  45 H45           -2.5976    -1.9975    -2.5684 H       
  46 H46           -1.9823    -0.3335    -0.8950 H       
  47 H47           -3.4682    -1.1525    -0.3568 H       
  48 H48           -1.9019    -1.5811     0.3720 H       
@<TRIPOS>BOND
   1    1    2 ar
   2    1    6 ar
   3    1   31 1
   4    2    3 ar
   5    3    4 ar
   6    3    7 1
   7    4    5 ar
   8    4   32 1
   9    5    6 ar
  10    5   33 1
  11    6   34 1
  12    7    8 am
  13    7   17 2
  14    8    9 1
  15    8   35 1
  16    9   10 ar
  17    9   14 ar
  18   10   11 ar
  19   10   15 1
  20   11   12 ar
  21   11   36 1
  22   12   13 ar
  23   12   18 1
  24   13   14 ar
  25   13   37 1
  26   14   38 1
  27   15   16 1
  28   15   39 1
  29   15   40 1
  30   16   19 am
  31   16   27 1
  32   19   20 1
  33   19   26 2
  34   20   21 ar
  35   20   25 ar
  36   21   22 ar
  37   21   41 1
  38   22   23 ar
  39   22   42 1
  40   23   24 ar
  41   23   29 1
  42   24   25 ar
  43   24   30 1
  44   25   43 1
  45   27   28 1
  46   27   44 1
  47   27   45 1
  48   28   46 1
  49   28   47 1
  50   28   48 1

#	End of record

