#	Name: ASD00170740
#	Creating user name:	WinNT
#	Creation time:	15. 06. 2019 18:32

#	Modifying user name:	WinNT
#	Modification time:	15. 06. 2019 18:32

#	Program:	/corina/corina34_cracker 3.40 0067  02.08.2006

@<TRIPOS>MOLECULE
ASD00170740
  40   40    0    0    0
SMALL
NO_CHARGES


@<TRIPOS>ATOM
   1 N1            -0.5598    -0.9177     0.1725 N.1     
   2 C2            -0.2678     0.1792     0.1254 C.1     
   3 C3             0.1003     1.5618     0.0661 C.2     
   4 C4             1.4018     1.9119     0.0288 C.2     
   5 C5             2.4699     0.8558     0.1503 C.3     
   6 C6             2.9227     0.4252    -1.2463 C.3     
   7 C7             3.4844     1.6349    -1.9959 C.3     
   8 C8             4.0071    -0.6470    -1.1229 C.3     
   9 C9             1.7291    -0.1429    -2.0167 C.3     
  10 C10            1.7883     3.3593    -0.1345 C.3     
  11 C11           -0.9454     2.6036     0.0397 C.2     
  12 O12           -1.0528     3.3807     0.9684 O.2     
  13 C13           -1.8615     2.7017    -1.1155 C.ar    
  14 C14           -1.8083     1.7498    -2.1358 C.ar    
  15 C15           -2.6668     1.8473    -3.2111 C.ar    
  16 C16           -3.5789     2.8854    -3.2804 C.ar    
  17 C17           -3.6368     3.8327    -2.2729 C.ar    
  18 C18           -2.7887     3.7440    -1.1891 C.ar    
  19 C19           -4.6333     4.9601    -2.3574 C.3     
  20 F20           -5.3799     4.8353    -3.5339 F       
  21 F21           -5.4908     4.9083    -1.2532 F       
  22 F22           -3.9542     6.1832    -2.3635 F       
  23 H23            3.3203     1.2606     0.6992 H       
  24 H24            2.0697    -0.0060     0.6843 H       
  25 H25            4.3347     2.0397    -1.4470 H       
  26 H26            3.8070     1.3282    -2.9909 H       
  27 H27            2.7118     2.3988    -2.0838 H       
  28 H28            3.6069    -1.5088    -0.5889 H       
  29 H29            4.3297    -0.9537    -2.1179 H       
  30 H30            4.8574    -0.2422    -0.5740 H       
  31 H31            0.9565     0.6209    -2.1046 H       
  32 H32            2.0516    -0.4497    -3.0117 H       
  33 H33            1.3289    -1.0048    -1.4827 H       
  34 H34            1.7834     3.8488     0.8394 H       
  35 H35            2.7865     3.4221    -0.5678 H       
  36 H36            1.0745     3.8539    -0.7933 H       
  37 H37           -1.0964     0.9393    -2.0833 H       
  38 H38           -2.6268     1.1117    -4.0009 H       
  39 H39           -4.2485     2.9572    -4.1247 H       
  40 H40           -2.8350     4.4837    -0.4036 H       
@<TRIPOS>BOND
   1    1    2 3
   2    2    3 1
   3    3    4 2
   4    3   11 1
   5    4    5 1
   6    4   10 1
   7    5    6 1
   8    5   23 1
   9    5   24 1
  10    6    7 1
  11    6    8 1
  12    6    9 1
  13    7   25 1
  14    7   26 1
  15    7   27 1
  16    8   28 1
  17    8   29 1
  18    8   30 1
  19    9   31 1
  20    9   32 1
  21    9   33 1
  22   10   34 1
  23   10   35 1
  24   10   36 1
  25   11   12 2
  26   11   13 1
  27   13   14 ar
  28   13   18 ar
  29   14   15 ar
  30   14   37 1
  31   15   16 ar
  32   15   38 1
  33   16   17 ar
  34   16   39 1
  35   17   18 ar
  36   17   19 1
  37   18   40 1
  38   19   20 1
  39   19   21 1
  40   19   22 1

#	End of record

