#	Name: ASD03331466
#	Creating user name:	WinNT
#	Creation time:	15. 06. 2019 20:39

#	Modifying user name:	WinNT
#	Modification time:	15. 06. 2019 20:39

#	Program:	/corina/corina34_cracker 3.40 0067  02.08.2006

@<TRIPOS>MOLECULE
ASD03331466
  50   53    0    0    0
SMALL
NO_CHARGES


@<TRIPOS>ATOM
   1 N1             0.0228     1.3988    -0.0209 N.pl3   
   2 C2            -0.0316     0.0517    -0.0870 C.2     
   3 C3             1.2581    -0.4352    -0.0388 C.2     
   4 C4             2.1215     0.6876     0.0613 C.2     
   5 C5             1.3366     1.7951     0.0700 C.2     
   6 C6             1.6622    -1.8493    -0.0824 C.2     
   7 O7             0.8186    -2.7201    -0.1692 O.2     
   8 O8             2.9678    -2.1791    -0.0261 O.3     
   9 C9             1.8138     3.1918     0.1617 C.ar    
  10 C10            2.7427     3.5527     1.1404 C.ar    
  11 C11            3.1843     4.8582     1.2202 C.ar    
  12 C12            2.7078     5.8084     0.3329 C.ar    
  13 C13            1.7870     5.4560    -0.6391 C.ar    
  14 C14            1.3423     4.1532    -0.7327 C.ar    
  15 Cl15           3.2668     7.4484     0.4400 Cl      
  16 Cl16           3.3399     2.3625     2.2541 Cl      
  17 C17           -1.0840     2.2580    -0.0469 C.ar    
  18 C18           -1.4032     3.0148     1.0726 C.ar    
  19 C19           -2.4946     3.8608     1.0445 C.ar    
  20 C20           -3.2697     3.9545    -0.0981 C.ar    
  21 C21           -2.9536     3.2012    -1.2151 C.ar    
  22 C22           -1.8599     2.3580    -1.1939 C.ar    
  23 Cl23          -4.6412     5.0183    -0.1300 Cl      
  24 C24           -1.2854    -0.7775    -0.1941 C.3     
  25 O25           -1.6085    -0.9766    -1.5718 O.3     
  26 C26           -2.7876    -1.7551    -1.7856 C.3     
  27 C27           -3.0318    -1.9009    -3.2655 C.ar    
  28 C28           -2.4829    -2.9658    -3.9551 C.ar    
  29 C29           -2.7069    -3.0994    -5.3126 C.ar    
  30 C30           -3.4802    -2.1684    -5.9804 C.ar    
  31 C31           -4.0300    -1.1040    -5.2907 C.ar    
  32 C32           -3.8095    -0.9727    -3.9324 C.ar    
  33 H33            3.1997     0.6647     0.1199 H       
  34 H34            3.1845    -3.1210    -0.0580 H       
  35 H35            3.9025     5.1389     1.9764 H       
  36 H36            1.4188     6.2017    -1.3280 H       
  37 H37            0.6273     3.8790    -1.4943 H       
  38 H38           -0.7988     2.9418     1.9646 H       
  39 H39           -2.7435     4.4494     1.9151 H       
  40 H40           -3.5600     3.2760    -2.1056 H       
  41 H41           -1.6110     1.7737    -2.0674 H       
  42 H42           -1.1241    -1.7434     0.2845 H       
  43 H43           -2.1069    -0.2594     0.3006 H       
  44 H44           -2.6575    -2.7413    -1.3399 H       
  45 H45           -3.6403    -1.2574    -1.3239 H       
  46 H46           -1.8787    -3.6931    -3.4333 H       
  47 H47           -2.2774    -3.9310    -5.8514 H       
  48 H48           -3.6547    -2.2724    -7.0412 H       
  49 H49           -4.6339    -0.3764    -5.8126 H       
  50 H50           -4.2420    -0.1432    -3.3928 H       
@<TRIPOS>BOND
   1    1    2 1
   2    1    5 1
   3    1   17 1
   4    2    3 2
   5    2   24 1
   6    3    4 1
   7    3    6 1
   8    4    5 2
   9    4   33 1
  10    5    9 1
  11    6    7 2
  12    6    8 1
  13    8   34 1
  14    9   10 ar
  15    9   14 ar
  16   10   11 ar
  17   10   16 1
  18   11   12 ar
  19   11   35 1
  20   12   13 ar
  21   12   15 1
  22   13   14 ar
  23   13   36 1
  24   14   37 1
  25   17   18 ar
  26   17   22 ar
  27   18   19 ar
  28   18   38 1
  29   19   20 ar
  30   19   39 1
  31   20   21 ar
  32   20   23 1
  33   21   22 ar
  34   21   40 1
  35   22   41 1
  36   24   25 1
  37   24   42 1
  38   24   43 1
  39   25   26 1
  40   26   27 1
  41   26   44 1
  42   26   45 1
  43   27   28 ar
  44   27   32 ar
  45   28   29 ar
  46   28   46 1
  47   29   30 ar
  48   29   47 1
  49   30   31 ar
  50   30   48 1
  51   31   32 ar
  52   31   49 1
  53   32   50 1

#	End of record

