#	Name: ASD07930954
#	Creating user name:	WinNT
#	Creation time:	15. 06. 2019 21:13

#	Modifying user name:	WinNT
#	Modification time:	15. 06. 2019 21:13

#	Program:	/corina/corina34_cracker 3.40 0067  02.08.2006

@<TRIPOS>MOLECULE
ASD07930954
  30   31    0    0    0
SMALL
NO_CHARGES


@<TRIPOS>ATOM
   1 N1            -0.0160     1.3293     0.0094 N.am    
   2 C2             0.0935     0.1837    -0.6643 C.2     
   3 C3             1.3566    -0.6266    -0.7222 C.3     
   4 C4             2.5485     0.2360    -0.2997 C.3     
   5 C5             2.1916     0.9472     1.0111 C.3     
   6 C6             1.0812     1.9608     0.7317 C.3     
   7 O7            -0.8792    -0.2261    -1.2618 O.2     
   8 C8            -1.2609     1.9682     0.0186 C.ar    
   9 C9            -1.5697     2.9045    -0.9594 C.ar    
  10 C10           -2.7993     3.5334    -0.9474 C.ar    
  11 C11           -3.7222     3.2320     0.0372 C.ar    
  12 C12           -3.4177     2.3001     1.0124 C.ar    
  13 C13           -2.1923     1.6631     1.0024 C.ar    
  14 C14            3.7765    -0.6513    -0.0866 C.3     
  15 O15            4.1608    -1.2398    -1.3308 O.3     
  16 H16            1.2706    -1.4798    -0.0494 H       
  17 H17            1.5111    -0.9840    -1.7403 H       
  18 H18            2.7588     0.9751    -1.0728 H       
  19 H19            1.8441     0.2160     1.7410 H       
  20 H20            3.0699     1.4641     1.3975 H       
  21 H21            1.4825     2.7790     0.1338 H       
  22 H22            0.7095     2.3575     1.6764 H       
  23 H23           -0.8490     3.1410    -1.7282 H       
  24 H24           -3.0401     4.2617    -1.7077 H       
  25 H25           -4.6827     3.7256     0.0447 H       
  26 H26           -4.1407     2.0668     1.7801 H       
  27 H27           -1.9569     0.9319     1.7616 H       
  28 H28            4.5983    -0.0479     0.2990 H       
  29 H29            3.5367    -1.4381     0.6287 H       
  30 H30            4.9347    -1.8165    -1.2708 H       
@<TRIPOS>BOND
   1    1    2 am
   2    1    6 1
   3    1    8 1
   4    2    3 1
   5    2    7 2
   6    3    4 1
   7    3   16 1
   8    3   17 1
   9    4    5 1
  10    4   14 1
  11    4   18 1
  12    5    6 1
  13    5   19 1
  14    5   20 1
  15    6   21 1
  16    6   22 1
  17    8    9 ar
  18    8   13 ar
  19    9   10 ar
  20    9   23 1
  21   10   11 ar
  22   10   24 1
  23   11   12 ar
  24   11   25 1
  25   12   13 ar
  26   12   26 1
  27   13   27 1
  28   14   15 1
  29   14   28 1
  30   14   29 1
  31   15   30 1

#	End of record

