#	Name: ASD01882331
#	Creating user name:	WinNT
#	Creation time:	15. 06. 2019 19:44

#	Modifying user name:	WinNT
#	Modification time:	15. 06. 2019 19:44

#	Program:	/corina/corina34_cracker 3.40 0067  02.08.2006

@<TRIPOS>MOLECULE
ASD01882331
  55   60    0    0    0
SMALL
NO_CHARGES


@<TRIPOS>ATOM
   1 C1             0.2085     1.6216    -0.2519 C.3     
   2 C2             0.1971     0.0913    -0.2417 C.3     
   3 C3             1.5248     0.8461    -0.2794 C.3     
   4 N4             2.2871     0.8337    -1.5361 N.3     
   5 C5             3.2105     1.9764    -1.5960 C.3     
   6 C6             4.1843     1.9105    -0.4161 C.3     
   7 N7             3.4167     1.8833     0.8374 N.pl3   
   8 C8             2.3791     0.8497     0.9940 C.3     
   9 C9             1.4319     0.8228    -2.6403 C.ar    
  10 C10            0.7944     1.9910    -3.0386 C.ar    
  11 C11           -0.0502     1.9768    -4.1312 C.ar    
  12 C12           -0.2617     0.8014    -4.8284 C.ar    
  13 C13            0.3713    -0.3633    -4.4346 C.ar    
  14 C14            1.2213    -0.3550    -3.3461 C.ar    
  15 C15            5.0711     3.7176     3.5547 C.2     
  16 C16            4.8445     2.7733     2.5390 C.2     
  17 C17            3.6639     2.8077     1.8478 C.2     
  18 C18            2.6983     3.7874     2.1662 C.2     
  19 C19            2.9365     4.6833     3.1440 C.2     
  20 N20            4.1103     4.6575     3.8390 N.pl3   
  21 N21            5.8022     4.9396     5.1422 N.2     
  22 N22            6.0795     3.9375     4.3844 N.2     
  23 C23            4.6189     5.4138     4.8539 C.2     
  24 C24            5.8886     1.7361     2.2147 C.3     
  25 F25            6.6897     2.1938     1.1630 F       
  26 F26            6.6848     1.5075     3.3420 F       
  27 F27            5.2606     0.5441     1.8378 F       
  28 C28            3.9399     6.5816     5.5218 C.3     
  29 C29            3.1182     6.0815     6.7116 C.3     
  30 C30            2.4431     7.1323     7.5954 C.3     
  31 C31            1.6011     6.2710     6.6519 C.3     
  32 H32           -0.1007     2.1213    -1.1699 H       
  33 H33           -0.0551     2.1331     0.6739 H       
  34 H34           -0.0740    -0.4039     0.6907 H       
  35 H35           -0.1196    -0.4158    -1.1531 H       
  36 H36            3.7700     1.9425    -2.5309 H       
  37 H37            2.6424     2.9053    -1.5466 H       
  38 H38            4.7897     1.0073    -0.4928 H       
  39 H39            4.8318     2.7873    -0.4282 H       
  40 H40            1.7546     1.0814     1.8568 H       
  41 H41            2.8469    -0.1258     1.1273 H       
  42 H42            0.9589     2.9092    -2.4943 H       
  43 H43           -0.5464     2.8846    -4.4412 H       
  44 H44           -0.9230     0.7930    -5.6822 H       
  45 H45            0.2040    -1.2795    -4.9813 H       
  46 H46            1.7189    -1.2639    -3.0418 H       
  47 H47            1.7651     3.8191     1.6235 H       
  48 H48            2.1914     5.4287     3.3798 H       
  49 H49            4.6926     7.2882     5.8714 H       
  50 H50            3.2814     7.0760     4.8076 H       
  51 H51            3.4946     5.1815     7.1978 H       
  52 H52            2.3750     6.9233     8.6630 H       
  53 H53            2.5844     8.1798     7.3293 H       
  54 H54            1.1885     6.7519     5.7650 H       
  55 H55            0.9791     5.4954     7.0988 H       
@<TRIPOS>BOND
   1    1    2 1
   2    1    3 1
   3    1   32 1
   4    1   33 1
   5    2    3 1
   6    2   34 1
   7    2   35 1
   8    3    4 1
   9    3    8 1
  10    4    5 1
  11    4    9 1
  12    5    6 1
  13    5   36 1
  14    5   37 1
  15    6    7 1
  16    6   38 1
  17    6   39 1
  18    7    8 1
  19    7   17 1
  20    8   40 1
  21    8   41 1
  22    9   10 ar
  23    9   14 ar
  24   10   11 ar
  25   10   42 1
  26   11   12 ar
  27   11   43 1
  28   12   13 ar
  29   12   44 1
  30   13   14 ar
  31   13   45 1
  32   14   46 1
  33   15   16 1
  34   15   20 1
  35   15   22 2
  36   16   17 2
  37   16   24 1
  38   17   18 1
  39   18   19 2
  40   18   47 1
  41   19   20 1
  42   19   48 1
  43   20   23 1
  44   21   22 1
  45   21   23 2
  46   23   28 1
  47   24   25 1
  48   24   26 1
  49   24   27 1
  50   28   29 1
  51   28   49 1
  52   28   50 1
  53   29   30 1
  54   29   31 1
  55   29   51 1
  56   30   31 1
  57   30   52 1
  58   30   53 1
  59   31   54 1
  60   31   55 1

#	End of record

