#	Name: ASD08710104
#	Creating user name:	WinNT
#	Creation time:	15. 06. 2019 21:19

#	Modifying user name:	WinNT
#	Modification time:	15. 06. 2019 21:19

#	Program:	/corina/corina34_cracker 3.40 0067  02.08.2006

@<TRIPOS>MOLECULE
ASD08710104
  56   59    0    0    0
SMALL
NO_CHARGES


@<TRIPOS>ATOM
   1 N1             0.4039     0.7143     0.5950 N.3     
   2 C2             0.4182     1.5877    -0.5875 C.3     
   3 C3             1.3292     0.9766    -1.6555 C.3     
   4 O4             0.8751    -0.3441    -1.9633 O.3     
   5 C5             0.8492    -1.2217    -0.8344 C.3     
   6 C6            -0.0666    -0.6330     0.2419 C.3     
   7 C7            -0.3685     1.2606     1.6060 C.ar    
   8 C8            -0.5049     0.5763     2.8128 C.ar    
   9 C9            -1.2688     1.1194     3.8100 C.ar    
  10 C10           -1.8917     2.3556     3.5784 C.ar    
  11 C11           -1.7115     2.9848     2.3458 C.ar    
  12 N12           -0.9638     2.4299     1.4147 N.ar    
  13 C13           -2.7254     2.9807     4.6229 C.2     
  14 O14           -2.6474     4.1766     4.8282 O.2     
  15 N15           -3.5735     2.2262     5.3494 N.am    
  16 C16           -4.3343     2.8150     6.4604 C.3     
  17 C17           -5.8267     2.5492     6.2276 C.3     
  18 N18           -6.0077     1.1230     5.9226 N.am    
  19 C19           -5.2470     0.5342     4.8116 C.3     
  20 C20           -3.7587     0.8013     5.0408 C.3     
  21 C21           -6.6151     2.9087     7.4886 C.3     
  22 S22           -7.0499     0.1959     6.8153 S.o2    
  23 O23           -6.6969    -1.1578     6.5658 O.2     
  24 O24           -7.0781     0.7644     8.1173 O.2     
  25 C25           -8.6606     0.4229     6.1382 C.ar    
  26 C26           -9.1097    -0.4089     5.1295 C.ar    
  27 C27          -10.3731    -0.2313     4.5980 C.ar    
  28 C28          -11.1885     0.7792     5.0757 C.ar    
  29 C29          -10.7385     1.6114     6.0852 C.ar    
  30 C30           -9.4770     1.4292     6.6198 C.ar    
  31 Cl31         -12.7753     1.0033     4.4082 Cl      
  32 H32           -0.5933     1.6820    -0.9825 H       
  33 H33            0.7940     2.5721    -0.3084 H       
  34 H34            1.2982     1.5911    -2.5553 H       
  35 H35            2.3514     0.9318    -1.2797 H       
  36 H36            0.4710    -2.1972    -1.1403 H       
  37 H37            1.8574    -1.3305    -0.4347 H       
  38 H38           -0.0448    -1.2696     1.1264 H       
  39 H39           -1.0859    -0.5741    -0.1399 H       
  40 H40           -0.0125    -0.3737     2.9593 H       
  41 H41           -1.3898     0.6082     4.7536 H       
  42 H42           -2.1857     3.9364     2.1556 H       
  43 H43           -4.0234     2.3575     7.3996 H       
  44 H44           -4.1555     3.8896     6.4972 H       
  45 H45           -6.1789     3.1501     5.3892 H       
  46 H46           -5.4258    -0.5405     4.7748 H       
  47 H47           -5.5579     0.9916     3.8724 H       
  48 H48           -3.1999     0.5463     4.1404 H       
  49 H49           -3.4059     0.1971     5.8767 H       
  50 H50           -6.5986     3.9892     7.6317 H       
  51 H51           -7.6463     2.5723     7.3807 H       
  52 H52           -6.1622     2.4209     8.3517 H       
  53 H53           -8.4730    -1.1975     4.7564 H       
  54 H54          -10.7237    -0.8810     3.8097 H       
  55 H55          -11.3745     2.4004     6.4585 H       
  56 H56           -9.1273     2.0759     7.4109 H       
@<TRIPOS>BOND
   1    1    2 1
   2    1    6 1
   3    1    7 1
   4    2    3 1
   5    2   32 1
   6    2   33 1
   7    3    4 1
   8    3   34 1
   9    3   35 1
  10    4    5 1
  11    5    6 1
  12    5   36 1
  13    5   37 1
  14    6   38 1
  15    6   39 1
  16    7    8 ar
  17    7   12 ar
  18    8    9 ar
  19    8   40 1
  20    9   10 ar
  21    9   41 1
  22   10   11 ar
  23   10   13 1
  24   11   12 ar
  25   11   42 1
  26   13   14 2
  27   13   15 am
  28   15   16 1
  29   15   20 1
  30   16   17 1
  31   16   43 1
  32   16   44 1
  33   17   18 1
  34   17   21 1
  35   17   45 1
  36   18   19 1
  37   18   22 am
  38   19   20 1
  39   19   46 1
  40   19   47 1
  41   20   48 1
  42   20   49 1
  43   21   50 1
  44   21   51 1
  45   21   52 1
  46   22   23 2
  47   22   24 2
  48   22   25 1
  49   25   26 ar
  50   25   30 ar
  51   26   27 ar
  52   26   53 1
  53   27   28 ar
  54   27   54 1
  55   28   29 ar
  56   28   31 1
  57   29   30 ar
  58   29   55 1
  59   30   56 1

#	End of record

