#	Name: ASD01884698
#	Creating user name:	WinNT
#	Creation time:	15. 06. 2019 19:48

#	Modifying user name:	WinNT
#	Modification time:	15. 06. 2019 19:48

#	Program:	/corina/corina34_cracker 3.40 0067  02.08.2006

@<TRIPOS>MOLECULE
ASD01884698
  39   41    0    0    0
SMALL
NO_CHARGES


@<TRIPOS>ATOM
   1 C1            -0.0164     1.3564     0.0095 C.2     
   2 C2             0.0021    -0.0041     0.0020 C.2     
   3 C3             1.2485    -0.6745    -0.0135 C.2     
   4 C4             2.4153     0.0615    -0.0207 C.2     
   5 N5             2.3724     1.4106    -0.0130 N.am    
   6 C6             1.1977     2.0664     0.0017 C.2     
   7 O7             1.1856     3.2867     0.0084 O.2     
   8 C8             1.2995    -2.1473    -0.0214 C.2     
   9 C9             3.6239     2.1722    -0.0204 C.3     
  10 C10            4.0400     2.4410    -1.4436 C.ar    
  11 C11            3.6085     3.5869    -2.0852 C.ar    
  12 C12            3.9901     3.8334    -3.3908 C.ar    
  13 C13            4.8036     2.9343    -4.0546 C.ar    
  14 C14            5.2358     1.7888    -3.4127 C.ar    
  15 C15            4.8577     1.5444    -2.1057 C.ar    
  16 C16            0.1606    -2.8585    -0.0139 C.2     
  17 C17            0.2116    -4.3314    -0.0218 C.ar    
  18 C18           -0.9715    -5.0750    -0.0140 C.ar    
  19 C19            1.4433    -4.9912    -0.0429 C.ar    
  20 C20            1.4832    -6.3698    -0.0501 C.ar    
  21 C21            0.3075    -7.0995    -0.0370 C.ar    
  22 C22           -0.9160    -6.4530    -0.0215 C.ar    
  23 H23           -0.9568     1.8874     0.0168 H       
  24 H24           -0.9212    -0.5644     0.0082 H       
  25 H25            3.3691    -0.4450    -0.0321 H       
  26 H26            2.2529    -2.6546    -0.0332 H       
  27 H27            3.4763     3.1185     0.4999 H       
  28 H28            4.4016     1.5980     0.4833 H       
  29 H29            2.9730     4.2894    -1.5666 H       
  30 H30            3.6525     4.7283    -3.8922 H       
  31 H31            5.1012     3.1265    -5.0748 H       
  32 H32            5.8711     1.0861    -3.9315 H       
  33 H33            5.1954     0.6495    -1.6043 H       
  34 H34           -0.7927    -2.3513    -0.0021 H       
  35 H35           -1.9271    -4.5717    -0.0019 H       
  36 H36            2.3617    -4.4230    -0.0538 H       
  37 H37            2.4343    -6.8811    -0.0664 H       
  38 H38            0.3448    -8.1788    -0.0435 H       
  39 H39           -1.8295    -7.0290    -0.0109 H       
@<TRIPOS>BOND
   1    1    2 2
   2    1    6 1
   3    1   23 1
   4    2    3 1
   5    2   24 1
   6    3    4 2
   7    3    8 1
   8    4    5 1
   9    4   25 1
  10    5    6 am
  11    5    9 1
  12    6    7 2
  13    8   16 2
  14    8   26 1
  15    9   10 1
  16    9   27 1
  17    9   28 1
  18   10   11 ar
  19   10   15 ar
  20   11   12 ar
  21   11   29 1
  22   12   13 ar
  23   12   30 1
  24   13   14 ar
  25   13   31 1
  26   14   15 ar
  27   14   32 1
  28   15   33 1
  29   16   17 1
  30   16   34 1
  31   17   18 ar
  32   17   19 ar
  33   18   22 ar
  34   18   35 1
  35   19   20 ar
  36   19   36 1
  37   20   21 ar
  38   20   37 1
  39   21   22 ar
  40   21   38 1
  41   22   39 1

#	End of record

