#	Name: ASD01812816
#	Creating user name:	WinNT
#	Creation time:	15. 06. 2019 19:29

#	Modifying user name:	WinNT
#	Modification time:	15. 06. 2019 19:29

#	Program:	/corina/corina34_cracker 3.40 0067  02.08.2006

@<TRIPOS>MOLECULE
ASD01812816
  51   55    0    0    0
SMALL
NO_CHARGES


@<TRIPOS>ATOM
   1 N1            -0.0158     1.3131     0.0093 N.ar    
   2 C2             0.0021    -0.0041     0.0020 C.ar    
   3 N3             1.1297    -0.6934    -0.0120 N.ar    
   4 C4             2.2937    -0.0788    -0.0198 C.ar    
   5 C5             2.3340     1.3184    -0.0131 C.ar    
   6 C6             1.1134     2.0143     0.0022 C.ar    
   7 C7             3.7270    -0.5433    -0.0361 C.3     
   8 N8             4.5517     0.6712    -0.0379 N.am    
   9 C9             3.7399     1.7438    -0.0246 C.2     
  10 C10            6.0161     0.7089    -0.0519 C.3     
  11 C11            6.5045     0.7290    -1.4774 C.ar    
  12 C12            6.6970     1.9371    -2.1229 C.ar    
  13 C13            7.1442     1.9612    -3.4285 C.ar    
  14 C14            7.4016     0.7659    -4.0962 C.ar    
  15 C15            7.2060    -0.4481    -3.4413 C.ar    
  16 C16            6.7639    -0.4606    -2.1338 C.ar    
  17 O17            1.0880     3.3668     0.0093 O.3     
  18 O18            4.1161     2.9000    -0.0228 O.2     
  19 C19            7.8822     0.7857    -5.5005 C.2     
  20 C20            8.1706    -0.2945    -6.2834 C.2     
  21 N21            8.1155     1.8716    -6.2592 N.2     
  22 N22            8.5217     1.4880    -7.4176 N.2     
  23 N23            8.5639     0.2036    -7.4773 N.pl3   
  24 C24            8.9752    -0.5862    -8.6407 C.3     
  25 C25           -0.1971     3.9915     0.0245 C.3     
  26 C26           -0.0277     5.4890     0.0304 C.ar    
  27 C27           -1.1417     6.3116     0.0450 C.ar    
  28 C28           -0.9858     7.6867     0.0510 C.ar    
  29 C29            0.2839     8.2384     0.0423 C.ar    
  30 C30            1.3962     7.4141     0.0278 C.ar    
  31 C31            1.2393     6.0407     0.0272 C.ar    
  32 F32           -2.3802     5.7719     0.0530 F       
  33 F33            0.4376     9.5806     0.0477 F       
  34 H34           -0.9363    -0.5387     0.0081 H       
  35 H35            3.9381    -1.1382     0.8526 H       
  36 H36            3.9208    -1.1292    -0.9346 H       
  37 H37            6.3614     1.6053     0.4631 H       
  38 H38            6.4071    -0.1740     0.4537 H       
  39 H39            6.4968     2.8631    -1.6045 H       
  40 H40            7.2938     2.9050    -3.9317 H       
  41 H41            7.4037    -1.3776    -3.9544 H       
  42 H42            6.6165    -1.4010    -1.6236 H       
  43 H43            8.0994    -1.3357    -6.0055 H       
  44 H44            8.1040    -0.8034    -9.2587 H       
  45 H45            9.7029    -0.0220    -9.2240 H       
  46 H46            9.4246    -1.5207    -8.3049 H       
  47 H47           -0.7568     3.6927    -0.8618 H       
  48 H48           -0.7402     3.6838     0.9180 H       
  49 H49           -1.8540     8.3290     0.0620 H       
  50 H50            2.3868     7.8442     0.0210 H       
  51 H51            2.1075     5.3984     0.0203 H       
@<TRIPOS>BOND
   1    1    2 ar
   2    1    6 ar
   3    2    3 ar
   4    2   34 1
   5    3    4 ar
   6    4    7 1
   7    4    5 ar
   8    5    6 ar
   9    5    9 1
  10    6   17 1
  11    7    8 1
  12    7   35 1
  13    7   36 1
  14    8    9 am
  15    8   10 1
  16    9   18 2
  17   10   11 1
  18   10   37 1
  19   10   38 1
  20   11   12 ar
  21   11   16 ar
  22   12   13 ar
  23   12   39 1
  24   13   14 ar
  25   13   40 1
  26   14   15 ar
  27   14   19 1
  28   15   16 ar
  29   15   41 1
  30   16   42 1
  31   17   25 1
  32   19   21 1
  33   19   20 2
  34   20   23 1
  35   20   43 1
  36   21   22 2
  37   22   23 1
  38   23   24 1
  39   24   44 1
  40   24   45 1
  41   24   46 1
  42   25   26 1
  43   25   47 1
  44   25   48 1
  45   26   27 ar
  46   26   31 ar
  47   27   28 ar
  48   27   32 1
  49   28   29 ar
  50   28   49 1
  51   29   30 ar
  52   29   33 1
  53   30   31 ar
  54   30   50 1
  55   31   51 1

#	End of record

