#	Name: ASD07930780
#	Creating user name:	WinNT
#	Creation time:	15. 06. 2019 21:13

#	Modifying user name:	WinNT
#	Modification time:	15. 06. 2019 21:13

#	Program:	/corina/corina34_cracker 3.40 0067  02.08.2006

@<TRIPOS>MOLECULE
ASD07930780
  43   45    0    0    0
SMALL
NO_CHARGES


@<TRIPOS>ATOM
   1 C1            -0.0886     1.5071    -0.0322 C.3     
   2 N2             0.7467    -0.3704    -2.1974 N.2     
   3 N3            -0.9196    -1.7518    -1.3161 N.pl3   
   4 C4            -0.9273    -2.7886    -0.2789 C.3     
   5 C5            -1.2405    -2.1441     1.0786 C.3     
   6 S6            -0.0157    -0.8324     1.3842 S.o2    
   7 N7            -0.0535     0.0425    -0.0334 N.am    
   8 C8            -0.0507    -0.6847    -1.2153 C.2     
   9 C9             0.4450    -3.4626    -0.2200 C.3     
  10 C10           -1.9804    -3.8168    -0.6028 C.ar    
  11 N11           -2.9653    -4.0304     0.2484 N.ar    
  12 C12           -3.9121    -4.9237     0.0050 C.ar    
  13 C13           -3.8955    -5.6709    -1.1678 C.ar    
  14 C14           -2.8749    -5.4690    -2.0799 C.ar    
  15 C15           -1.9050    -4.5191    -1.7893 C.ar    
  16 O16           -0.4825     0.0725     2.3753 O.2     
  17 O17            1.2981    -1.3714     1.4367 O.2     
  18 N18           -4.9326    -5.1169     0.9314 N.pl3   
  19 C19           -4.8958    -4.4584     2.1502 C.ar    
  20 C20           -5.9815    -4.5662     3.0358 C.ar    
  21 C21           -5.9213    -3.8921     4.2610 C.ar    
  22 C22           -4.7909    -3.1468     4.5463 C.ar    
  23 C23           -3.7622    -3.0888     3.6230 C.ar    
  24 N24           -3.8358    -3.7357     2.4762 N.ar    
  25 C25           -7.1287    -5.3510     2.6910 C.1     
  26 N26           -8.0387    -5.9735     2.4174 N.1     
  27 H27            0.9300     1.8949    -0.0441 H       
  28 H28           -0.6216     1.8585    -0.9156 H       
  29 H29           -0.6003     1.8575     0.8642 H       
  30 H30            0.7353    -0.8898    -3.0165 H       
  31 H31           -1.5216    -1.8182    -2.0738 H       
  32 H32           -2.2420    -1.7144     1.0589 H       
  33 H33           -1.1779    -2.8958     1.8654 H       
  34 H34            1.2055    -2.7183     0.0163 H       
  35 H35            0.4387    -4.2330     0.5511 H       
  36 H36            0.6686    -3.9166    -1.1854 H       
  37 H37           -4.6686    -6.3991    -1.3637 H       
  38 H38           -2.8358    -6.0348    -2.9990 H       
  39 H39           -1.0953    -4.3372    -2.4805 H       
  40 H40           -5.6696    -5.7124     0.7240 H       
  41 H41           -6.7372    -3.9519     4.9661 H       
  42 H42           -4.7124    -2.6141     5.4825 H       
  43 H43           -2.8807    -2.5065     3.8475 H       
@<TRIPOS>BOND
   1    1    7 1
   2    1   27 1
   3    1   28 1
   4    1   29 1
   5    2    8 2
   6    2   30 1
   7    3    4 1
   8    3    8 1
   9    3   31 1
  10    4    5 1
  11    4    9 1
  12    4   10 1
  13    5    6 1
  14    5   32 1
  15    5   33 1
  16    6    7 am
  17    6   16 2
  18    6   17 2
  19    7    8 1
  20    9   34 1
  21    9   35 1
  22    9   36 1
  23   10   11 ar
  24   10   15 ar
  25   11   12 ar
  26   12   13 ar
  27   12   18 1
  28   13   14 ar
  29   13   37 1
  30   14   15 ar
  31   14   38 1
  32   15   39 1
  33   18   19 1
  34   18   40 1
  35   19   20 ar
  36   19   24 ar
  37   20   21 ar
  38   20   25 1
  39   21   22 ar
  40   21   41 1
  41   22   23 ar
  42   22   42 1
  43   23   24 ar
  44   23   43 1
  45   25   26 3

#	End of record

