#	Name: ASD02508297
#	Creating user name:	WinNT
#	Creation time:	15. 06. 2019 20:24

#	Modifying user name:	WinNT
#	Modification time:	15. 06. 2019 20:24

#	Program:	/corina/corina34_cracker 3.40 0067  02.08.2006

@<TRIPOS>MOLECULE
ASD02508297
  46   49    0    0    0
SMALL
NO_CHARGES


@<TRIPOS>ATOM
   1 C1            -0.0167     1.3822     0.0096 C.ar    
   2 C2             0.0021    -0.0041     0.0020 C.ar    
   3 C3            -1.1787    -0.7208     0.0099 C.ar    
   4 C4            -2.3927    -0.0590     0.0254 C.ar    
   5 C5            -2.4225     1.3232     0.0331 C.ar    
   6 C6            -1.2466     2.0430     0.0303 C.ar    
   7 S7            -3.8979    -0.9750     0.0348 S.o2    
   8 C8            -4.3271    -1.2557     1.7205 C.ar    
   9 C9            -5.1176    -0.3426     2.3924 C.ar    
  10 C10           -3.8772    -2.3918     2.3671 C.ar    
  11 C11           -4.2141    -2.6157     3.6934 C.ar    
  12 C12           -5.0029    -1.6934     4.3714 C.ar    
  13 C13           -5.4556    -0.5589     3.7152 C.ar    
  14 O14           -3.7698    -3.7422     4.3147 O.3     
  15 C15           -3.8151    -3.7483     5.7458 C.3     
  16 C16           -5.1868    -3.2191     6.1857 C.3     
  17 O17           -5.3393    -1.8901     5.6755 O.3     
  18 N18            1.2735     1.9146     0.0002 N.am    
  19 C19            2.2636     0.8345    -0.0151 C.3     
  20 C20            1.4422    -0.4652    -0.0142 C.3     
  21 O21           -4.8955    -0.1129    -0.4951 O.2     
  22 O22           -3.5963    -2.2481    -0.5199 O.2     
  23 S23            1.6329     3.5311     0.0046 S.o2    
  24 O24            2.9105     3.6077    -0.6127 O.2     
  25 O25            0.4956     4.1445    -0.5866 O.2     
  26 C26            1.7482     3.9644     1.7623 C.3     
  27 C27            3.1219     0.9190    -1.2788 C.3     
  28 H28           -1.1536    -1.8004     0.0035 H       
  29 H29           -3.3703     1.8409     0.0453 H       
  30 H30           -1.2769     3.1226     0.0364 H       
  31 H31           -5.4716     0.5415     1.8831 H       
  32 H32           -3.2630    -3.1059     1.8385 H       
  33 H33           -6.0698     0.1584     4.2393 H       
  34 H34           -3.6782    -4.7652     6.1135 H       
  35 H35           -3.0289    -3.1050     6.1411 H       
  36 H36           -5.9732    -3.8590     5.7855 H       
  37 H37           -5.2430    -3.2037     7.2742 H       
  38 H38            2.8922     0.8851     0.8740 H       
  39 H39            1.6630    -1.0541     0.8760 H       
  40 H40            1.6459    -1.0445    -0.9148 H       
  41 H41            2.5333     3.3717     2.2319 H       
  42 H42            1.9848     5.0238     1.8606 H       
  43 H43            0.7958     3.7579     2.2506 H       
  44 H44            3.6405     1.8775    -1.3024 H       
  45 H45            3.8529     0.1105    -1.2763 H       
  46 H46            2.4839     0.8294    -2.1580 H       
@<TRIPOS>BOND
   1    1    2 ar
   2    1   18 1
   3    1    6 ar
   4    2    3 ar
   5    2   20 1
   6    3    4 ar
   7    3   28 1
   8    4    5 ar
   9    4    7 1
  10    5    6 ar
  11    5   29 1
  12    6   30 1
  13    7    8 1
  14    7   21 2
  15    7   22 2
  16    8    9 ar
  17    8   10 ar
  18    9   13 ar
  19    9   31 1
  20   10   11 ar
  21   10   32 1
  22   11   12 ar
  23   11   14 1
  24   12   13 ar
  25   12   17 1
  26   13   33 1
  27   14   15 1
  28   15   16 1
  29   15   34 1
  30   15   35 1
  31   16   17 1
  32   16   36 1
  33   16   37 1
  34   18   19 1
  35   18   23 am
  36   19   20 1
  37   19   27 1
  38   19   38 1
  39   20   39 1
  40   20   40 1
  41   23   24 2
  42   23   25 2
  43   23   26 1
  44   26   41 1
  45   26   42 1
  46   26   43 1
  47   27   44 1
  48   27   45 1
  49   27   46 1

#	End of record

