#	Name: ASD01903099
#	Creating user name:	WinNT
#	Creation time:	15. 06. 2019 19:54

#	Modifying user name:	WinNT
#	Modification time:	15. 06. 2019 19:54

#	Program:	/corina/corina34_cracker 3.40 0067  02.08.2006

@<TRIPOS>MOLECULE
ASD01903099
  36   39    0    0    0
SMALL
NO_CHARGES


@<TRIPOS>ATOM
   1 C1            -0.1214     1.3403     0.0643 C.2     
   2 N2            -0.0033     0.0480     0.0254 N.2     
   3 C3            -1.1188    -0.6608    -0.0058 C.2     
   4 C4            -2.2708     0.0775     0.0073 C.2     
   5 S5            -1.8258     1.7814     0.0706 S.3     
   6 C6            -1.1214    -2.1432    -0.0520 C.2     
   7 N7             0.9341     2.2365     0.1012 N.pl3   
   8 C8            -1.9764    -2.9974     0.6724 C.2     
   9 N9            -1.6738    -4.2309     0.3651 N.2     
  10 N10           -0.6227    -4.2146    -0.5597 N.pl3   
  11 C11           -0.2999    -2.9283    -0.8085 C.2     
  12 C12            2.2405     1.7689     0.2065 C.ar    
  13 N13            2.4771     0.4670     0.1602 N.ar    
  14 C14            3.7006    -0.0177     0.2562 C.ar    
  15 C15            4.7850     0.8226     0.4095 C.ar    
  16 C16            4.5799     2.1951     0.4627 C.ar    
  17 C17            3.2868     2.6739     0.3537 C.ar    
  18 C18           -3.6447    -0.4591    -0.0216 C.ar    
  19 C19           -4.5961    -0.0022     0.8940 C.ar    
  20 C20           -5.8787    -0.5081     0.8608 C.ar    
  21 C21           -6.2242    -1.4663    -0.0761 C.ar    
  22 C22           -5.2871    -1.9235    -0.9860 C.ar    
  23 C23           -4.0022    -1.4225    -0.9684 C.ar    
  24 H24            0.7626     3.1900     0.0538 H       
  25 H25           -2.7476    -2.6867     1.3617 H       
  26 H26           -0.2015    -4.9935    -0.9557 H       
  27 H27            0.4724    -2.5827    -1.4797 H       
  28 H28            3.8555    -1.0858     0.2147 H       
  29 H29            5.7828     0.4167     0.4876 H       
  30 H30            5.4116     2.8735     0.5824 H       
  31 H31            3.0913     3.7354     0.3906 H       
  32 H32           -4.3277     0.7450     1.6262 H       
  33 H33           -6.6152    -0.1559     1.5678 H       
  34 H34           -7.2299    -1.8594    -0.0970 H       
  35 H35           -5.5636    -2.6717    -1.7141 H       
  36 H36           -3.2719    -1.7802    -1.6790 H       
@<TRIPOS>BOND
   1    1    2 2
   2    1    7 1
   3    1    5 1
   4    2    3 1
   5    3    4 2
   6    3    6 1
   7    4    5 1
   8    4   18 1
   9    6    8 1
  10    6   11 2
  11    7   12 1
  12    7   24 1
  13    8    9 2
  14    8   25 1
  15    9   10 1
  16   10   11 1
  17   10   26 1
  18   11   27 1
  19   12   13 ar
  20   12   17 ar
  21   13   14 ar
  22   14   15 ar
  23   14   28 1
  24   15   16 ar
  25   15   29 1
  26   16   17 ar
  27   16   30 1
  28   17   31 1
  29   18   19 ar
  30   18   23 ar
  31   19   20 ar
  32   19   32 1
  33   20   21 ar
  34   20   33 1
  35   21   22 ar
  36   21   34 1
  37   22   23 ar
  38   22   35 1
  39   23   36 1

#	End of record

