#	Name: ASD01320001
#	Creating user name:	WinNT
#	Creation time:	15. 06. 2019 19:15

#	Modifying user name:	WinNT
#	Modification time:	15. 06. 2019 19:15

#	Program:	/corina/corina34_cracker 3.40 0067  02.08.2006

@<TRIPOS>MOLECULE
ASD01320001
  45   47    0    0    0
SMALL
NO_CHARGES


@<TRIPOS>ATOM
   1 C1             0.8493     1.3512     0.5109 C.ar    
   2 C2             0.6085    -0.0092     0.4658 C.ar    
   3 C3             1.6390    -0.8859     0.1659 C.ar    
   4 C4             2.9167    -0.3922    -0.0901 C.ar    
   5 C5             3.1502     0.9746    -0.0432 C.ar    
   6 C6             2.1171     1.8419     0.2570 C.ar    
   7 O7             1.4041    -2.2242     0.1219 O.3     
   8 C8             0.1366    -2.6561     0.3417 C.ar    
   9 C9            -0.8007    -2.5996    -0.6823 C.ar    
  10 C10           -2.0995    -3.0416    -0.4588 C.ar    
  11 C11           -2.4562    -3.5448     0.8081 C.ar    
  12 C12           -1.5039    -3.5947     1.8251 C.ar    
  13 C13           -0.2169    -3.1583     1.5887 C.ar    
  14 N14            3.9620    -1.2731    -0.3932 N.am    
  15 C15            5.2313    -0.9459    -0.0795 C.2     
  16 C16            6.3196    -1.9243    -0.2875 C.ar    
  17 O17            5.4811     0.1538     0.3745 O.2     
  18 C18            7.6351    -1.5887     0.0363 C.ar    
  19 C19            8.6462    -2.5068    -0.1599 C.ar    
  20 C20            8.3585    -3.7574    -0.6767 C.ar    
  21 C21            7.0564    -4.0965    -0.9998 C.ar    
  22 C22            6.0354    -3.1901    -0.8033 C.ar    
  23 C23           -3.8322    -4.0165     1.0576 C.2     
  24 O24           -4.7750    -3.2823     0.8389 O.2     
  25 O25           -4.0427    -5.2615     1.5278 O.3     
  26 C26           -3.1016    -2.9836    -1.5445 C.2     
  27 O27           -4.2007    -3.4744    -1.3833 O.2     
  28 O28           -2.7954    -2.3864    -2.7125 O.3     
  29 N29           10.0420    -2.1527     0.1829 N.pl3   
  30 O30           10.2968    -1.0519     0.6377 O.2     
  31 O31           10.9356    -2.9621     0.0103 O.2     
  32 H32            0.0441     2.0333     0.7408 H       
  33 H33           -0.3828    -0.3889     0.6646 H       
  34 H34            4.1394     1.3607    -0.2407 H       
  35 H35            2.3001     2.9056     0.2928 H       
  36 H36           -0.5207    -2.2125    -1.6509 H       
  37 H37           -1.7729    -3.9797     2.7977 H       
  38 H38            0.5177    -3.1987     2.3793 H       
  39 H39            3.7727    -2.1187    -0.8289 H       
  40 H40            7.8611    -0.6125     0.4392 H       
  41 H41            9.1538    -4.4721    -0.8290 H       
  42 H42            6.8385    -5.0744    -1.4029 H       
  43 H43            5.0196    -3.4560    -1.0559 H       
  44 H44           -4.9612    -5.5255     1.6756 H       
  45 H45           -3.4829    -2.3733    -3.3923 H       
@<TRIPOS>BOND
   1    1    2 ar
   2    1    6 ar
   3    1   32 1
   4    2    3 ar
   5    2   33 1
   6    3    4 ar
   7    3    7 1
   8    4    5 ar
   9    4   14 1
  10    5    6 ar
  11    5   34 1
  12    6   35 1
  13    7    8 1
  14    8    9 ar
  15    8   13 ar
  16    9   10 ar
  17    9   36 1
  18   10   11 ar
  19   10   26 1
  20   11   12 ar
  21   11   23 1
  22   12   13 ar
  23   12   37 1
  24   13   38 1
  25   14   15 am
  26   14   39 1
  27   15   16 1
  28   15   17 2
  29   16   18 ar
  30   16   22 ar
  31   18   19 ar
  32   18   40 1
  33   19   20 ar
  34   19   29 1
  35   20   21 ar
  36   20   41 1
  37   21   22 ar
  38   21   42 1
  39   22   43 1
  40   23   24 2
  41   23   25 1
  42   25   44 1
  43   26   27 2
  44   26   28 1
  45   28   45 1
  46   29   30 2
  47   29   31 2

#	End of record

