#	Name: ASD01900950
#	Creating user name:	WinNT
#	Creation time:	15. 06. 2019 19:52

#	Modifying user name:	WinNT
#	Modification time:	15. 06. 2019 19:52

#	Program:	/corina/corina34_cracker 3.40 0067  02.08.2006

@<TRIPOS>MOLECULE
ASD01900950
  37   39    0    0    0
SMALL
NO_CHARGES


@<TRIPOS>ATOM
   1 C1            -0.0168     1.3892     0.0097 C.ar    
   2 C2             0.0021    -0.0041     0.0020 C.ar    
   3 C3             1.2224    -0.6605    -0.0132 C.ar    
   4 C4             2.3820     0.0992    -0.0202 C.ar    
   5 C5             2.2885     1.4816    -0.0119 C.ar    
   6 N6             1.1170     2.0793     0.0026 N.ar    
   7 C7            -1.3129     2.1060     0.0197 C.2     
   8 O8            -2.3540     1.4792     0.0212 O.2     
   9 N9            -1.3376     3.4535     0.0271 N.am    
  10 S10           -2.7314     5.8260     0.0466 S.3     
  11 C11           -2.5528     4.1257     0.0365 C.2     
  12 N12           -3.7170     3.5552     0.0382 N.2     
  13 C13           -4.7714     4.3490     0.0469 C.2     
  14 C14           -4.4846     5.6524     0.0529 C.2     
  15 S15           -5.6549     6.9695     0.0649 S.o2    
  16 O16           -4.9657     8.0562    -0.5377 O.2     
  17 O17           -6.8151     6.4129    -0.5381 O.2     
  18 C18           -5.9478     7.2987     1.8246 C.3     
  19 C19           -6.9444     8.4201     1.9668 C.ar    
  20 C20           -8.2977     8.1392     2.0319 C.ar    
  21 C21           -9.2118     9.1691     2.1629 C.ar    
  22 C22           -8.7729    10.4783     2.2287 C.ar    
  23 C23           -7.4210    10.7583     2.1631 C.ar    
  24 C24           -6.5064     9.7289     2.0379 C.ar    
  25 Cl25          -8.8482     6.4949     1.9486 Cl      
  26 H26           -0.9212    -0.5644     0.0082 H       
  27 H27            1.2690    -1.7395    -0.0191 H       
  28 H28            3.3489    -0.3818    -0.0317 H       
  29 H29            3.1899     2.0764    -0.0174 H       
  30 H30           -0.5066     3.9539     0.0259 H       
  31 H31           -5.7842     3.9742     0.0487 H       
  32 H32           -6.3407     6.4008     2.3017 H       
  33 H33           -5.0101     7.5831     2.3020 H       
  34 H34          -10.2683     8.9505     2.2134 H       
  35 H35           -9.4865    11.2825     2.3309 H       
  36 H36           -7.0786    11.7814     2.2138 H       
  37 H37           -5.4499     9.9480     1.9912 H       
@<TRIPOS>BOND
   1    1    2 ar
   2    1    6 ar
   3    1    7 1
   4    2    3 ar
   5    2   26 1
   6    3    4 ar
   7    3   27 1
   8    4    5 ar
   9    4   28 1
  10    5    6 ar
  11    5   29 1
  12    7    8 2
  13    7    9 am
  14    9   11 1
  15    9   30 1
  16   10   11 1
  17   10   14 1
  18   11   12 2
  19   12   13 1
  20   13   14 2
  21   13   31 1
  22   14   15 1
  23   15   16 2
  24   15   17 2
  25   15   18 1
  26   18   19 1
  27   18   32 1
  28   18   33 1
  29   19   20 ar
  30   19   24 ar
  31   20   21 ar
  32   20   25 1
  33   21   22 ar
  34   21   34 1
  35   22   23 ar
  36   22   35 1
  37   23   24 ar
  38   23   36 1
  39   24   37 1

#	End of record

