#	Name: ASD08178057
#	Creating user name:	WinNT
#	Creation time:	15. 06. 2019 21:18

#	Modifying user name:	WinNT
#	Modification time:	15. 06. 2019 21:18

#	Program:	/corina/corina34_cracker 3.40 0067  02.08.2006

@<TRIPOS>MOLECULE
ASD08178057
  58   61    0    0    0
SMALL
NO_CHARGES


@<TRIPOS>ATOM
   1 N1            -0.0150     1.2583     0.0090 N.2     
   2 N2             0.0021    -0.0041     0.0020 N.2     
   3 C3             1.1271     1.8769     0.0014 C.2     
   4 S4             2.3826     0.7116    -0.0169 S.3     
   5 C5             1.1681    -0.5677    -0.0121 C.2     
   6 N6             1.3017     3.2566     0.0067 N.am    
   7 C7             0.2284     4.0717     0.0214 C.2     
   8 O8            -0.8897     3.6019     0.0299 O.2     
   9 C9             1.4387    -2.0502    -0.0227 C.3     
  10 C10            1.5165    -2.5442    -1.4687 C.3     
  11 C11            1.7912    -4.0493    -1.4794 C.3     
  12 C12            1.8690    -4.5432    -2.9254 C.3     
  13 C13            2.1395    -6.0257    -2.9359 C.2     
  14 N14            1.2478    -6.9651    -2.9329 N.2     
  15 S15            3.7275    -6.7933    -2.9623 S.3     
  16 C16            2.9647    -8.3272    -2.9581 C.2     
  17 N17            1.6777    -8.1521    -2.9433 N.2     
  18 N18            3.6154    -9.5562    -2.9730 N.am    
  19 C19            2.8993   -10.6980    -2.9678 C.2     
  20 O20            1.6874   -10.6536    -2.9501 O.2     
  21 C21            3.6044   -12.0297    -2.9839 C.3     
  22 C22            0.4176     5.5667     0.0272 C.3     
  23 C23           -0.9503     6.2711     0.0442 C.3     
  24 C24           -0.9984     7.1092     1.3384 C.3     
  25 C25            0.4906     7.3490     1.6912 C.3     
  26 C26            1.1531     6.0014     1.3117 C.3     
  27 C27            2.5736   -13.1721    -2.9741 C.3     
  28 C28            2.7966   -13.9780    -4.2705 C.3     
  29 C29            4.2662   -13.6775    -4.6566 C.3     
  30 C30            4.4178   -12.1813    -4.2859 C.3     
  31 H31            2.1959     3.6323    -0.0001 H       
  32 H32            2.3843    -2.2506     0.4811 H       
  33 H33            0.6334    -2.5702     0.4961 H       
  34 H34            0.5709    -2.3438    -1.9724 H       
  35 H35            2.3218    -2.0242    -1.9874 H       
  36 H36            2.7368    -4.2496    -0.9756 H       
  37 H37            0.9858    -4.5693    -0.9606 H       
  38 H38            0.9234    -4.3429    -3.4291 H       
  39 H39            2.6743    -4.0232    -3.4441 H       
  40 H40            4.5846    -9.5917    -2.9871 H       
  41 H41            4.2630   -12.1137    -2.1194 H       
  42 H42            0.9851     5.8744    -0.8511 H       
  43 H43           -1.0464     6.9213    -0.8254 H       
  44 H44           -1.7511     5.5316     0.0482 H       
  45 H45           -1.5058     8.0573     1.1603 H       
  46 H46           -1.4944     6.5537     2.1344 H       
  47 H47            0.9025     8.1633     1.0951 H       
  48 H48            0.6076     7.5507     2.7560 H       
  49 H49            1.0046     5.2670     2.1033 H       
  50 H50            2.2159     6.1410     1.1141 H       
  51 H51            2.7325   -13.8110    -2.1054 H       
  52 H52            1.5633   -12.7633    -2.9577 H       
  53 H53            2.6610   -15.0436    -4.0854 H       
  54 H54            2.1191   -13.6366    -5.0532 H       
  55 H55            4.9521   -14.2915    -4.0730 H       
  56 H56            4.4237   -13.8288    -5.7245 H       
  57 H57            4.0022   -11.5497    -5.0710 H       
  58 H58            5.4655   -11.9356    -4.1120 H       
@<TRIPOS>BOND
   1    1    2 1
   2    1    3 2
   3    2    5 2
   4    3    4 1
   5    3    6 1
   6    4    5 1
   7    5    9 1
   8    6    7 am
   9    6   31 1
  10    7    8 2
  11    7   22 1
  12    9   10 1
  13    9   32 1
  14    9   33 1
  15   10   11 1
  16   10   34 1
  17   10   35 1
  18   11   12 1
  19   11   36 1
  20   11   37 1
  21   12   13 1
  22   12   38 1
  23   12   39 1
  24   13   14 2
  25   13   15 1
  26   14   17 1
  27   15   16 1
  28   16   17 2
  29   16   18 1
  30   18   19 am
  31   18   40 1
  32   19   20 2
  33   19   21 1
  34   21   27 1
  35   21   30 1
  36   21   41 1
  37   22   23 1
  38   22   26 1
  39   22   42 1
  40   23   24 1
  41   23   43 1
  42   23   44 1
  43   24   25 1
  44   24   45 1
  45   24   46 1
  46   25   26 1
  47   25   47 1
  48   25   48 1
  49   26   49 1
  50   26   50 1
  51   27   28 1
  52   27   51 1
  53   27   52 1
  54   28   29 1
  55   28   53 1
  56   28   54 1
  57   29   30 1
  58   29   55 1
  59   29   56 1
  60   30   57 1
  61   30   58 1

#	End of record

