#	Name: ASD01028704
#	Creating user name:	WinNT
#	Creation time:	15. 06. 2019 18:58

#	Modifying user name:	WinNT
#	Modification time:	15. 06. 2019 18:58

#	Program:	/corina/corina34_cracker 3.40 0067  02.08.2006

@<TRIPOS>MOLECULE
ASD01028704
  43   47    0    0    0
SMALL
NO_CHARGES


@<TRIPOS>ATOM
   1 C1            -0.0170     1.4009     0.0097 C.ar    
   2 C2             0.0021    -0.0041     0.0020 C.ar    
   3 C3             1.2286    -0.6748    -0.0137 C.ar    
   4 C4             2.3882     0.0874    -0.0211 C.ar    
   5 C5             2.2892     1.4764    -0.0127 C.ar    
   6 N6             1.1201     2.0807     0.0025 N.ar    
   7 O7            -1.3132     1.7750     0.0187 O.3     
   8 N8            -2.1345     0.6250     0.0169 N.2     
   9 C9            -1.3955    -0.4416     0.0130 C.2     
  10 N10            3.6429    -0.5328    -0.0364 N.pl3   
  11 C11            4.8617     0.2799    -0.0441 C.3     
  12 C12           -1.8849    -1.8669     0.0101 C.3     
  13 C13           -3.3918    -1.8807     0.0244 C.ar    
  14 C14           -4.0909    -1.8804    -1.1811 C.ar    
  15 C15           -5.4514    -1.8931    -1.2038 C.ar    
  16 C16           -6.1692    -1.9066     0.0050 C.ar    
  17 C17           -5.4563    -1.9068     1.2294 C.ar    
  18 C18           -4.0521    -1.8988     1.2148 C.ar    
  19 N19           -7.5059    -1.9186     0.0135 N.ar    
  20 C20           -8.1801    -1.9309     1.1377 C.ar    
  21 C21           -7.5410    -1.9315     2.3758 C.ar    
  22 C22           -6.1767    -1.9204     2.4386 C.ar    
  23 F23           -1.4236    -2.5160    -1.1402 F       
  24 F24           -1.4018    -2.5283     1.1443 F       
  25 C25            6.0884    -0.4437     0.5359 C.3     
  26 C26            6.9066     0.2045    -0.5933 C.3     
  27 C27            5.5963     0.2759    -1.3951 C.3     
  28 H28            1.2723    -1.7539    -0.0196 H       
  29 H29            3.1911     2.0705    -0.0184 H       
  30 H30            3.7054    -1.5008    -0.0419 H       
  31 H31            4.7080     1.2773     0.3679 H       
  32 H32           -3.5441    -1.8697    -2.1124 H       
  33 H33           -5.9778    -1.8923    -2.1468 H       
  34 H34           -3.4993    -1.8993     2.1426 H       
  35 H35           -9.2595    -1.9404     1.1032 H       
  36 H36           -8.1239    -1.9414     3.2849 H       
  37 H37           -5.6649    -1.9210     3.3897 H       
  38 H38            6.3685    -0.0991     1.5314 H       
  39 H39            6.0291    -1.5297     0.4641 H       
  40 H40            7.3127     1.1819    -0.3325 H       
  41 H41            7.6506    -0.4611    -1.0309 H       
  42 H42            5.4024    -0.6133    -1.9948 H       
  43 H43            5.4791     1.2016    -1.9586 H       
@<TRIPOS>BOND
   1    1    2 ar
   2    1    6 ar
   3    1    7 1
   4    2    3 ar
   5    2    9 1
   6    3    4 ar
   7    3   28 1
   8    4    5 ar
   9    4   10 1
  10    5    6 ar
  11    5   29 1
  12    7    8 1
  13    8    9 2
  14    9   12 1
  15   10   11 1
  16   10   30 1
  17   11   25 1
  18   11   27 1
  19   11   31 1
  20   12   13 1
  21   12   23 1
  22   12   24 1
  23   13   14 ar
  24   13   18 ar
  25   14   15 ar
  26   14   32 1
  27   15   16 ar
  28   15   33 1
  29   16   17 ar
  30   16   19 ar
  31   17   18 ar
  32   17   22 ar
  33   18   34 1
  34   19   20 ar
  35   20   21 ar
  36   20   35 1
  37   21   22 ar
  38   21   36 1
  39   22   37 1
  40   25   26 1
  41   25   38 1
  42   25   39 1
  43   26   27 1
  44   26   40 1
  45   26   41 1
  46   27   42 1
  47   27   43 1

#	End of record

