#	Name: ASD01915820
#	Creating user name:	WinNT
#	Creation time:	15. 06. 2019 20:06

#	Modifying user name:	WinNT
#	Modification time:	15. 06. 2019 20:06

#	Program:	/corina/corina34_cracker 3.40 0067  02.08.2006

@<TRIPOS>MOLECULE
ASD01915820
  41   44    0    0    0
SMALL
NO_CHARGES


@<TRIPOS>ATOM
   1 C1            -0.0166     1.3727     0.0096 C.2     
   2 N2             0.0021    -0.0041     0.0020 N.pl3   
   3 C3            -1.2434    -0.7807    -0.0179 C.3     
   4 C4            -2.3411     0.0067     0.6955 C.3     
   5 N5            -2.4045     1.3987     0.2638 N.am    
   6 C6            -1.2814     2.1228     0.0392 C.2     
   7 C7             1.2844     1.7903    -0.0006 C.2     
   8 C8             2.0436     0.6124    -0.0023 C.2     
   9 N9             1.2133    -0.4043     0.0045 N.2     
  10 C10            3.5482     0.5278    -0.0111 C.3     
  11 O11            4.0994     1.8462    -0.0174 O.3     
  12 C12            5.4546     1.9483    -0.0257 C.ar    
  13 O13           -1.3173     3.3272    -0.1286 O.2     
  14 C14            6.0572     3.1979    -0.0322 C.ar    
  15 C15            6.2377     0.8031    -0.0220 C.ar    
  16 C16            7.6150     0.9096    -0.0305 C.ar    
  17 C17            8.2131     2.1562    -0.0427 C.ar    
  18 C18            7.4349     3.2990    -0.0407 C.ar    
  19 C19           -3.6582     2.0021     0.0765 C.2     
  20 N20           -3.8775     3.2370    -0.4061 N.2     
  21 C21           -5.1625     3.4643    -0.4430 C.2     
  22 N22           -5.8118     2.3746     0.0180 N.pl3   
  23 C23           -4.8595     1.4414     0.3444 C.2     
  24 C24           -7.2628     2.2156     0.1426 C.3     
  25 H25           -1.5404    -0.9655    -1.0502 H       
  26 H26           -1.0875    -1.7314     0.4921 H       
  27 H27           -3.3017    -0.4681     0.4956 H       
  28 H28           -2.1535    -0.0210     1.7689 H       
  29 H29            1.6484     2.8071    -0.0064 H       
  30 H30            3.8874    -0.0036     0.8781 H       
  31 H31            3.8769    -0.0077    -0.9018 H       
  32 H32            5.4497     4.0908    -0.0310 H       
  33 H33            5.7710    -0.1708    -0.0121 H       
  34 H34            8.2251     0.0185    -0.0272 H       
  35 H35            9.2900     2.2373    -0.0493 H       
  36 H36            7.9044     4.2715    -0.0506 H       
  37 H37           -5.6297     4.3755    -0.7864 H       
  38 H38           -5.0351     0.4534     0.7437 H       
  39 H39           -7.6630     1.7962    -0.7804 H       
  40 H40           -7.4849     1.5450     0.9727 H       
  41 H41           -7.7202     3.1875     0.3283 H       
@<TRIPOS>BOND
   1    1    2 1
   2    1    7 2
   3    1    6 1
   4    2    3 1
   5    2    9 1
   6    3    4 1
   7    3   25 1
   8    3   26 1
   9    4    5 1
  10    4   27 1
  11    4   28 1
  12    5    6 am
  13    5   19 1
  14    6   13 2
  15    7    8 1
  16    7   29 1
  17    8    9 2
  18    8   10 1
  19   10   11 1
  20   10   30 1
  21   10   31 1
  22   11   12 1
  23   12   14 ar
  24   12   15 ar
  25   14   18 ar
  26   14   32 1
  27   15   16 ar
  28   15   33 1
  29   16   17 ar
  30   16   34 1
  31   17   18 ar
  32   17   35 1
  33   18   36 1
  34   19   20 1
  35   19   23 2
  36   20   21 2
  37   21   22 1
  38   21   37 1
  39   22   23 1
  40   22   24 1
  41   23   38 1
  42   24   39 1
  43   24   40 1
  44   24   41 1

#	End of record

