#	Name: ASD00841888
#	Creating user name:	WinNT
#	Creation time:	15. 06. 2019 18:43

#	Modifying user name:	WinNT
#	Modification time:	15. 06. 2019 18:43

#	Program:	/corina/corina34_cracker 3.40 0067  02.08.2006

@<TRIPOS>MOLECULE
ASD00841888
  94   99    0    0    0
SMALL
NO_CHARGES


@<TRIPOS>ATOM
   1 C1             1.0127     1.5603    -0.3103 C.ar    
   2 C2             1.3194     0.2352    -0.5824 C.ar    
   3 C3             1.2501    -0.7124     0.4288 C.ar    
   4 C4             0.8761    -0.3342     1.7035 C.ar    
   5 C5             0.5704     0.9875     1.9722 C.ar    
   6 C6             0.6392     1.9335     0.9665 C.ar    
   7 C7             1.5821    -2.1530     0.1365 C.3     
   8 C8             1.3136    -3.0161     1.3509 C.2     
   9 C9             0.7784    -2.6536    -1.0653 C.3     
  10 C10           -0.6910    -2.4323    -0.8144 C.2     
  11 N11           -1.6017    -2.8913    -1.6955 N.am    
  12 O12           -1.0540    -1.8411     0.1804 O.2     
  13 C13           -3.0317    -2.5900    -1.5291 C.3     
  14 C14           -3.5667    -2.0240    -2.8488 C.3     
  15 N15           -3.2509    -2.9545    -3.9407 N.3     
  16 C16           -1.7995    -3.0968    -4.1166 C.3     
  17 C17           -1.1913    -3.7016    -2.8523 C.3     
  18 C18           -3.8943    -2.5346    -5.1928 C.3     
  19 C19           -3.4443    -3.4530    -6.3324 C.3     
  20 C20           -4.1641    -3.0490    -7.6211 C.3     
  21 N21           -5.6157    -3.1557    -7.4266 N.3     
  22 C22           -6.0779    -2.2478    -6.3690 C.3     
  23 C23           -5.4153    -2.6279    -5.0429 C.3     
  24 C24           -6.3349    -2.9092    -8.6835 C.3     
  25 O25            0.2426    -3.1789     1.8963 O.2     
  26 N26            2.4847    -3.5675     1.7112 N.am    
  27 C27            3.0646    -2.3153    -0.1095 C.ar    
  28 C28            3.5320    -3.1770     0.8752 C.ar    
  29 C29            3.9183    -1.7953    -1.0560 C.ar    
  30 C30            5.2618    -2.1303    -1.0334 C.ar    
  31 C31            5.7407    -2.9887    -0.0565 C.ar    
  32 C32            4.8842    -3.5109     0.8938 C.ar    
  33 Cl33           6.3423    -1.4776    -2.2251 Cl      
  34 F34            7.0512    -3.3164    -0.0331 F       
  35 C35            2.4116    -6.2308     2.4014 C.ar    
  36 C36            3.4829    -6.9662     1.9289 C.ar    
  37 C37            1.1430    -6.7806     2.4109 C.ar    
  38 C38            0.9429    -8.0667     1.9480 C.ar    
  39 C39            2.0161    -8.8067     1.4733 C.ar    
  40 C40            3.2880    -8.2526     1.4645 C.ar    
  41 O41            1.8219   -10.0723     1.0179 O.3     
  42 H42            4.4729    -6.5345     1.9225 H       
  43 C43            2.9725   -10.7750     0.5441 C.3     
  44 C44           -7.8110    -3.2701    -8.5058 C.3     
  45 C45           -8.5600    -3.0133    -9.8150 C.3     
  46 S46            2.6647    -4.5927     2.9992 S.o2    
  47 O47            4.0294    -4.5136     3.3873 O.2     
  48 O48            1.5877    -4.3178     3.8845 O.2     
  49 O49            1.6867    -0.1345    -1.8376 O.3     
  50 C50            2.1695     0.2995    -4.1655 C.3     
  51 C51            1.6277     0.8693    -2.8529 C.3     
  52 H52            1.0702     2.3004    -1.0947 H       
  53 H53            0.8220    -1.0713     2.4910 H       
  54 H54            0.2775     1.2811     2.9694 H       
  55 H55            0.3999     2.9651     1.1788 H       
  56 H56            1.0810    -2.1065    -1.9582 H       
  57 H57            0.9660    -3.7176    -1.2101 H       
  58 H58           -3.5712    -3.5028    -1.2767 H       
  59 H59           -3.1609    -1.8537    -0.7358 H       
  60 H60           -4.6472    -1.8982    -2.7791 H       
  61 H61           -3.0998    -1.0592    -3.0466 H       
  62 H62           -1.5983    -3.7490    -4.9665 H       
  63 H63           -1.3571    -2.1170    -4.2968 H       
  64 H64           -0.1044    -3.7029    -2.9332 H       
  65 H65           -1.5530    -4.7218    -2.7239 H       
  66 H66           -3.6122    -1.5066    -5.4204 H       
  67 H67           -2.3674    -3.3586    -6.4722 H       
  68 H68           -3.6908    -4.4858    -6.0863 H       
  69 H69           -3.9063    -2.0205    -7.8740 H       
  70 H70           -3.8567    -3.7101    -8.4313 H       
  71 H71           -5.8111    -1.2232    -6.6278 H       
  72 H72           -7.1605    -2.3270    -6.2699 H       
  73 H73           -5.6928    -3.6478    -4.7766 H       
  74 H74           -5.7466    -1.9441    -4.2614 H       
  75 H75           -6.2480    -1.8562    -8.9513 H       
  76 H76           -5.9037    -3.5221    -9.4751 H       
  77 H77            3.5406    -1.1270    -1.8157 H       
  78 H78            5.2639    -4.1791     1.6526 H       
  79 H79            0.3079    -6.2042     2.7808 H       
  80 H80           -0.0481    -8.4959     1.9559 H       
  81 H81            4.1251    -8.8267     1.0958 H       
  82 H82            3.4145   -10.2285    -0.2890 H       
  83 H83            3.7020   -10.8622     1.3492 H       
  84 H84            2.6786   -11.7702     0.2107 H       
  85 H85           -7.8979    -4.3231    -8.2381 H       
  86 H86           -8.2422    -2.6572    -7.7143 H       
  87 H87           -8.4731    -1.9603   -10.0828 H       
  88 H88           -8.1289    -3.6262   -10.6065 H       
  89 H89           -9.6117    -3.2704    -9.6884 H       
  90 H90            2.2062     1.0887    -4.9164 H       
  91 H91            3.1726    -0.0950    -4.0036 H       
  92 H92            1.5156    -0.5011    -4.5114 H       
  93 H93            0.5936     1.1841    -2.9929 H       
  94 H94            2.2308     1.7260    -2.5524 H       
@<TRIPOS>BOND
   1    1    2 ar
   2    1    6 ar
   3    1   52 1
   4    2    3 ar
   5    2   49 1
   6    3    4 ar
   7    3    7 1
   8    4    5 ar
   9    4   53 1
  10    5    6 ar
  11    5   54 1
  12    6   55 1
  13    7    8 1
  14    7    9 1
  15    7   27 1
  16    8   25 2
  17    8   26 am
  18    9   10 1
  19    9   56 1
  20    9   57 1
  21   10   11 am
  22   10   12 2
  23   11   13 1
  24   11   17 1
  25   13   14 1
  26   13   58 1
  27   13   59 1
  28   14   15 1
  29   14   60 1
  30   14   61 1
  31   15   16 1
  32   15   18 1
  33   16   17 1
  34   16   62 1
  35   16   63 1
  36   17   64 1
  37   17   65 1
  38   18   19 1
  39   18   23 1
  40   18   66 1
  41   19   20 1
  42   19   67 1
  43   19   68 1
  44   20   21 1
  45   20   69 1
  46   20   70 1
  47   21   22 1
  48   21   24 1
  49   22   23 1
  50   22   71 1
  51   22   72 1
  52   23   73 1
  53   23   74 1
  54   24   44 1
  55   24   75 1
  56   24   76 1
  57   26   46 am
  58   26   28 1
  59   27   28 ar
  60   27   29 ar
  61   28   32 ar
  62   29   30 ar
  63   29   77 1
  64   30   31 ar
  65   30   33 1
  66   31   32 ar
  67   31   34 1
  68   32   78 1
  69   35   36 ar
  70   35   37 ar
  71   35   46 1
  72   36   42 1
  73   36   40 ar
  74   37   38 ar
  75   37   79 1
  76   38   39 ar
  77   38   80 1
  78   39   40 ar
  79   39   41 1
  80   40   81 1
  81   41   43 1
  82   43   82 1
  83   43   83 1
  84   43   84 1
  85   44   45 1
  86   44   85 1
  87   44   86 1
  88   45   87 1
  89   45   88 1
  90   45   89 1
  91   46   47 2
  92   46   48 2
  93   49   51 1
  94   50   51 1
  95   50   90 1
  96   50   91 1
  97   50   92 1
  98   51   93 1
  99   51   94 1

#	End of record

