#	Name: ASD01238007
#	Creating user name:	WinNT
#	Creation time:	15. 06. 2019 19:15

#	Modifying user name:	WinNT
#	Modification time:	15. 06. 2019 19:15

#	Program:	/corina/corina34_cracker 3.40 0067  02.08.2006

@<TRIPOS>MOLECULE
ASD01238007
  50   52    0    0    0
SMALL
NO_CHARGES


@<TRIPOS>ATOM
   1 C1            -1.6000     1.7632     0.9197 C.3     
   2 C2            -1.7327     0.2647     1.1987 C.3     
   3 C3            -3.1959    -0.0716     1.4931 C.3     
   4 S4            -1.1770    -0.6719    -0.2520 S.o2    
   5 O5            -2.0666    -0.4762    -1.3427 O.2     
   6 O6             0.2281    -0.5432    -0.4204 O.2     
   7 N7            -1.3938    -2.2579     0.1723 N.am    
   8 C8            -1.5148    -3.4686     2.3300 C.3     
   9 C9            -0.6001    -2.8412     1.2567 C.3     
  10 C10            0.2044    -4.0588     0.7542 C.3     
  11 C11            0.2184    -5.0306     1.9147 C.ar    
  12 C12            1.0312    -6.1250     2.1591 C.ar    
  13 C13            0.8576    -6.8778     3.3039 C.ar    
  14 C14           -0.1304    -6.5385     4.2095 C.ar    
  15 C15           -0.9419    -5.4476     3.9675 C.ar    
  16 C16           -0.7694    -4.6914     2.8201 C.ar    
  17 C17            1.7447    -8.0675     3.5660 C.3     
  18 N18            2.9250    -7.6397     4.3210 N.pl3   
  19 N19            3.8185    -6.6269     3.9495 N.2     
  20 C20            4.7408    -6.5363     4.8731 C.2     
  21 C21            4.4646    -7.4871     5.8610 C.2     
  22 C22            3.3402    -8.1478     5.5003 C.2     
  23 C23            5.9006    -5.5741     4.8723 C.3     
  24 F24            5.7839    -4.7038     3.7832 F       
  25 F25            5.8955    -4.8366     6.0612 F       
  26 F26            7.0992    -6.2885     4.7720 F       
  27 C27            5.2729    -7.7286     7.1098 C.3     
  28 O28            4.6736    -8.7804     7.8691 O.3     
  29 H29           -1.9339     2.3260     1.7914 H       
  30 H30           -0.5575     2.0028     0.7100 H       
  31 H31           -2.2140     2.0283     0.0590 H       
  32 H32           -1.1186    -0.0004     2.0594 H       
  33 H33           -3.8197     0.2646     0.6649 H       
  34 H34           -3.3036    -1.1495     1.6148 H       
  35 H35           -3.5068     0.4303     2.4093 H       
  36 H36           -2.0463    -2.8007    -0.2973 H       
  37 H37           -1.6719    -2.7676     3.1498 H       
  38 H38           -2.4694    -3.7583     1.8909 H       
  39 H39            0.0610    -2.0957     1.6987 H       
  40 H40           -0.2878    -4.5073    -0.1087 H       
  41 H41            1.2211    -3.7608     0.4982 H       
  42 H42            1.8030    -6.3908     1.4520 H       
  43 H43           -0.2678    -7.1263     5.1051 H       
  44 H44           -1.7135    -5.1832     4.6754 H       
  45 H45            1.1944    -8.8110     4.1425 H       
  46 H46            2.0585    -8.5027     2.6172 H       
  47 H47            2.8622    -8.9415     6.0552 H       
  48 H48            6.2891    -8.0118     6.8357 H       
  49 H49            5.2983    -6.8177     7.7080 H       
  50 H50            5.1421    -8.9902     8.6885 H       
@<TRIPOS>BOND
   1    1    2 1
   2    1   29 1
   3    1   30 1
   4    1   31 1
   5    2    3 1
   6    2    4 1
   7    2   32 1
   8    3   33 1
   9    3   34 1
  10    3   35 1
  11    4    5 2
  12    4    6 2
  13    4    7 am
  14    7    9 1
  15    7   36 1
  16    8    9 1
  17    8   16 1
  18    8   37 1
  19    8   38 1
  20    9   10 1
  21    9   39 1
  22   10   11 1
  23   10   40 1
  24   10   41 1
  25   11   12 ar
  26   11   16 ar
  27   12   13 ar
  28   12   42 1
  29   13   14 ar
  30   13   17 1
  31   14   15 ar
  32   14   43 1
  33   15   16 ar
  34   15   44 1
  35   17   18 1
  36   17   45 1
  37   17   46 1
  38   18   19 1
  39   18   22 1
  40   19   20 2
  41   20   21 1
  42   20   23 1
  43   21   22 2
  44   21   27 1
  45   22   47 1
  46   23   24 1
  47   23   25 1
  48   23   26 1
  49   27   28 1
  50   27   48 1
  51   27   49 1
  52   28   50 1

#	End of record

