#	Name: ASD08178455
#	Creating user name:	WinNT
#	Creation time:	15. 06. 2019 21:19

#	Modifying user name:	WinNT
#	Modification time:	15. 06. 2019 21:19

#	Program:	/corina/corina34_cracker 3.40 0067  02.08.2006

@<TRIPOS>MOLECULE
ASD08178455
  69   72    0    0    0
SMALL
NO_CHARGES


@<TRIPOS>ATOM
   1 C1            -7.0474    -1.6110    -7.8339 C.3     
   2 N2            -0.5202     0.1662    -6.7054 N.am    
   3 C3             0.4673     0.1706    -7.6900 C.ar    
   4 C4             1.5222     1.0782    -7.6193 C.ar    
   5 N5             0.4096    -0.6918    -8.6939 N.ar    
   6 N6             1.2982    -0.7207    -9.6196 N.ar    
   7 C7             2.3267     0.1043    -9.6341 C.ar    
   8 C8             2.4785     1.0416    -8.6227 C.ar    
   9 C9             3.3406     0.0250   -10.7463 C.3     
  10 C10            3.8906    -1.4000   -10.8344 C.3     
  11 C11            4.9199    -1.4805   -11.9635 C.3     
  12 C12            5.4700    -2.9055   -12.0515 C.3     
  13 C13            6.4838    -2.9848   -13.1637 C.2     
  14 N14            7.7570    -2.7740   -13.0532 N.2     
  15 N15            8.4423    -2.8899   -14.1072 N.2     
  16 C16            7.8175    -3.2073   -15.2008 C.2     
  17 S17            6.1509    -3.3887   -14.8482 S.3     
  18 C18           -1.5929    -0.6401    -6.8304 C.2     
  19 C19           -2.6008    -0.7317    -5.7137 C.3     
  20 O20           -1.7471    -1.2918    -7.8414 O.2     
  21 C21           -3.6939    -1.6939    -6.1015 C.ar    
  22 C22           -3.5742    -3.0363    -5.7928 C.ar    
  23 C23           -4.8181    -1.2327    -6.7603 C.ar    
  24 C24           -5.8216    -2.1141    -7.1160 C.ar    
  25 C25           -5.7004    -3.4593    -6.8122 C.ar    
  26 C26           -4.5761    -3.9193    -6.1474 C.ar    
  27 N27            8.4049    -3.3773   -16.4499 N.am    
  28 C28            9.7343    -3.2115   -16.5976 C.2     
  29 O29           10.4182    -2.9140   -15.6412 O.2     
  30 C30           10.3709    -3.3957   -17.9510 C.3     
  31 C31           11.8548    -3.1550   -17.8452 C.ar    
  32 C32           12.7066    -4.2051   -17.5581 C.ar    
  33 C33           14.0677    -3.9843   -17.4610 C.ar    
  34 C34           14.5771    -2.7134   -17.6514 C.ar    
  35 C35           13.7253    -1.6634   -17.9393 C.ar    
  36 C36           12.3646    -1.8850   -18.0407 C.ar    
  37 N37           -7.1792    -0.1633    -7.6222 N.3     
  38 C38           -6.9152    -1.8974    -9.3310 C.3     
  39 F39           -6.6806    -4.3218    -7.1594 F       
  40 H40           -7.9304    -2.1171    -7.4437 H       
  41 H41           -0.4350     0.7435    -5.9306 H       
  42 H42            1.5926     1.7882    -6.8085 H       
  43 H43            3.3146     1.7251    -8.6190 H       
  44 H44            2.8654     0.2900   -11.6907 H       
  45 H45            4.1573     0.7178   -10.5435 H       
  46 H46            4.3659    -1.6650    -9.8899 H       
  47 H47            3.0739    -2.0928   -11.0371 H       
  48 H48            4.4447    -1.2154   -12.9079 H       
  49 H49            5.7366    -0.7877   -11.7607 H       
  50 H50            5.9452    -3.1705   -11.1071 H       
  51 H51            4.6533    -3.5983   -12.2543 H       
  52 H52           -2.1086    -1.0867    -4.8083 H       
  53 H53           -3.0313     0.2529    -5.5311 H       
  54 H54           -2.6971    -3.3949    -5.2747 H       
  55 H55           -4.9126    -0.1832    -6.9970 H       
  56 H56           -4.4803    -4.9686    -5.9102 H       
  57 H57            7.8579    -3.6152   -17.2148 H       
  58 H58           10.1918    -4.4121   -18.3015 H       
  59 H59            9.9371    -2.6866   -18.6561 H       
  60 H60           12.3086    -5.1981   -17.4094 H       
  61 H61           14.7332    -4.8047   -17.2360 H       
  62 H62           15.6404    -2.5407   -17.5748 H       
  63 H63           14.1232    -0.6704   -18.0877 H       
  64 H64           11.6992    -1.0647   -18.2657 H       
  65 H65           -7.9944     0.1984    -8.0940 H       
  66 H66           -7.2034     0.0574    -6.6379 H       
  67 H67           -6.0322    -1.3913    -9.7212 H       
  68 H68           -6.8174    -2.9716    -9.4882 H       
  69 H69           -7.8018    -1.5335    -9.8503 H       
@<TRIPOS>BOND
   1    1   37 1
   2    1   38 1
   3    1   24 1
   4    1   40 1
   5    2    3 1
   6    2   18 am
   7    2   41 1
   8    3    4 ar
   9    3    5 ar
  10    4    8 ar
  11    4   42 1
  12    5    6 ar
  13    6    7 ar
  14    7    8 ar
  15    7    9 1
  16    8   43 1
  17    9   10 1
  18    9   44 1
  19    9   45 1
  20   10   11 1
  21   10   46 1
  22   10   47 1
  23   11   12 1
  24   11   48 1
  25   11   49 1
  26   12   13 1
  27   12   50 1
  28   12   51 1
  29   13   14 2
  30   13   17 1
  31   14   15 1
  32   15   16 2
  33   16   17 1
  34   16   27 1
  35   18   19 1
  36   18   20 2
  37   19   21 1
  38   19   52 1
  39   19   53 1
  40   21   22 ar
  41   21   23 ar
  42   22   26 ar
  43   22   54 1
  44   23   24 ar
  45   23   55 1
  46   24   25 ar
  47   25   26 ar
  48   25   39 1
  49   26   56 1
  50   27   28 am
  51   27   57 1
  52   28   29 2
  53   28   30 1
  54   30   31 1
  55   30   58 1
  56   30   59 1
  57   31   32 ar
  58   31   36 ar
  59   32   33 ar
  60   32   60 1
  61   33   34 ar
  62   33   61 1
  63   34   35 ar
  64   34   62 1
  65   35   36 ar
  66   35   63 1
  67   36   64 1
  68   37   65 1
  69   37   66 1
  70   38   67 1
  71   38   68 1
  72   38   69 1

#	End of record

