#	Name: ASD01884831
#	Creating user name:	WinNT
#	Creation time:	15. 06. 2019 19:48

#	Modifying user name:	WinNT
#	Modification time:	15. 06. 2019 19:48

#	Program:	/corina/corina34_cracker 3.40 0067  02.08.2006

@<TRIPOS>MOLECULE
ASD01884831
  52   55    0    0    0
SMALL
NO_CHARGES


@<TRIPOS>ATOM
   1 C1            -0.0170     1.4012     0.0097 C.2     
   2 C2             0.0021    -0.0041     0.0020 C.2     
   3 C3            -1.1527    -0.7023     0.0088 C.2     
   4 N4            -2.3537    -0.0553     0.0232 N.pl3   
   5 C5            -2.4051     1.3169     0.0316 C.2     
   6 C6            -1.2079     2.0602     0.0303 C.2     
   7 Cl7           -1.2514     3.7956     0.0413 Cl      
   8 C8            -3.6473    -0.4765     0.0328 C.2     
   9 N9            -4.4076     0.5879     0.0460 N.2     
  10 N10           -3.6848     1.6525     0.0453 N.2     
  11 C11           -4.1183    -1.9080     0.0290 C.3     
  12 O12           -4.2547    -2.3681     1.3750 O.3     
  13 C13            1.2759     2.1754     0.0016 C.3     
  14 N14            1.7712     2.3159     1.3774 N.3     
  15 C15            3.1379     2.8529     1.3924 C.3     
  16 C16            3.6732     2.8491     2.8261 C.3     
  17 C17            2.7594     3.7034     3.7091 C.3     
  18 C18            1.3327     3.1521     3.6377 C.3     
  19 C19            0.8653     3.1471     2.1805 C.3     
  20 C20            3.2473     3.6550     5.1342 C.ar    
  21 C21            3.6241     4.8201     5.7757 C.ar    
  22 C22            4.0716     4.7757     7.0828 C.ar    
  23 C23            4.1420     3.5663     7.7486 C.ar    
  24 C24            3.7643     2.4013     7.1073 C.ar    
  25 C25            3.3127     2.4463     5.8016 C.ar    
  26 C26           -4.6989    -3.7219     1.4843 C.3     
  27 C27           -4.8085    -4.1051     2.9615 C.3     
  28 H28            0.9463    -0.5282    -0.0098 H       
  29 H29           -1.1259    -1.7819     0.0024 H       
  30 H30           -5.0820    -1.9720    -0.4762 H       
  31 H31           -3.3913    -2.5283    -0.4951 H       
  32 H32            2.0144     1.6429    -0.5978 H       
  33 H33            1.1051     3.1634    -0.4258 H       
  34 H34            3.7783     2.2339     0.7641 H       
  35 H35            3.1313     3.8736     1.0099 H       
  36 H36            3.6930     1.8271     3.2045 H       
  37 H37            4.6818     3.2622     2.8391 H       
  38 H38            2.7698     4.7341     3.3544 H       
  39 H39            1.3157     2.1348     4.0288 H       
  40 H40            0.6692     3.7816     4.2306 H       
  41 H41            0.8694     4.1663     1.7943 H       
  42 H42           -0.1449     2.7417     2.1245 H       
  43 H43            3.5691     5.7650     5.2555 H       
  44 H44            4.3667     5.6858     7.5838 H       
  45 H45            4.4923     3.5315     8.7696 H       
  46 H46            3.8196     1.4564     7.6274 H       
  47 H47            3.0176     1.5361     5.3007 H       
  48 H48           -5.6746    -3.8236     1.0092 H       
  49 H49           -3.9839    -4.3799     0.9903 H       
  50 H50           -5.5235    -3.4471     3.4554 H       
  51 H51           -5.1473    -5.1378     3.0448 H       
  52 H52           -3.8328    -4.0034     3.4366 H       
@<TRIPOS>BOND
   1    1    2 1
   2    1   13 1
   3    1    6 2
   4    2    3 2
   5    2   28 1
   6    3    4 1
   7    3   29 1
   8    4    5 1
   9    4    8 1
  10    5    6 1
  11    5   10 2
  12    6    7 1
  13    8    9 2
  14    8   11 1
  15    9   10 1
  16   11   12 1
  17   11   30 1
  18   11   31 1
  19   12   26 1
  20   13   14 1
  21   13   32 1
  22   13   33 1
  23   14   15 1
  24   14   19 1
  25   15   16 1
  26   15   34 1
  27   15   35 1
  28   16   17 1
  29   16   36 1
  30   16   37 1
  31   17   18 1
  32   17   20 1
  33   17   38 1
  34   18   19 1
  35   18   39 1
  36   18   40 1
  37   19   41 1
  38   19   42 1
  39   20   21 ar
  40   20   25 ar
  41   21   22 ar
  42   21   43 1
  43   22   23 ar
  44   22   44 1
  45   23   24 ar
  46   23   45 1
  47   24   25 ar
  48   24   46 1
  49   25   47 1
  50   26   27 1
  51   26   48 1
  52   26   49 1
  53   27   50 1
  54   27   51 1
  55   27   52 1

#	End of record

