#	Name: ASD02560014
#	Creating user name:	WinNT
#	Creation time:	15. 06. 2019 20:24

#	Modifying user name:	WinNT
#	Modification time:	15. 06. 2019 20:24

#	Program:	/corina/corina34_cracker 3.40 0067  02.08.2006

@<TRIPOS>MOLECULE
ASD02560014
  26   27    0    0    0
SMALL
NO_CHARGES


@<TRIPOS>ATOM
   1 C1            -0.0163     1.3499     0.0095 C.2     
   2 C2             0.0021    -0.0041     0.0020 C.2     
   3 N3             1.1995    -0.6542    -0.0129 N.am    
   4 C4             2.3511     0.0420    -0.0202 C.2     
   5 N5             2.3493     1.3739    -0.0130 N.2     
   6 C6             1.2078     2.0496     0.0015 C.2     
   7 C7             1.2335    -2.1188    -0.0206 C.3     
   8 O8            -0.0980    -2.6042    -0.0442 O.3     
   9 C9            -0.4718    -3.4111    -1.1761 C.3     
  10 S10            1.1447    -4.0943    -1.7341 S.3     
  11 C11            2.0809    -2.5893    -1.2270 C.3     
  12 N12            1.2183     3.4252     0.0084 N.pl3   
  13 O13            3.4139    -0.5565    -0.0331 O.2     
  14 C14           -1.4190    -4.5354    -0.7521 C.3     
  15 O15           -0.7701    -5.3667     0.2122 O.3     
  16 H16           -0.9541     1.8855     0.0168 H       
  17 H17           -0.9223    -0.5626     0.0082 H       
  18 H18            1.7142    -2.4611     0.8958 H       
  19 H19           -0.9225    -2.7978    -1.9563 H       
  20 H20            2.0851    -1.8421    -2.0206 H       
  21 H21            3.0961    -2.8415    -0.9208 H       
  22 H22            2.0620     3.9038     0.0026 H       
  23 H23            0.3821     3.9166     0.0190 H       
  24 H24           -2.3198    -4.1057    -0.3140 H       
  25 H25           -1.6879    -5.1320    -1.6239 H       
  26 H26           -1.3134    -6.1024     0.5264 H       
@<TRIPOS>BOND
   1    1    2 2
   2    1    6 1
   3    1   16 1
   4    2    3 1
   5    2   17 1
   6    3    4 am
   7    3    7 1
   8    4    5 1
   9    4   13 2
  10    5    6 2
  11    6   12 1
  12    7    8 1
  13    7   11 1
  14    7   18 1
  15    8    9 1
  16    9   10 1
  17    9   14 1
  18    9   19 1
  19   10   11 1
  20   11   20 1
  21   11   21 1
  22   12   22 1
  23   12   23 1
  24   14   15 1
  25   14   24 1
  26   14   25 1
  27   15   26 1

#	End of record

