#	Name: ASD03330600
#	Creating user name:	WinNT
#	Creation time:	15. 06. 2019 20:37

#	Modifying user name:	WinNT
#	Modification time:	15. 06. 2019 20:37

#	Program:	/corina/corina34_cracker 3.40 0067  02.08.2006

@<TRIPOS>MOLECULE
ASD03330600
  75   78    0    0    0
SMALL
NO_CHARGES


@<TRIPOS>ATOM
   1 C1            -0.1493     2.9328    -1.3323 C.2     
   2 N2            -0.1182     1.6185    -1.6788 N.pl3   
   3 C3             1.1429     3.3462    -1.2139 C.2     
   4 N4             1.9403     2.2947    -1.5037 N.2     
   5 C5             1.1920     1.2551    -1.7895 C.2     
   6 C6             1.6867    -0.0868    -2.1680 C.ar    
   7 C7             1.5912     4.6985    -0.8376 C.2     
   8 O8             0.7729     5.5661    -0.5994 O.2     
   9 C9             3.3538     6.3184    -0.3834 C.3     
  10 N10            2.9081     4.9739    -0.7575 N.am    
  11 C11            3.3853     6.4394     1.1415 C.3     
  12 C12            4.2960     5.3549     1.7205 C.3     
  13 C13            3.9214     7.8179     1.5328 C.3     
  14 C14            1.9699     6.2664     1.6961 C.3     
  15 C15            4.7350     6.5614    -0.9351 C.2     
  16 N16            5.1782     7.8220    -1.1111 N.am    
  17 O17            5.4477     5.6226    -1.2208 O.2     
  18 C18            6.4770     8.0600    -1.7456 C.3     
  19 C19           -1.2921     0.7641    -1.8774 C.3     
  20 C20           -2.3065     1.5009    -2.7577 C.3     
  21 C21           -3.2191     2.3579    -1.8863 C.3     
  22 N22           -2.4972     2.8854    -0.7267 N.3     
  23 C23           -1.3918     3.7629    -1.1393 C.3     
  24 C24           -3.4099     3.5832     0.1887 C.3     
  25 C25            3.3604    -1.4862    -3.1905 C.ar    
  26 C26            2.5995    -2.6164    -2.8718 C.ar    
  27 C27            1.3911    -2.4750    -2.2111 C.ar    
  28 C28            0.9333    -1.2223    -1.8598 C.ar    
  29 C29            2.9003    -0.2188    -2.8364 C.ar    
  30 F30            3.0443    -3.8466    -3.2091 F       
  31 C31            4.6497    -1.6360    -3.8955 C.2     
  32 O32            5.5007    -2.3835    -3.4539 O.2     
  33 N33            4.8828    -0.9440    -5.0283 N.am    
  34 C34            6.1224    -1.1426    -5.7959 C.3     
  35 C35            3.9023     0.0280    -5.5374 C.3     
  36 C36            3.6415    -0.2779    -7.0167 C.3     
  37 O37            4.8895    -0.3437    -7.7109 O.3     
  38 C38            5.7490    -1.3891    -7.2621 C.3     
  39 H39            2.6641     7.0568    -0.7923 H       
  40 H40            3.5608     4.2820    -0.9475 H       
  41 H41            5.3044     5.4781     1.3254 H       
  42 H42            4.3184     5.4410     2.8069 H       
  43 H43            3.9141     4.3727     1.4418 H       
  44 H44            3.2921     8.5911     1.0919 H       
  45 H45            3.9117     7.9168     2.6183 H       
  46 H46            4.9422     7.9280     1.1670 H       
  47 H47            1.5879     5.2843     1.4174 H       
  48 H48            1.9922     6.3526     2.7825 H       
  49 H49            1.3210     7.0390     1.2837 H       
  50 H50            4.6371     8.5717    -0.8177 H       
  51 H51            7.2616     7.5848    -1.1567 H       
  52 H52            6.4726     7.6396    -2.7513 H       
  53 H53            6.6633     9.1325    -1.8010 H       
  54 H54           -0.9902    -0.1620    -2.3665 H       
  55 H55           -1.7447     0.5368    -0.9122 H       
  56 H56           -1.7767     2.1390    -3.4649 H       
  57 H57           -2.9064     0.7741    -3.3055 H       
  58 H58           -3.6011     3.1896    -2.4784 H       
  59 H59           -4.0564     1.7516    -1.5409 H       
  60 H60           -1.2135     4.5118    -0.3676 H       
  61 H61           -1.6490     4.2573    -2.0761 H       
  62 H62           -4.1742     2.8894     0.5387 H       
  63 H63           -2.8479     3.9650     1.0410 H       
  64 H64           -3.8848     4.4132    -0.3345 H       
  65 H65            0.8062    -3.3494    -1.9669 H       
  66 H66           -0.0103    -1.1189    -1.3448 H       
  67 H67            3.4831     0.6571    -3.0801 H       
  68 H68            6.7472    -0.2526    -5.7209 H       
  69 H69            6.6623    -2.0049    -5.4046 H       
  70 H70            2.9727    -0.0594    -4.9750 H       
  71 H71            4.2998     1.0379    -5.4359 H       
  72 H72            3.1248    -1.2335    -7.1053 H       
  73 H73            3.0258     0.5111    -7.4486 H       
  74 H74            6.6555    -1.4002    -7.8673 H       
  75 H75            5.2367    -2.3467    -7.3549 H       
@<TRIPOS>BOND
   1    1    2 1
   2    1    3 2
   3    1   23 1
   4    2   19 1
   5    2    5 1
   6    3    4 1
   7    3    7 1
   8    4    5 2
   9    5    6 1
  10    6   29 ar
  11    6   28 ar
  12    7    8 2
  13    7   10 am
  14    9   10 1
  15    9   11 1
  16    9   15 1
  17    9   39 1
  18   10   40 1
  19   11   12 1
  20   11   13 1
  21   11   14 1
  22   12   41 1
  23   12   42 1
  24   12   43 1
  25   13   44 1
  26   13   45 1
  27   13   46 1
  28   14   47 1
  29   14   48 1
  30   14   49 1
  31   15   16 am
  32   15   17 2
  33   16   18 1
  34   16   50 1
  35   18   51 1
  36   18   52 1
  37   18   53 1
  38   19   20 1
  39   19   54 1
  40   19   55 1
  41   20   21 1
  42   20   56 1
  43   20   57 1
  44   21   22 1
  45   21   58 1
  46   21   59 1
  47   22   23 1
  48   22   24 1
  49   23   60 1
  50   23   61 1
  51   24   62 1
  52   24   63 1
  53   24   64 1
  54   25   26 ar
  55   25   31 1
  56   25   29 ar
  57   26   27 ar
  58   26   30 1
  59   27   28 ar
  60   27   65 1
  61   28   66 1
  62   29   67 1
  63   31   32 2
  64   31   33 am
  65   33   34 1
  66   33   35 1
  67   34   38 1
  68   34   68 1
  69   34   69 1
  70   35   36 1
  71   35   70 1
  72   35   71 1
  73   36   37 1
  74   36   72 1
  75   36   73 1
  76   37   38 1
  77   38   74 1
  78   38   75 1

#	End of record

