#	Name: ASD01908339
#	Creating user name:	WinNT
#	Creation time:	15. 06. 2019 19:54

#	Modifying user name:	WinNT
#	Modification time:	15. 06. 2019 19:54

#	Program:	/corina/corina34_cracker 3.40 0067  02.08.2006

@<TRIPOS>MOLECULE
ASD01908339
  31   33    0    0    0
SMALL
NO_CHARGES


@<TRIPOS>ATOM
   1 S1            -0.0210     1.6952     0.0114 S.3     
   2 N2             0.0021    -0.0041     0.0020 N.2     
   3 C3             1.2612    -0.3413    -0.0118 C.2     
   4 N4             2.1530     0.6196    -0.0152 N.2     
   5 C5             1.6945     1.8561    -0.0042 C.2     
   6 Cl6            1.7416    -2.0094    -0.0248 Cl      
   7 N7             3.0226     5.2301    -0.0001 N.pl3   
   8 N8             4.2027     4.4773    -0.0160 N.2     
   9 C9             3.8883     3.2097    -0.0192 C.2     
  10 C10            2.4814     3.1083    -0.0054 C.2     
  11 C11            1.9786     4.3795     0.0063 C.2     
  12 C12            2.9379     6.6926     0.0137 C.3     
  13 C13            3.7319     7.2308     1.1760 C.ar    
  14 C14            5.0697     7.5403     1.0136 C.ar    
  15 C15            5.7997     8.0338     2.0775 C.ar    
  16 C16            5.1895     8.2189     3.3095 C.ar    
  17 C17            3.8471     7.9076     3.4699 C.ar    
  18 C18            3.1200     7.4197     2.4014 C.ar    
  19 O19            5.9057     8.7039     4.3578 O.3     
  20 C20            5.2123     8.8687     5.5963 C.3     
  21 H21            4.5838     2.3835    -0.0311 H       
  22 H22            0.9336     4.6521     0.0186 H       
  23 H23            3.3428     7.0888    -0.9175 H       
  24 H24            1.8956     6.9952     0.1145 H       
  25 H25            5.5443     7.3957     0.0543 H       
  26 H26            6.8447     8.2751     1.9502 H       
  27 H27            3.3698     8.0508     4.4281 H       
  28 H28            2.0738     7.1817     2.5244 H       
  29 H29            4.3850     9.5651     5.4597 H       
  30 H30            4.8251     7.9049     5.9270 H       
  31 H31            5.8979     9.2618     6.3471 H       
@<TRIPOS>BOND
   1    1    2 1
   2    1    5 1
   3    2    3 2
   4    3    4 1
   5    3    6 1
   6    4    5 2
   7    5   10 1
   8    7    8 1
   9    7   11 1
  10    7   12 1
  11    8    9 2
  12    9   10 1
  13    9   21 1
  14   10   11 2
  15   11   22 1
  16   12   13 1
  17   12   23 1
  18   12   24 1
  19   13   14 ar
  20   13   18 ar
  21   14   15 ar
  22   14   25 1
  23   15   16 ar
  24   15   26 1
  25   16   17 ar
  26   16   19 1
  27   17   18 ar
  28   17   27 1
  29   18   28 1
  30   19   20 1
  31   20   29 1
  32   20   30 1
  33   20   31 1

#	End of record

