#	Name: ASD02560246
#	Creating user name:	WinNT
#	Creation time:	15. 06. 2019 20:24

#	Modifying user name:	WinNT
#	Modification time:	15. 06. 2019 20:24

#	Program:	/corina/corina34_cracker 3.40 0067  02.08.2006

@<TRIPOS>MOLECULE
ASD02560246
  33   35    0    0    0
SMALL
NO_CHARGES


@<TRIPOS>ATOM
   1 C1             0.0340     1.3402     0.4055 C.2     
   2 N2             0.0525    -0.0065     0.3957 N.2     
   3 C3             1.2618    -0.4060     0.0866 C.2     
   4 O4             2.0333     0.6756    -0.1054 O.3     
   5 C5             1.2659     1.7693     0.0939 C.2     
   6 C6             1.7112     3.2049    -0.0139 C.3     
   7 N7             1.6741    -1.7211    -0.0228 N.pl3   
   8 C8             0.7416    -2.7576     0.0861 C.ar    
   9 C9            -0.5749    -2.5531    -0.3068 C.ar    
  10 C10           -1.4937    -3.5784    -0.1982 C.ar    
  11 C11           -1.1038    -4.8086     0.3016 C.ar    
  12 C12            0.2070    -5.0149     0.6942 C.ar    
  13 C13            1.1315    -3.9951     0.5820 C.ar    
  14 C14            2.2092     3.6785     1.3273 C.ar    
  15 C15            3.5436     3.5317     1.6611 C.ar    
  16 C16            4.0003     3.9666     2.8926 C.ar    
  17 C17            3.1234     4.5476     3.7893 C.ar    
  18 C18            1.7899     4.6941     3.4565 C.ar    
  19 C19            1.3333     4.2652     2.2229 C.ar    
  20 Cl20          -0.3416     4.4492     1.8051 Cl      
  21 Cl21           4.6449     2.8015     0.5352 Cl      
  22 Cl22          -2.2615    -6.0952     0.4367 Cl      
  23 H23           -0.8213     1.9633     0.6212 H       
  24 H24            2.5137     3.2823    -0.7475 H       
  25 H25            0.8706     3.8235    -0.3284 H       
  26 H26            2.6101    -1.9249    -0.1750 H       
  27 H27           -0.8798    -1.5932    -0.6966 H       
  28 H28           -2.5176    -3.4199    -0.5032 H       
  29 H29            0.5084    -5.9757     1.0846 H       
  30 H30            2.1544    -4.1567     0.8882 H       
  31 H31            5.0420     3.8517     3.1535 H       
  32 H32            3.4803     4.8869     4.7505 H       
  33 H33            1.1051     5.1475     4.1579 H       
@<TRIPOS>BOND
   1    1    2 1
   2    1    5 2
   3    1   23 1
   4    2    3 2
   5    3    4 1
   6    3    7 1
   7    4    5 1
   8    5    6 1
   9    6   14 1
  10    6   24 1
  11    6   25 1
  12    7    8 1
  13    7   26 1
  14    8    9 ar
  15    8   13 ar
  16    9   10 ar
  17    9   27 1
  18   10   11 ar
  19   10   28 1
  20   11   12 ar
  21   11   22 1
  22   12   13 ar
  23   12   29 1
  24   13   30 1
  25   14   15 ar
  26   14   19 ar
  27   15   16 ar
  28   15   21 1
  29   16   17 ar
  30   16   31 1
  31   17   18 ar
  32   17   32 1
  33   18   19 ar
  34   18   33 1
  35   19   20 1

#	End of record

