#	Name: ASD01918206
#	Creating user name:	WinNT
#	Creation time:	15. 06. 2019 20:11

#	Modifying user name:	WinNT
#	Modification time:	15. 06. 2019 20:11

#	Program:	/corina/corina34_cracker 3.40 0067  02.08.2006

@<TRIPOS>MOLECULE
ASD01918206
  40   43    0    0    0
SMALL
NO_CHARGES


@<TRIPOS>ATOM
   1 C1             0.0473     1.3156    -0.0370 C.ar    
   2 C2             0.1978    -0.0741    -0.2764 C.ar    
   3 C3             1.4811    -0.6570    -0.1399 C.ar    
   4 N4             2.5256     0.1012     0.2100 N.ar    
   5 C5             2.4010     1.3872     0.4350 C.ar    
   6 C6             1.1777     2.0374     0.3221 C.ar    
   7 C7            -1.2712     1.9763    -0.1716 C.ar    
   8 C8            -2.2609     1.7661     0.7888 C.ar    
   9 C9            -3.4870     2.3845     0.6586 C.ar    
  10 C10           -3.7364     3.2127    -0.4229 C.ar    
  11 C11           -2.7578     3.4245    -1.3794 C.ar    
  12 C12           -1.5260     2.8157    -1.2562 C.ar    
  13 C13           -0.8928    -0.8729    -0.6421 C.ar    
  14 C14           -0.7078    -2.2069    -0.8637 C.ar    
  15 C15            0.5549    -2.7840    -0.7297 C.ar    
  16 C16            1.6345    -2.0343    -0.3765 C.ar    
  17 S17            1.0618     3.7676     0.6343 S.o2    
  18 C18            0.0680     3.9723     2.0749 C.ar    
  19 O19            2.3693     4.2007     0.9840 O.2     
  20 O20            0.3224     4.3216    -0.4453 O.2     
  21 C21           -1.2779     4.2622     1.9500 C.ar    
  22 C22            0.6337     3.8373     3.3291 C.ar    
  23 C23           -0.1449     3.9972     4.4596 C.ar    
  24 C24           -1.4918     4.2931     4.3358 C.ar    
  25 C25           -2.0583     4.4229     3.0791 C.ar    
  26 F26           -2.2540     4.4491     5.4403 F       
  27 Cl27          -5.2818     3.9877    -0.5804 Cl      
  28 F28           -1.7600    -2.9774    -1.2165 F       
  29 H29            3.2742     1.9576     0.7152 H       
  30 H30           -2.0676     1.1202     1.6324 H       
  31 H31           -4.2541     2.2223     1.4014 H       
  32 H32           -2.9577     4.0710    -2.2211 H       
  33 H33           -0.7618     2.9854    -2.0003 H       
  34 H34           -1.8747    -0.4358    -0.7479 H       
  35 H35            0.6780    -3.8418    -0.9096 H       
  36 H36            2.6057    -2.4962    -0.2772 H       
  37 H37           -1.7195     4.3634     0.9696 H       
  38 H38            1.6843     3.6065     3.4254 H       
  39 H39            0.2970     3.8910     5.4393 H       
  40 H40           -3.1097     4.6497     2.9812 H       
@<TRIPOS>BOND
   1    1    2 ar
   2    1    6 ar
   3    1    7 1
   4    2    3 ar
   5    2   13 ar
   6    3    4 ar
   7    3   16 ar
   8    4    5 ar
   9    5    6 ar
  10    5   29 1
  11    6   17 1
  12    7    8 ar
  13    7   12 ar
  14    8    9 ar
  15    8   30 1
  16    9   10 ar
  17    9   31 1
  18   10   11 ar
  19   10   27 1
  20   11   12 ar
  21   11   32 1
  22   12   33 1
  23   13   14 ar
  24   13   34 1
  25   14   15 ar
  26   14   28 1
  27   15   16 ar
  28   15   35 1
  29   16   36 1
  30   17   18 1
  31   17   19 2
  32   17   20 2
  33   18   22 ar
  34   18   21 ar
  35   21   25 ar
  36   21   37 1
  37   22   23 ar
  38   22   38 1
  39   23   24 ar
  40   23   39 1
  41   24   25 ar
  42   24   26 1
  43   25   40 1

#	End of record

