#	Name: ASD01814113
#	Creating user name:	WinNT
#	Creation time:	15. 06. 2019 19:31

#	Modifying user name:	WinNT
#	Modification time:	15. 06. 2019 19:31

#	Program:	/corina/corina34_cracker 3.40 0067  02.08.2006

@<TRIPOS>MOLECULE
ASD01814113
  49   51    0    0    0
SMALL
NO_CHARGES


@<TRIPOS>ATOM
   1 C1            -0.0161     1.3340     0.0094 C.2     
   2 C2             0.0021    -0.0041     0.0020 C.2     
   3 C3             1.2547    -0.5702    -0.0130 C.2     
   4 C4             2.2641     0.3508    -0.0177 C.2     
   5 S5             1.5688     1.9658    -0.0024 S.3     
   6 C6             3.6969     0.0421    -0.0326 C.2     
   7 N7             4.6016     1.0411    -0.0359 N.am    
   8 O8             4.0697    -1.1164    -0.0420 O.2     
   9 C9             6.0336     0.7325    -0.0508 C.3     
  10 C10            6.8361     2.0352    -0.0516 C.3     
  11 N11            8.2720     1.7258    -0.0665 N.3     
  12 C12            9.0756     2.9555    -0.0677 C.3     
  13 C13           10.4556     2.6631     0.5283 C.3     
  14 C14           11.3356     3.9148     0.3826 C.3     
  15 N15           11.5203     4.1568    -1.0688 N.am    
  16 C16           10.1959     4.6576    -1.5096 C.3     
  17 C17            9.2309     3.4614    -1.5049 C.3     
  18 C18           10.5140     5.1305     0.8698 C.3     
  19 C19            9.7594     5.6224    -0.3831 C.3     
  20 C20           12.6289     3.9665    -1.8112 C.2     
  21 O21           12.6125     4.2432    -3.1288 O.3     
  22 O22           13.6433     3.5454    -1.2915 O.2     
  23 C23           13.8424     4.0143    -3.8658 C.3     
  24 C24           13.6320     4.3825    -5.3359 C.3     
  25 H25           -0.9141     1.9339     0.0170 H       
  26 H26           -0.9013    -0.5959     0.0078 H       
  27 H27            1.4242    -1.6368    -0.0200 H       
  28 H28            4.3045     1.9645    -0.0284 H       
  29 H29            6.2888     0.1492     0.8339 H       
  30 H30            6.2723     0.1582    -0.9460 H       
  31 H31            6.5809     2.6186    -0.9363 H       
  32 H32            6.5974     2.6095     0.8436 H       
  33 H33            8.5219     1.1313     0.7095 H       
  34 H34            8.5754     3.7162     0.5317 H       
  35 H35           10.3515     2.4108     1.5836 H       
  36 H36           10.9144     1.8302    -0.0045 H       
  37 H37           12.2855     3.8117     0.9072 H       
  38 H38           10.2426     5.1431    -2.4844 H       
  39 H39            9.6336     2.6650    -2.1307 H       
  40 H40            8.2599     3.7741    -1.8888 H       
  41 H41            9.8084     4.8266     1.6430 H       
  42 H42           11.1765     5.9107     1.2447 H       
  43 H43           10.0507     6.6446    -0.6247 H       
  44 H44            8.6825     5.5606    -0.2263 H       
  45 H45           14.6372     4.6315    -3.4469 H       
  46 H46           14.1207     2.9631    -3.7907 H       
  47 H47           12.8372     3.7653    -5.7548 H       
  48 H48           13.3537     5.4336    -5.4110 H       
  49 H49           14.5553     4.2107    -5.8892 H       
@<TRIPOS>BOND
   1    1    2 2
   2    1    5 1
   3    1   25 1
   4    2    3 1
   5    2   26 1
   6    3    4 2
   7    3   27 1
   8    4    5 1
   9    4    6 1
  10    6    7 am
  11    6    8 2
  12    7    9 1
  13    7   28 1
  14    9   10 1
  15    9   29 1
  16    9   30 1
  17   10   11 1
  18   10   31 1
  19   10   32 1
  20   11   12 1
  21   11   33 1
  22   12   13 1
  23   12   17 1
  24   12   34 1
  25   13   14 1
  26   13   35 1
  27   13   36 1
  28   14   15 1
  29   14   18 1
  30   14   37 1
  31   15   16 1
  32   15   20 am
  33   16   17 1
  34   16   19 1
  35   16   38 1
  36   17   39 1
  37   17   40 1
  38   18   19 1
  39   18   41 1
  40   18   42 1
  41   19   43 1
  42   19   44 1
  43   20   21 1
  44   20   22 2
  45   21   23 1
  46   23   24 1
  47   23   45 1
  48   23   46 1
  49   24   47 1
  50   24   48 1
  51   24   49 1

#	End of record

