#	Name: ASD01680139
#	Creating user name:	WinNT
#	Creation time:	15. 06. 2019 19:22

#	Modifying user name:	WinNT
#	Modification time:	15. 06. 2019 19:22

#	Program:	/corina/corina34_cracker 3.40 0067  02.08.2006

@<TRIPOS>MOLECULE
ASD01680139
  80   83    0    0    0
SMALL
NO_CHARGES


@<TRIPOS>ATOM
   1 N1             0.0443     1.4003     0.1639 N.am    
   2 C2             0.0202    -0.0651     0.0040 C.3     
   3 C3             1.4291    -0.5353     0.4437 C.3     
   4 C4             2.3236     0.6096    -0.1008 C.3     
   5 C5             1.4389     1.8597     0.0895 C.3     
   6 C6            -1.0340     2.1887     0.3429 C.2     
   7 O7            -2.1506     1.7126     0.2882 O.2     
   8 O8            -0.8739     3.5040     0.5822 O.3     
   9 C9            -1.0521    -0.6815     0.9047 C.3     
  10 N10           -0.8422    -0.2404     2.2859 N.pl3   
  11 C11           -1.7546    -0.5918     3.2739 C.ar    
  12 C12           -2.8650    -1.3628     2.9444 C.ar    
  13 C13           -3.7646    -1.7052     3.9374 C.ar    
  14 C14           -3.5230    -1.2636     5.2317 C.ar    
  15 C15           -2.4009    -0.5017     5.4877 C.ar    
  16 N16           -1.5563    -0.1946     4.5212 N.ar    
  17 O17            3.5255     0.7196     0.6643 O.3     
  18 C18            4.6461     1.2020    -0.0798 C.3     
  19 C19            5.8521     1.2778     0.8208 C.2     
  20 N20            7.0319     1.7088     0.3322 N.am    
  21 O21            5.7609     0.9509     1.9851 O.2     
  22 C22            8.2042     1.7825     1.2076 C.3     
  23 C23            9.4040     2.2989     0.4109 C.3     
  24 C24           10.6368     2.2588     1.2767 C.2     
  25 O25           11.5879     1.5925     0.9431 O.2     
  26 O26           10.6783     2.9632     2.4186 O.3     
  27 N27            9.6076     1.4537    -0.7682 N.am    
  28 C28           10.2298     1.9518    -1.8550 C.2     
  29 O29           10.6221     3.1026    -1.8570 O.2     
  30 N30           10.4171     1.1741    -2.9398 N.am    
  31 C31           11.0934     1.7155    -4.1212 C.3     
  32 C32           11.1747     0.6515    -5.1852 C.ar    
  33 C33           10.1576     0.5221    -6.1125 C.ar    
  34 C34           10.2321    -0.4540    -7.0884 C.ar    
  35 C35           11.3239    -1.3004    -7.1375 C.ar    
  36 C36           12.3414    -1.1705    -6.2109 C.ar    
  37 C37           12.2690    -0.1916    -5.2375 C.ar    
  38 C38           -2.0796     4.2922     0.7649 C.3     
  39 C39           -1.7060     5.7297     1.0205 C.ar    
  40 C40           -1.5702     6.6073    -0.0389 C.ar    
  41 C41           -1.2275     7.9258     0.1955 C.ar    
  42 C42           -1.0210     8.3668     1.4893 C.ar    
  43 C43           -1.1577     7.4894     2.5487 C.ar    
  44 C44           -1.5046     6.1719     2.3146 C.ar    
  45 H45           -0.1602    -0.3301    -1.0378 H       
  46 H46            1.4976    -0.6018     1.5295 H       
  47 H47            1.6863    -1.4869    -0.0214 H       
  48 H48            2.5496     0.4540    -1.1557 H       
  49 H49            1.5624     2.5337    -0.7582 H       
  50 H50            1.7111     2.3693     1.0138 H       
  51 H51           -2.0379    -0.3618     0.5670 H       
  52 H52           -0.9863    -1.7684     0.8564 H       
  53 H53           -0.0666     0.2970     2.5108 H       
  54 H54           -3.0223    -1.6890     1.9269 H       
  55 H55           -4.6357    -2.3023     3.7113 H       
  56 H56           -4.2064    -1.5134     6.0298 H       
  57 H57           -2.2091    -0.1562     6.4929 H       
  58 H58            4.8524     0.5229    -0.9070 H       
  59 H59            4.4222     2.1943    -0.4715 H       
  60 H60            7.1048     1.9703    -0.5990 H       
  61 H61            7.9979     2.4616     2.0349 H       
  62 H62            8.4281     0.7902     1.5993 H       
  63 H63            9.2156     3.3248     0.0944 H       
  64 H64           11.4903     2.9061     2.9404 H       
  65 H65            9.2947     0.5356    -0.7667 H       
  66 H66           10.1042     0.2560    -2.9383 H       
  67 H67           10.5318     2.5684    -4.5024 H       
  68 H68           12.0995     2.0351    -3.8494 H       
  69 H69            9.3046     1.1834    -6.0741 H       
  70 H70            9.4371    -0.5555    -7.8124 H       
  71 H71           11.3818    -2.0635    -7.8996 H       
  72 H72           13.1942    -1.8320    -6.2490 H       
  73 H73           13.0657    -0.0877    -4.5158 H       
  74 H74           -2.6936     4.2306    -0.1335 H       
  75 H75           -2.6407     3.9059     1.6158 H       
  76 H76           -1.7315     6.2628    -1.0496 H       
  77 H77           -1.1207     8.6114    -0.6322 H       
  78 H78           -0.7525     9.3968     1.6723 H       
  79 H79           -0.9960     7.8338     3.5594 H       
  80 H80           -1.6150     5.4873     3.1425 H       
@<TRIPOS>BOND
   1    1    2 1
   2    1    5 1
   3    1    6 am
   4    2    3 1
   5    2    9 1
   6    2   45 1
   7    3    4 1
   8    3   46 1
   9    3   47 1
  10    4    5 1
  11    4   17 1
  12    4   48 1
  13    5   49 1
  14    5   50 1
  15    6    7 2
  16    6    8 1
  17    8   38 1
  18    9   10 1
  19    9   51 1
  20    9   52 1
  21   10   11 1
  22   10   53 1
  23   11   12 ar
  24   11   16 ar
  25   12   13 ar
  26   12   54 1
  27   13   14 ar
  28   13   55 1
  29   14   15 ar
  30   14   56 1
  31   15   16 ar
  32   15   57 1
  33   17   18 1
  34   18   19 1
  35   18   58 1
  36   18   59 1
  37   19   20 am
  38   19   21 2
  39   20   22 1
  40   20   60 1
  41   22   23 1
  42   22   61 1
  43   22   62 1
  44   23   24 1
  45   23   27 1
  46   23   63 1
  47   24   25 2
  48   24   26 1
  49   26   64 1
  50   27   28 am
  51   27   65 1
  52   28   29 2
  53   28   30 am
  54   30   31 1
  55   30   66 1
  56   31   32 1
  57   31   67 1
  58   31   68 1
  59   32   33 ar
  60   32   37 ar
  61   33   34 ar
  62   33   69 1
  63   34   35 ar
  64   34   70 1
  65   35   36 ar
  66   35   71 1
  67   36   37 ar
  68   36   72 1
  69   37   73 1
  70   38   39 1
  71   38   74 1
  72   38   75 1
  73   39   40 ar
  74   39   44 ar
  75   40   41 ar
  76   40   76 1
  77   41   42 ar
  78   41   77 1
  79   42   43 ar
  80   42   78 1
  81   43   44 ar
  82   43   79 1
  83   44   80 1

#	End of record

