#	Name: ASD05313230
#	Creating user name:	WinNT
#	Creation time:	15. 06. 2019 20:58

#	Modifying user name:	WinNT
#	Modification time:	15. 06. 2019 20:58

#	Program:	/corina/corina34_cracker 3.40 0067  02.08.2006

@<TRIPOS>MOLECULE
ASD05313230
  33   35    0    0    0
SMALL
NO_CHARGES


@<TRIPOS>ATOM
   1 C1            -0.0740     0.8178     1.0267 C.2     
   2 C2             0.1130    -0.6202     0.5977 C.3     
   3 N3             0.9273     1.7301     1.0531 N.pl3   
   4 N4             1.4557    -0.7207    -0.0034 N.am    
   5 C5             2.5695    -0.0397     0.6741 C.3     
   6 C6             2.3153     1.4718     0.6642 C.3     
   7 N7            -1.1709     1.3884     1.4271 N.2     
   8 C8            -0.9165     2.6733     1.7245 C.2     
   9 C9             0.3931     2.9040     1.4975 C.2     
  10 I10            1.4106     4.7139     1.7771 I       
  11 C11            1.6564    -1.4166    -1.1400 C.2     
  12 O12            2.7485    -1.4067    -1.6739 O.2     
  13 C13            0.5491    -2.1916    -1.7373 C.ar    
  14 C14            0.3190    -2.1400    -3.1146 C.ar    
  15 C15           -0.7180    -2.8671    -3.6653 C.ar    
  16 C16           -1.5273    -3.6442    -2.8566 C.ar    
  17 C17           -1.3047    -3.6990    -1.4919 C.ar    
  18 C18           -0.2685    -2.9833    -0.9290 C.ar    
  19 C19           -0.9685    -2.8134    -5.1504 C.3     
  20 F20           -2.0626    -3.6252    -5.4684 F       
  21 F21           -1.2404    -1.4946    -5.5300 F       
  22 F22            0.1649    -3.2704    -5.8314 F       
  23 Cl23           1.3335    -1.1640    -4.1305 Cl      
  24 H24            0.0431    -1.2784     1.4637 H       
  25 H25           -0.6448    -0.8902    -0.1378 H       
  26 H26            2.6389    -0.3909     1.7037 H       
  27 H27            3.5009    -0.2559     0.1509 H       
  28 H28            2.4919     1.8644    -0.3372 H       
  29 H29            2.9878     1.9585     1.3706 H       
  30 H30           -1.6344     3.3951     2.0850 H       
  31 H31           -2.3371    -4.2107    -3.2921 H       
  32 H32           -1.9411    -4.3074    -0.8664 H       
  33 H33           -0.0932    -3.0314     0.1356 H       
@<TRIPOS>BOND
   1    1    2 1
   2    1    3 1
   3    1    7 2
   4    2    4 1
   5    2   24 1
   6    2   25 1
   7    3    6 1
   8    3    9 1
   9    4    5 1
  10    4   11 am
  11    5    6 1
  12    5   26 1
  13    5   27 1
  14    6   28 1
  15    6   29 1
  16    7    8 1
  17    8    9 2
  18    8   30 1
  19    9   10 1
  20   11   12 2
  21   11   13 1
  22   13   14 ar
  23   13   18 ar
  24   14   15 ar
  25   14   23 1
  26   15   16 ar
  27   15   19 1
  28   16   17 ar
  29   16   31 1
  30   17   18 ar
  31   17   32 1
  32   18   33 1
  33   19   20 1
  34   19   21 1
  35   19   22 1

#	End of record

