#	Name: ASD01813293
#	Creating user name:	WinNT
#	Creation time:	15. 06. 2019 19:30

#	Modifying user name:	WinNT
#	Modification time:	15. 06. 2019 19:30

#	Program:	/corina/corina34_cracker 3.40 0067  02.08.2006

@<TRIPOS>MOLECULE
ASD01813293
  49   52    0    0    0
SMALL
NO_CHARGES


@<TRIPOS>ATOM
   1 C1            -0.0184     1.5028     0.0103 C.3     
   2 C2             0.0021    -0.0041     0.0020 C.2     
   3 N3             0.0081    -0.7654    -1.0600 N.2     
   4 N4             0.0279    -2.1034    -0.6481 N.pl3   
   5 C5             0.0406    -3.2734    -1.5296 C.3     
   6 C6             0.0338    -2.1292     0.6999 C.2     
   7 C7             0.0242    -0.8370     1.1376 C.2     
   8 C8             0.0322    -0.3901     2.5535 C.ar    
   9 C9             0.9431     0.5752     2.9766 C.ar    
  10 C10            0.9459     0.9874     4.2939 C.ar    
  11 C11            0.0465     0.4439     5.1931 C.ar    
  12 C12            0.0540     0.8982     6.6300 C.3     
  13 N13           -0.8527     2.0382     6.7864 N.am    
  14 C14           -0.4850     3.4511     6.6309 C.3     
  15 C15           -1.7406     4.2415     6.8853 C.ar    
  16 C16           -2.0502     5.5826     6.8915 C.ar    
  17 C17           -3.3498     5.9720     7.1759 C.ar    
  18 N18           -4.2856     5.0804     7.4384 N.ar    
  19 C19           -4.0369     3.7807     7.4443 C.ar    
  20 O20           -5.0314     2.9038     7.7198 O.3     
  21 C21           -6.3222     3.4521     7.9943 C.3     
  22 C22           -7.3079     2.3175     8.2805 C.3     
  23 F23           -7.3863     1.4757     7.1659 F       
  24 F24           -6.8673     1.5851     9.3880 F       
  25 C25           -2.7464     3.3094     7.1661 C.ar    
  26 C26           -2.1607     1.9630     7.0904 C.2     
  27 O27           -2.7714     0.9286     7.2786 O.2     
  28 C28           -0.8600    -0.5149     4.7783 C.ar    
  29 C29           -0.8750    -0.9304     3.4621 C.ar    
  30 H30            1.0042     1.8801     0.0026 H       
  31 H31           -0.5455     1.8639    -0.8728 H       
  32 H32           -0.5286     1.8543     0.9071 H       
  33 H33            1.0713    -3.5492    -1.7525 H       
  34 H34           -0.4596    -4.1062    -1.0354 H       
  35 H35           -0.4804    -3.0353    -2.4570 H       
  36 H36            0.0483    -3.0128     1.3208 H       
  37 H37            1.6460     0.9999     2.2753 H       
  38 H38            1.6520     1.7355     4.6230 H       
  39 H39           -0.2760     0.0809     7.2712 H       
  40 H40            1.0640     1.1959     6.9117 H       
  41 H41            0.2815     3.7211     7.3573 H       
  42 H42           -0.1246     3.6355     5.6189 H       
  43 H43           -1.2914     6.3210     6.6782 H       
  44 H44           -3.6000     7.0226     7.1829 H       
  45 H45           -6.2611     4.1081     8.8627 H       
  46 H46           -6.6655     4.0228     7.1314 H       
  47 H47           -8.2925     2.7358     8.4898 H       
  48 H48           -1.5600    -0.9364     5.4846 H       
  49 H49           -1.5862    -1.6758     3.1382 H       
@<TRIPOS>BOND
   1    1    2 1
   2    1   30 1
   3    1   31 1
   4    1   32 1
   5    2    7 1
   6    2    3 2
   7    3    4 1
   8    4    5 1
   9    4    6 1
  10    5   33 1
  11    5   34 1
  12    5   35 1
  13    6    7 2
  14    6   36 1
  15    7    8 1
  16    8   29 ar
  17    8    9 ar
  18    9   10 ar
  19    9   37 1
  20   10   11 ar
  21   10   38 1
  22   11   12 1
  23   11   28 ar
  24   12   13 1
  25   12   39 1
  26   12   40 1
  27   13   26 am
  28   13   14 1
  29   14   15 1
  30   14   41 1
  31   14   42 1
  32   15   25 ar
  33   15   16 ar
  34   16   17 ar
  35   16   43 1
  36   17   18 ar
  37   17   44 1
  38   18   19 ar
  39   19   20 1
  40   19   25 ar
  41   20   21 1
  42   21   22 1
  43   21   45 1
  44   21   46 1
  45   22   23 1
  46   22   24 1
  47   22   47 1
  48   25   26 1
  49   26   27 2
  50   28   29 ar
  51   28   48 1
  52   29   49 1

#	End of record

