#	Name: ASD04880129
#	Creating user name:	WinNT
#	Creation time:	15. 06. 2019 20:52

#	Modifying user name:	WinNT
#	Modification time:	15. 06. 2019 20:52

#	Program:	/corina/corina34_cracker 3.40 0067  02.08.2006

@<TRIPOS>MOLECULE
ASD04880129
  51   53    0    0    0
SMALL
NO_CHARGES


@<TRIPOS>ATOM
   1 C1            -0.0144     1.2121     0.0087 C.2     
   2 O2             0.0688    -0.0012    -0.0095 O.2     
   3 C3             1.2089     2.0357    -0.0196 C.ar    
   4 C4             2.4689     1.4288     0.0665 C.ar    
   5 C5             3.6137     2.2142     0.0389 C.ar    
   6 C6             3.5081     3.5882    -0.0732 C.ar    
   7 C7             2.2636     4.1903    -0.1585 C.ar    
   8 C8             1.1177     3.4250    -0.1383 C.ar    
   9 O9             2.5698     0.0799     0.1769 O.3     
  10 C10            2.6562    -0.6658    -1.0391 C.3     
  11 F11            4.8316     1.6353     0.1220 F       
  12 N12           -1.2246     1.8040     0.0492 N.am    
  13 N13           -1.4536     3.1717     0.1854 N.2     
  14 C14           -2.7001     3.4979     0.1976 C.2     
  15 C15           -3.5490     2.2548     0.0559 C.3     
  16 C16           -2.5196     1.1122    -0.0495 C.3     
  17 C17           -4.4392     2.0697     1.2864 C.3     
  18 C18           -4.3968     2.3259    -1.2157 C.3     
  19 C19           -3.2187     4.8715     0.3302 C.ar    
  20 C20           -2.3332     5.9456     0.4555 C.ar    
  21 C21           -2.8247     7.2312     0.5795 C.ar    
  22 C22           -4.2003     7.4544     0.5800 C.ar    
  23 C23           -5.0794     6.3887     0.4562 C.ar    
  24 C24           -4.5962     5.1034     0.3252 C.ar    
  25 O25           -4.6818     8.7197     0.7026 O.3     
  26 C26           -6.1021     8.8769     0.6955 C.3     
  27 O27           -1.9660     8.2786     0.7016 O.3     
  28 C28           -0.5693     7.9767     0.6939 C.3     
  29 H29            4.4010     4.1955    -0.0939 H       
  30 H30            2.1910     5.2643    -0.2454 H       
  31 H31            0.1500     3.8990    -0.2100 H       
  32 H32            1.7640    -0.4870    -1.6391 H       
  33 H33            3.5382    -0.3507    -1.5967 H       
  34 H34            2.7324    -1.7285    -0.8089 H       
  35 H35           -2.6089     0.6002    -1.0077 H       
  36 H36           -2.6430     0.4098     0.7748 H       
  37 H37           -5.1116     2.9224     1.3800 H       
  38 H38           -5.0239     1.1562     1.1778 H       
  39 H39           -3.8164     1.9985     2.1781 H       
  40 H40           -3.7441     2.4347    -2.0819 H       
  41 H41           -4.9816     1.4113    -1.3141 H       
  42 H42           -5.0686     3.1822    -1.1571 H       
  43 H43           -1.2674     5.7713     0.4557 H       
  44 H44           -6.1447     6.5663     0.4574 H       
  45 H45           -5.2828     4.2760     0.2241 H       
  46 H46           -6.3513     9.9328     0.8003 H       
  47 H47           -6.5047     8.5001    -0.2447 H       
  48 H48           -6.5337     8.3176     1.5256 H       
  49 H49           -0.3372     7.3094     1.5239 H       
  50 H50           -0.3076     7.4915    -0.2465 H       
  51 H51            0.0024     8.8988     0.7983 H       
@<TRIPOS>BOND
   1    1    2 2
   2    1    3 1
   3    1   12 am
   4    3    4 ar
   5    3    8 ar
   6    4    5 ar
   7    4    9 1
   8    5    6 ar
   9    5   11 1
  10    6    7 ar
  11    6   29 1
  12    7    8 ar
  13    7   30 1
  14    8   31 1
  15    9   10 1
  16   10   32 1
  17   10   33 1
  18   10   34 1
  19   12   13 1
  20   12   16 1
  21   13   14 2
  22   14   15 1
  23   14   19 1
  24   15   16 1
  25   15   17 1
  26   15   18 1
  27   16   35 1
  28   16   36 1
  29   17   37 1
  30   17   38 1
  31   17   39 1
  32   18   40 1
  33   18   41 1
  34   18   42 1
  35   19   20 ar
  36   19   24 ar
  37   20   21 ar
  38   20   43 1
  39   21   22 ar
  40   21   27 1
  41   22   23 ar
  42   22   25 1
  43   23   24 ar
  44   23   44 1
  45   24   45 1
  46   25   26 1
  47   26   46 1
  48   26   47 1
  49   26   48 1
  50   27   28 1
  51   28   49 1
  52   28   50 1
  53   28   51 1

#	End of record

