#	Name: ASD01940563
#	Creating user name:	WinNT
#	Creation time:	15. 06. 2019 20:12

#	Modifying user name:	WinNT
#	Modification time:	15. 06. 2019 20:12

#	Program:	/corina/corina34_cracker 3.40 0067  02.08.2006

@<TRIPOS>MOLECULE
ASD01940563
  32   32    0    0    0
SMALL
NO_CHARGES


@<TRIPOS>ATOM
   1 N1            -0.0169     1.3954     0.0097 N.pl3   
   2 C2             0.0021    -0.0041     0.0020 C.ar    
   3 C3             1.2172    -0.6862    -0.0132 C.ar    
   4 C4             1.2299    -2.0708    -0.0209 C.ar    
   5 C5             0.0387    -2.7739    -0.0133 C.ar    
   6 C6            -1.1669    -2.0981     0.0018 C.ar    
   7 C7            -1.1882    -0.7157     0.0153 C.ar    
   8 N8             2.5186    -2.7988    -0.0376 N.pl3   
   9 O9             2.5300    -4.0167    -0.0442 O.2     
  10 O10            3.5676    -2.1799    -0.0446 O.2     
  11 O11            2.3877     0.0063    -0.0211 O.3     
  12 C12            2.9584     0.3302     1.2483 C.3     
  13 C13           -2.4612    -2.8699     0.0095 C.3     
  14 C14           -2.5182    -3.7578     1.2543 C.3     
  15 C15           -3.6379    -1.8922     0.0261 C.3     
  16 C16           -2.5415    -3.7434    -1.2441 C.3     
  17 H17            0.8164     1.8918     0.0044 H       
  18 H18           -0.8634     1.8689     0.0163 H       
  19 H19            0.0507    -3.8538    -0.0196 H       
  20 H20           -2.1316    -0.1901     0.0320 H       
  21 H21            2.2587     0.9442     1.8153 H       
  22 H22            3.1649    -0.5877     1.7987 H       
  23 H23            3.8870     0.8812     1.0993 H       
  24 H24           -2.4610    -3.1355     2.1473 H       
  25 H25           -3.4544    -4.3160     1.2598 H       
  26 H26           -1.6799    -4.4543     1.2424 H       
  27 H27           -3.5973    -1.2597    -0.8607 H       
  28 H28           -4.5741    -2.4505     0.0316 H       
  29 H29           -3.5807    -1.2700     0.9192 H       
  30 H30           -1.7032    -4.4400    -1.2559 H       
  31 H31           -3.4777    -4.3017    -1.2385 H       
  32 H32           -2.5009    -3.1109    -2.1309 H       
@<TRIPOS>BOND
   1    1    2 1
   2    1   17 1
   3    1   18 1
   4    2    3 ar
   5    2    7 ar
   6    3    4 ar
   7    3   11 1
   8    4    5 ar
   9    4    8 1
  10    5    6 ar
  11    5   19 1
  12    6    7 ar
  13    6   13 1
  14    7   20 1
  15    8    9 2
  16    8   10 2
  17   11   12 1
  18   12   21 1
  19   12   22 1
  20   12   23 1
  21   13   14 1
  22   13   16 1
  23   13   15 1
  24   14   24 1
  25   14   25 1
  26   14   26 1
  27   15   27 1
  28   15   28 1
  29   15   29 1
  30   16   30 1
  31   16   31 1
  32   16   32 1

#	End of record

