#	Name: ASD01885011
#	Creating user name:	WinNT
#	Creation time:	15. 06. 2019 19:49

#	Modifying user name:	WinNT
#	Modification time:	15. 06. 2019 19:49

#	Program:	/corina/corina34_cracker 3.40 0067  02.08.2006

@<TRIPOS>MOLECULE
ASD01885011
  48   52    0    0    0
SMALL
NO_CHARGES


@<TRIPOS>ATOM
   1 F1             3.3995     3.0547     3.6027 F       
   2 C2             3.4248     3.9209     2.5663 C.ar    
   3 C3             3.6702     5.2647     2.7923 C.ar    
   4 C4             3.6958     6.1499     1.7313 C.ar    
   5 C5             3.4766     5.6942     0.4447 C.ar    
   6 C6             3.2314     4.3527     0.2178 C.ar    
   7 C7             3.2110     3.4647     1.2766 C.ar    
   8 C8             3.5043     6.6605    -0.7113 C.3     
   9 H9             4.1013     7.5596    -0.5583 H       
  10 C10            3.4599     6.0739    -2.1237 C.3     
  11 C11            2.2336     6.7911    -1.5535 C.3     
  12 H12            1.3776     6.1781    -1.2714 H       
  13 C13            1.8985     8.1736    -2.1169 C.3     
  14 O14            0.6289     8.1264    -2.7711 O.3     
  15 C15            0.1324     9.3002    -3.2383 C.2     
  16 C16            0.7865     9.9798    -4.2868 C.2     
  17 C17            0.2950    11.1453    -4.7526 C.2     
  18 N18           -0.8388    11.6835    -4.2183 N.pl3   
  19 C19           -1.5531    12.8160    -4.4747 C.2     
  20 C20           -1.2319    13.8552    -5.5177 C.3     
  21 C21           -1.9195    13.4865    -6.8338 C.3     
  22 C22           -2.9849    14.4463    -7.3673 C.3     
  23 C23           -1.6211    14.3583    -8.0552 C.3     
  24 N24           -2.5679    12.8355    -3.6509 N.2     
  25 N25           -2.5474    11.7970    -2.8916 N.2     
  26 C26           -1.4998    11.0468    -3.1962 C.2     
  27 C27           -1.0071     9.8273    -2.6995 C.2     
  28 C28           -1.7240     9.1130    -1.5828 C.3     
  29 F29           -1.1163     7.8735    -1.3561 F       
  30 F30           -1.6582     9.8846    -0.4177 F       
  31 F31           -3.0630     8.9179    -1.9379 F       
  32 H32            3.8412     5.6210     3.7974 H       
  33 H33            3.8869     7.1982     1.9075 H       
  34 H34            3.0599     3.9978    -0.7877 H       
  35 H35            3.0240     2.4160     1.0986 H       
  36 H36            4.0273     6.5872    -2.8999 H       
  37 H37            3.4106     4.9890    -2.2167 H       
  38 H38            1.8614     8.8982    -1.3035 H       
  39 H39            2.6653     8.4698    -2.8328 H       
  40 H40            1.6855     9.5647    -4.7181 H       
  41 H41            0.8036    11.6577    -5.5559 H       
  42 H42           -1.5881    14.8291    -5.1820 H       
  43 H43           -0.1533    13.8957    -5.6702 H       
  44 H44           -2.0726    12.4205    -7.0017 H       
  45 H45           -3.8393    14.0117    -7.8862 H       
  46 H46           -3.1960    15.3404    -6.7806 H       
  47 H47           -0.9349    15.1946    -7.9211 H       
  48 H48           -1.5783    13.8659    -9.0267 H       
@<TRIPOS>BOND
   1    1    2 1
   2    2    7 ar
   3    2    3 ar
   4    3    4 ar
   5    3   32 1
   6    4    5 ar
   7    4   33 1
   8    5    6 ar
   9    5    8 1
  10    6    7 ar
  11    6   34 1
  12    7   35 1
  13    8    9 1
  14    8   11 1
  15    8   10 1
  16   10   11 1
  17   10   36 1
  18   10   37 1
  19   11   12 1
  20   11   13 1
  21   13   14 1
  22   13   38 1
  23   13   39 1
  24   14   15 1
  25   15   27 2
  26   15   16 1
  27   16   17 2
  28   16   40 1
  29   17   18 1
  30   17   41 1
  31   18   26 1
  32   18   19 1
  33   19   20 1
  34   19   24 2
  35   20   21 1
  36   20   42 1
  37   20   43 1
  38   21   23 1
  39   21   22 1
  40   21   44 1
  41   22   23 1
  42   22   45 1
  43   22   46 1
  44   23   47 1
  45   23   48 1
  46   24   25 1
  47   25   26 2
  48   26   27 1
  49   27   28 1
  50   28   29 1
  51   28   30 1
  52   28   31 1

#	End of record

