#	Name: ASD02500858
#	Creating user name:	WinNT
#	Creation time:	15. 06. 2019 20:23

#	Modifying user name:	WinNT
#	Modification time:	15. 06. 2019 20:23

#	Program:	/corina/corina34_cracker 3.40 0067  02.08.2006

@<TRIPOS>MOLECULE
ASD02500858
  45   47    0    0    0
SMALL
NO_CHARGES


@<TRIPOS>ATOM
   1 C1             0.0841     1.4114     0.0064 C.ar    
   2 C2             0.0663     0.0319    -0.0547 C.ar    
   3 C3             1.2934     2.0873     0.1647 C.ar    
   4 C4             2.4830     1.3777     0.2610 C.ar    
   5 C5             2.4753     0.0015     0.2012 C.ar    
   6 C6             1.2652    -0.6849     0.0428 C.ar    
   7 C7             1.2535    -2.1519    -0.0209 C.2     
   8 C8             2.2223    -2.8092    -0.7080 C.2     
   9 C9             3.2582    -2.2387    -1.5768 C.2     
  10 N10            4.0771    -3.1221    -2.1230 N.am    
  11 C11            3.9142    -4.4235    -1.8586 C.2     
  12 S12            2.5328    -4.5560    -0.7563 S.3     
  13 S13            4.8630    -5.7135    -2.4641 S.2     
  14 O14            3.3562    -1.0426    -1.7798 O.2     
  15 C15            5.1544    -2.6788    -3.0113 C.3     
  16 C16            6.3954    -2.4088    -2.2000 C.2     
  17 O17            7.5163    -1.9892    -2.8076 O.3     
  18 O18            6.3814    -2.5701    -1.0027 O.2     
  19 O19            1.3077     3.4445     0.2245 O.3     
  20 O20           -1.0776     2.1112    -0.0935 O.3     
  21 C21           -2.2784     1.3547    -0.2602 C.3     
  22 C22            2.5805     4.0733     0.3876 C.3     
  23 C23            2.4000     5.5687     0.4324 C.ar    
  24 C24            2.1900     6.2036     1.6423 C.ar    
  25 C25            2.4500     6.3063    -0.7356 C.ar    
  26 C26            2.2844     7.6781    -0.6945 C.ar    
  27 C27            2.0683     8.3122     0.5146 C.ar    
  28 C28            2.0243     7.5754     1.6834 C.ar    
  29 H29           -0.8698    -0.4926    -0.1770 H       
  30 H30            3.4169     1.9063     0.3829 H       
  31 H31            3.4022    -0.5477     0.2760 H       
  32 H32            0.4740    -2.7079     0.4788 H       
  33 H33            5.3627    -3.4566    -3.7460 H       
  34 H34            4.8501    -1.7665    -3.5243 H       
  35 H35            8.2868    -1.8292    -2.2456 H       
  36 H36           -2.4099     0.6891     0.5929 H       
  37 H37           -3.1291     2.0331    -0.3262 H       
  38 H38           -2.2123     0.7649    -1.1744 H       
  39 H39            3.0367     3.7343     1.3177 H       
  40 H40            3.2258     3.8102    -0.4506 H       
  41 H41            2.1550     5.6278     2.5553 H       
  42 H42            2.6188     5.8108    -1.6803 H       
  43 H43            2.3241     8.2544    -1.6070 H       
  44 H44            1.9393     9.3840     0.5468 H       
  45 H45            1.8556     8.0708     2.6281 H       
@<TRIPOS>BOND
   1    1    2 ar
   2    1    3 ar
   3    1   20 1
   4    2    6 ar
   5    2   29 1
   6    3    4 ar
   7    3   19 1
   8    4    5 ar
   9    4   30 1
  10    5    6 ar
  11    5   31 1
  12    6    7 1
  13    7    8 2
  14    7   32 1
  15    8    9 1
  16    8   12 1
  17    9   10 am
  18    9   14 2
  19   10   11 am
  20   10   15 1
  21   11   12 1
  22   11   13 2
  23   15   16 1
  24   15   33 1
  25   15   34 1
  26   16   17 1
  27   16   18 2
  28   17   35 1
  29   19   22 1
  30   20   21 1
  31   21   36 1
  32   21   37 1
  33   21   38 1
  34   22   23 1
  35   22   39 1
  36   22   40 1
  37   23   24 ar
  38   23   25 ar
  39   24   28 ar
  40   24   41 1
  41   25   26 ar
  42   25   42 1
  43   26   27 ar
  44   26   43 1
  45   27   28 ar
  46   27   44 1
  47   28   45 1

#	End of record

