#	Name: ASD01028174
#	Creating user name:	WinNT
#	Creation time:	15. 06. 2019 18:56

#	Modifying user name:	WinNT
#	Modification time:	15. 06. 2019 18:56

#	Program:	/corina/corina34_cracker 3.40 0067  02.08.2006

@<TRIPOS>MOLECULE
ASD01028174
  57   61    0    0    0
SMALL
NO_CHARGES


@<TRIPOS>ATOM
   1 C1            -0.3622     1.7499    -0.1651 C.2     
   2 C2             0.1820     0.4112     0.1254 C.ar    
   3 C3            -0.5378    -0.4954     0.9126 C.ar    
   4 C4             0.0167    -1.7392     1.1559 C.ar    
   5 C5             1.2543    -2.0503     0.6205 C.ar    
   6 N6             1.9170    -1.1826    -0.1183 N.ar    
   7 C7             1.4303     0.0193    -0.3878 C.ar    
   8 O8             0.3277     2.5774    -0.7293 O.2     
   9 N9            -1.6261     2.0551     0.1897 N.am    
  10 N10            2.1572     0.8959    -1.1735 N.pl3   
  11 N11            6.7580     2.0237    -2.5638 N.pl3   
  12 N12            7.8138     1.1464    -2.8397 N.2     
  13 C13            7.4190    -0.0828    -2.6773 C.2     
  14 C14            6.0599    -0.0738    -2.2795 C.ar    
  15 C15            5.1386    -1.0838    -1.9707 C.ar    
  16 C16            3.8660    -0.7565    -1.6108 C.ar    
  17 C17            3.4671     0.5799    -1.5447 C.ar    
  18 C18            4.3593     1.5928    -1.8447 C.ar    
  19 C19            5.6626     1.2755    -2.2145 C.ar    
  20 N20           -5.1201     5.4034    -0.7567 N.am    
  21 C21           -5.1426     6.8683    -0.7301 C.3     
  22 C22           -3.7253     7.2858    -0.3056 C.3     
  23 C23           -2.9838     5.9811    -0.1180 C.ar    
  24 C24           -1.6776     5.7286     0.2583 C.ar    
  25 C25           -1.2223     4.4290     0.3617 C.ar    
  26 C26           -2.0825     3.3730     0.0864 C.ar    
  27 C27           -3.3911     3.6243    -0.2907 C.ar    
  28 C28           -3.8521     4.9368    -0.3960 C.ar    
  29 C29           -3.0642     8.1223    -1.4030 C.3     
  30 C30           -3.7705     8.0677     1.0087 C.3     
  31 C31           -6.1694     4.6203    -1.0764 C.2     
  32 O32           -6.0250     3.4193    -1.1651 O.2     
  33 C33           -7.5221     5.2369    -1.3236 C.3     
  34 H34           -1.5021    -0.2302     1.3203 H       
  35 H35           -0.5121    -2.4619     1.7596 H       
  36 H36            1.6854    -3.0220     0.8117 H       
  37 H37           -2.2191     1.3607     0.5167 H       
  38 H38            1.7578     1.7298    -1.4667 H       
  39 H39            6.7957     2.9919    -2.6080 H       
  40 H40            8.0268    -0.9637    -2.8224 H       
  41 H41            5.4369    -2.1207    -2.0190 H       
  42 H42            3.1594    -1.5381    -1.3737 H       
  43 H43            4.0460     2.6251    -1.7926 H       
  44 H44           -5.3716     7.2609    -1.7208 H       
  45 H45           -5.8744     7.2220    -0.0039 H       
  46 H46           -1.0107     6.5508     0.4719 H       
  47 H47           -0.2015     4.2341     0.6555 H       
  48 H48           -4.0571     2.8013    -0.5043 H       
  49 H49           -3.6584     9.0177    -1.5850 H       
  50 H50           -2.0615     8.4096    -1.0865 H       
  51 H51           -3.0017     7.5353    -2.3194 H       
  52 H52           -4.2047     7.4423     1.7887 H       
  53 H53           -2.7590     8.3557     1.2951 H       
  54 H54           -4.3799     8.9620     0.8787 H       
  55 H55           -7.6522     5.4112    -2.3917 H       
  56 H56           -8.2999     4.5609    -0.9684 H       
  57 H57           -7.5925     6.1844    -0.7896 H       
@<TRIPOS>BOND
   1    1    2 1
   2    1    8 2
   3    1    9 am
   4    2    3 ar
   5    2    7 ar
   6    3    4 ar
   7    3   34 1
   8    4    5 ar
   9    4   35 1
  10    5    6 ar
  11    5   36 1
  12    6    7 ar
  13    7   10 1
  14    9   26 1
  15    9   37 1
  16   10   17 1
  17   10   38 1
  18   11   12 1
  19   11   19 1
  20   11   39 1
  21   12   13 2
  22   13   14 1
  23   13   40 1
  24   14   15 ar
  25   14   19 ar
  26   15   16 ar
  27   15   41 1
  28   16   17 ar
  29   16   42 1
  30   17   18 ar
  31   18   19 ar
  32   18   43 1
  33   20   21 1
  34   20   28 1
  35   20   31 am
  36   21   22 1
  37   21   44 1
  38   21   45 1
  39   22   23 1
  40   22   29 1
  41   22   30 1
  42   23   24 ar
  43   23   28 ar
  44   24   25 ar
  45   24   46 1
  46   25   26 ar
  47   25   47 1
  48   26   27 ar
  49   27   28 ar
  50   27   48 1
  51   29   49 1
  52   29   50 1
  53   29   51 1
  54   30   52 1
  55   30   53 1
  56   30   54 1
  57   31   32 2
  58   31   33 1
  59   33   55 1
  60   33   56 1
  61   33   57 1

#	End of record

