#	Name: ASD01810415
#	Creating user name:	WinNT
#	Creation time:	15. 06. 2019 19:24

#	Modifying user name:	WinNT
#	Modification time:	15. 06. 2019 19:24

#	Program:	/corina/corina34_cracker 3.40 0067  02.08.2006

@<TRIPOS>MOLECULE
ASD01810415
  39   41    0    0    0
SMALL
NO_CHARGES


@<TRIPOS>ATOM
   1 C1            -0.0167     1.3786     0.0096 C.ar    
   2 C2             0.0021    -0.0041     0.0020 C.ar    
   3 C3            -1.1835    -0.7123     0.0095 C.ar    
   4 C4            -2.3957    -0.0342     0.0247 C.ar    
   5 C5            -2.4110     1.3548     0.0324 C.ar    
   6 C6            -1.2216     2.0568     0.0305 C.ar    
   7 C7             1.2790     2.1481     0.0014 C.3     
   8 N8             1.6857     2.4049    -1.3824 N.pl3   
   9 C9            -4.8742    -0.0306     0.0480 C.3     
  10 C10            1.2510     3.5611    -1.9942 C.ar    
  11 C11            2.4685     1.5088    -1.9974 C.2     
  12 C12            2.8957     1.6762    -3.2989 C.2     
  13 C13            2.4765     2.8798    -4.0359 C.2     
  14 C14            1.6201     3.8426    -3.3210 C.ar    
  15 C15            1.1742     5.0124    -3.9411 C.ar    
  16 C16            0.3729     5.8916    -3.2398 C.ar    
  17 C17            0.0136     5.6160    -1.9296 C.ar    
  18 C18            0.4433     4.4631    -1.3080 C.ar    
  19 F19            1.5248     5.2818    -5.2176 F       
  20 O20            2.8272     3.0742    -5.1866 O.2     
  21 C21            3.7552     0.6701    -3.9384 C.2     
  22 O22            4.0956    -0.3198    -3.3203 O.2     
  23 O23            4.1660     0.8449    -5.2103 O.3     
  24 N24           -3.5967    -0.7474     0.0319 N.pl3   
  25 *25           -3.5783    -2.2473     0.0232 Du      
  26 H26            0.9449    -0.5307    -0.0102 H       
  27 H27           -1.1682    -1.7922     0.0032 H       
  28 H28           -3.3517     1.8851     0.0442 H       
  29 H29           -1.2327     3.1367     0.0368 H       
  30 H30            1.1420     3.0961     0.5216 H       
  31 H31            2.0507     1.5657     0.5047 H       
  32 H32           -4.9479     0.6004    -0.8378 H       
  33 H33           -5.6939    -0.7490     0.0515 H       
  34 H34           -4.9313     0.5902     0.9421 H       
  35 H35            2.7758     0.6260    -1.4565 H       
  36 H36            0.0251     6.7975    -3.7138 H       
  37 H37           -0.6130     6.3112    -1.3906 H       
  38 H38            0.1553     4.2610    -0.2869 H       
  39 H39            4.7300     0.1563    -5.5881 H       
@<TRIPOS>BOND
   1    1    2 ar
   2    1    7 1
   3    1    6 ar
   4    2    3 ar
   5    2   26 1
   6    3    4 ar
   7    3   27 1
   8    4    5 ar
   9    4   24 1
  10    5    6 ar
  11    5   28 1
  12    6   29 1
  13    7    8 1
  14    7   30 1
  15    7   31 1
  16    8   10 1
  17    8   11 1
  18    9   24 1
  19    9   32 1
  20    9   33 1
  21    9   34 1
  22   10   14 ar
  23   10   18 ar
  24   11   12 2
  25   11   35 1
  26   12   13 1
  27   12   21 1
  28   13   14 1
  29   13   20 2
  30   14   15 ar
  31   15   16 ar
  32   15   19 1
  33   16   17 ar
  34   16   36 1
  35   17   18 ar
  36   17   37 1
  37   18   38 1
  38   21   22 2
  39   21   23 1
  40   23   39 1
  41   24   25 1

#	End of record

