#	Name: ASD05250055
#	Creating user name:	WinNT
#	Creation time:	15. 06. 2019 20:58

#	Modifying user name:	WinNT
#	Modification time:	15. 06. 2019 20:58

#	Program:	/corina/corina34_cracker 3.40 0067  02.08.2006

@<TRIPOS>MOLECULE
ASD05250055
  28   29    0    0    0
SMALL
NO_CHARGES


@<TRIPOS>ATOM
   1 C1            -0.0167     1.3802     0.0096 C.ar    
   2 C2             0.0021    -0.0041     0.0020 C.ar    
   3 C3             1.1914    -0.6964    -0.0126 C.ar    
   4 C4             2.4207    -0.0094    -0.0202 C.ar    
   5 C5             2.3652     1.3910    -0.0126 C.ar    
   6 C6             1.1834     2.0757     0.0019 C.ar    
   7 C7             3.7812    -0.5626    -0.0347 C.2     
   8 C8             4.8139     0.2623    -0.0394 C.2     
   9 S9             4.0703     1.8805    -0.0249 S.o2    
  10 O10            4.3364     2.4901    -1.2806 O.2     
  11 O11            4.3580     2.4774     1.2322 O.2     
  12 Cl12          -1.4969    -0.8796     0.0116 Cl      
  13 C13            3.9973    -2.0540    -0.0435 C.3     
  14 C14            3.9586    -2.5835     1.3914 C.3     
  15 N15            2.6135    -2.3890     1.9490 N.3     
  16 C16            4.2959    -4.0522     1.3942 C.2     
  17 O17            3.4136    -4.8746     1.4643 O.2     
  18 O18            5.5767    -4.4468     1.3187 O.3     
  19 H19           -0.9561     1.9130     0.0170 H       
  20 H20            1.1819    -1.7764    -0.0179 H       
  21 H21            1.1833     3.1557     0.0070 H       
  22 H22            5.8646     0.0130    -0.0494 H       
  23 H23            3.2111    -2.5316    -0.6283 H       
  24 H24            4.9673    -2.2780    -0.4874 H       
  25 H25            4.6850    -2.0427     1.9980 H       
  26 H26            2.3890    -1.4077     2.0178 H       
  27 H27            1.9215    -2.8809     1.4039 H       
  28 H28            5.7437    -5.3993     1.3238 H       
@<TRIPOS>BOND
   1    1    2 ar
   2    1    6 ar
   3    1   19 1
   4    2    3 ar
   5    2   12 1
   6    3    4 ar
   7    3   20 1
   8    4    5 ar
   9    4    7 1
  10    5    6 ar
  11    5    9 1
  12    6   21 1
  13    7    8 2
  14    7   13 1
  15    8    9 1
  16    8   22 1
  17    9   10 2
  18    9   11 2
  19   13   14 1
  20   13   23 1
  21   13   24 1
  22   14   15 1
  23   14   16 1
  24   14   25 1
  25   15   26 1
  26   15   27 1
  27   16   17 2
  28   16   18 1
  29   18   28 1

#	End of record

