#	Name: ASD01913616
#	Creating user name:	WinNT
#	Creation time:	15. 06. 2019 20:01

#	Modifying user name:	WinNT
#	Modification time:	15. 06. 2019 20:01

#	Program:	/corina/corina34_cracker 3.40 0067  02.08.2006

@<TRIPOS>MOLECULE
ASD01913616
  48   52    0    0    0
SMALL
NO_CHARGES


@<TRIPOS>ATOM
   1 C1             0.0889     1.4554     0.3117 C.ar    
   2 C2             0.0485    -0.0127     0.1329 C.2     
   3 N3            -1.0124    -0.8155     0.3819 N.pl3   
   4 N4            -0.6021    -2.1226     0.0737 N.2     
   5 C5             0.6467    -2.0460    -0.3331 C.2     
   6 N6             1.0361    -0.7667    -0.3016 N.2     
   7 C7             1.4853    -3.1924    -0.7631 C.ar    
   8 C8             2.7998    -2.9810    -1.1742 C.ar    
   9 C9             3.5762    -4.0497    -1.5728 C.ar    
  10 C10            3.0505    -5.3315    -1.5647 C.ar    
  11 C11            1.7438    -5.5461    -1.1572 C.ar    
  12 C12            0.9623    -4.4838    -0.7515 C.ar    
  13 C13           -2.3283    -0.4024     0.8757 C.3     
  14 C14           -3.2439    -0.1410    -0.2924 C.2     
  15 N15           -4.5146     0.2533    -0.0776 N.am    
  16 O16           -2.8371    -0.2855    -1.4259 O.2     
  17 C17           -5.1531     0.4725     1.2249 C.3     
  18 C18            1.3140     2.1126     0.4301 C.ar    
  19 C19            1.3463     3.4814     0.5961 C.ar    
  20 C20            0.1647     4.2039     0.6455 C.ar    
  21 C21           -1.0547     3.5557     0.5288 C.ar    
  22 C22           -1.0977     2.1880     0.3567 C.ar    
  23 F23            3.8141    -6.3752    -1.9558 F       
  24 F24            0.2016     5.5445     0.8083 F       
  25 C25           -6.5734     0.9046     0.9719 C.ar    
  26 C26           -6.7895     0.9470    -0.3938 C.ar    
  27 C27           -5.5220     0.5516    -1.1018 C.3     
  28 C28           -7.6073     1.2379     1.8276 C.ar    
  29 N29           -8.7855     1.5916     1.3525 N.ar    
  30 C30           -9.0259     1.6427     0.0567 C.ar    
  31 C31           -8.0396     1.3234    -0.8580 C.ar    
  32 H32            3.2102    -1.9820    -1.1812 H       
  33 H33            4.5950    -3.8867    -1.8919 H       
  34 H34            1.3378    -6.5469    -1.1527 H       
  35 H35           -0.0562    -4.6520    -0.4340 H       
  36 H36           -2.7483    -1.1939     1.4965 H       
  37 H37           -2.2253     0.5073     1.4672 H       
  38 H38           -5.1455    -0.4531     1.8005 H       
  39 H39           -4.6214     1.2522     1.7704 H       
  40 H40            2.2353     1.5504     0.3921 H       
  41 H41            2.2940     3.9910     0.6882 H       
  42 H42           -1.9728     4.1231     0.5683 H       
  43 H43           -2.0484     1.6838     0.2655 H       
  44 H44           -5.1822     1.3704    -1.7361 H       
  45 H45           -5.6987    -0.3374    -1.7073 H       
  46 H46           -7.4484     1.2079     2.8954 H       
  47 H47          -10.0041     1.9371    -0.2938 H       
  48 H48           -8.2405     1.3665    -1.9182 H       
@<TRIPOS>BOND
   1    1    2 1
   2    1   18 ar
   3    1   22 ar
   4    2    3 1
   5    2    6 2
   6    3    4 1
   7    3   13 1
   8    4    5 2
   9    5    6 1
  10    5    7 1
  11    7    8 ar
  12    7   12 ar
  13    8    9 ar
  14    8   32 1
  15    9   10 ar
  16    9   33 1
  17   10   11 ar
  18   10   23 1
  19   11   12 ar
  20   11   34 1
  21   12   35 1
  22   13   14 1
  23   13   36 1
  24   13   37 1
  25   14   15 am
  26   14   16 2
  27   15   17 1
  28   15   27 1
  29   17   25 1
  30   17   38 1
  31   17   39 1
  32   18   19 ar
  33   18   40 1
  34   19   20 ar
  35   19   41 1
  36   20   21 ar
  37   20   24 1
  38   21   22 ar
  39   21   42 1
  40   22   43 1
  41   25   26 ar
  42   25   28 ar
  43   26   27 1
  44   26   31 ar
  45   27   44 1
  46   27   45 1
  47   28   29 ar
  48   28   46 1
  49   29   30 ar
  50   30   31 ar
  51   30   47 1
  52   31   48 1

#	End of record

