#	Name: ASD08830240
#	Creating user name:	WinNT
#	Creation time:	15. 06. 2019 21:20

#	Modifying user name:	WinNT
#	Modification time:	15. 06. 2019 21:20

#	Program:	/corina/corina34_cracker 3.40 0067  02.08.2006

@<TRIPOS>MOLECULE
ASD08830240
  45   47    0    0    0
SMALL
NO_CHARGES


@<TRIPOS>ATOM
   1 C1            -0.0179     1.4664     0.0101 C.ar    
   2 C2             0.0021    -0.0041     0.0020 C.2     
   3 C3            -1.2926    -0.7753     0.0102 C.3     
   4 O4             1.0604    -0.5961    -0.0113 O.2     
   5 C5            -1.2501     2.1494     0.0314 C.ar    
   6 C6             1.1775     2.1721     0.0025 C.ar    
   7 C7             1.1498     3.5742     0.0108 C.ar    
   8 C8            -0.0981     4.2488     0.0267 C.ar    
   9 C9            -1.2933     3.5050     0.0397 C.ar    
  10 C10            2.3394     4.3245     0.0039 C.ar    
  11 C11            2.2782     5.6844     0.0127 C.ar    
  12 C12            1.0525     6.3463     0.0288 C.ar    
  13 C13           -0.1197     5.6527     0.0354 C.ar    
  14 C14           -0.9927    -2.2755    -0.0007 C.3     
  15 N15           -2.2547    -3.0273     0.0073 N.3     
  16 C16           -2.0156    -4.4719    -0.2436 C.3     
  17 C17           -3.2705    -5.1767     0.3147 C.3     
  18 C18           -3.8445    -4.2019     1.3635 C.3     
  19 C19           -2.8880    -2.9901     1.3507 C.3     
  20 C20           -1.8797    -4.7332    -1.7215 C.2     
  21 O21           -1.9703    -3.8164    -2.5103 O.2     
  22 N22           -1.6576    -5.9857    -2.1667 N.am    
  23 C23           -1.5256    -6.2398    -3.6035 C.3     
  24 H24           -1.8592    -0.5245     0.9070 H       
  25 H25           -1.8762    -0.5150    -0.8728 H       
  26 H26           -2.1718     1.5865     0.0409 H       
  27 H27            2.1206     1.6460    -0.0094 H       
  28 H28           -2.2455     4.0144     0.0515 H       
  29 H29            3.2965     3.8243    -0.0078 H       
  30 H30            3.1930     6.2583     0.0075 H       
  31 H31            1.0314     7.4261     0.0359 H       
  32 H32           -1.0619     6.1804     0.0479 H       
  33 H33           -0.4261    -2.5263    -0.8975 H       
  34 H34           -0.4091    -2.5358     0.8824 H       
  35 H35           -1.1239    -4.8072     0.2862 H       
  36 H36           -3.9954    -5.3459    -0.4815 H       
  37 H37           -2.9966    -6.1209     0.7854 H       
  38 H38           -4.8511    -3.8926     1.0820 H       
  39 H39           -3.8523    -4.6676     2.3490 H       
  40 H40           -2.1330    -3.0935     2.1299 H       
  41 H41           -3.4467    -2.0634     1.4820 H       
  42 H42           -1.5852    -6.7190    -1.5359 H       
  43 H43           -2.4416    -5.9383    -4.1115 H       
  44 H44           -0.6861    -5.6673    -3.9980 H       
  45 H45           -1.3508    -7.3027    -3.7700 H       
@<TRIPOS>BOND
   1    1    2 1
   2    1    6 ar
   3    1    5 ar
   4    2    3 1
   5    2    4 2
   6    3   14 1
   7    3   24 1
   8    3   25 1
   9    5    9 ar
  10    5   26 1
  11    6    7 ar
  12    6   27 1
  13    7    8 ar
  14    7   10 ar
  15    8    9 ar
  16    8   13 ar
  17    9   28 1
  18   10   11 ar
  19   10   29 1
  20   11   12 ar
  21   11   30 1
  22   12   13 ar
  23   12   31 1
  24   13   32 1
  25   14   15 1
  26   14   33 1
  27   14   34 1
  28   15   16 1
  29   15   19 1
  30   16   17 1
  31   16   20 1
  32   16   35 1
  33   17   18 1
  34   17   36 1
  35   17   37 1
  36   18   19 1
  37   18   38 1
  38   18   39 1
  39   19   40 1
  40   19   41 1
  41   20   21 2
  42   20   22 am
  43   22   23 1
  44   22   42 1
  45   23   43 1
  46   23   44 1
  47   23   45 1

#	End of record

