#	Name: ASD02030232
#	Creating user name:	WinNT
#	Creation time:	15. 06. 2019 20:14

#	Modifying user name:	WinNT
#	Modification time:	15. 06. 2019 20:14

#	Program:	/corina/corina34_cracker 3.40 0067  02.08.2006

@<TRIPOS>MOLECULE
ASD02030232
  55   59    0    0    0
SMALL
NO_CHARGES


@<TRIPOS>ATOM
   1 N1            -0.0430     1.8298     0.0664 N.am    
   2 C2             0.1910     0.3980    -0.1686 C.3     
   3 C3            -0.5673    -0.4038     0.8964 C.3     
   4 N4            -1.9512     0.0871     0.9568 N.am    
   5 C5            -2.1853     1.5188     1.1918 C.3     
   6 C6            -1.4270     2.3197     0.1324 C.3     
   7 C7             0.9930     2.6773     0.2242 C.2     
   8 C8             2.3750     2.1546     0.2720 C.2     
   9 N9             3.4574     2.8527     0.5403 N.2     
  10 N10            2.7469     0.8797     0.0546 N.2     
  11 C11            4.0475     0.8257     0.1891 C.2     
  12 N12            4.4779     2.0674     0.4929 N.pl3   
  13 C13            5.8097     2.4404     0.7189 C.ar    
  14 O14            0.7909     3.8716     0.3271 O.2     
  15 C15           -2.9872    -0.7605     0.7991 C.2     
  16 C16           -2.7401    -2.1646     0.4419 C.2     
  17 O17           -4.1268    -0.3633     0.9523 O.2     
  18 C18            6.1204     3.7582     1.0250 C.ar    
  19 C19            7.4353     4.1229     1.2474 C.ar    
  20 C20            8.4405     3.1755     1.1644 C.ar    
  21 C21            8.1330     1.8623     0.8591 C.ar    
  22 C22            6.8206     1.4911     0.6426 C.ar    
  23 C23           -3.6823     1.8178     1.0904 C.3     
  24 C24           -3.7006    -3.0714     0.1262 C.2     
  25 Cl25           7.8256     5.7705     1.6303 Cl      
  26 C26           -2.9989    -4.3232    -0.1556 C.ar    
  27 C27           -1.6315    -4.0425     0.0234 C.ar    
  28 O28           -1.5242    -2.7459     0.3726 O.3     
  29 C29           -3.4074    -5.6055    -0.5303 C.ar    
  30 C30           -2.4740    -6.5846    -0.7220 C.ar    
  31 C31           -1.1237    -6.3133    -0.5463 C.ar    
  32 C32           -0.7002    -5.0552    -0.1770 C.ar    
  33 C33           -5.1881    -2.8355     0.0764 C.3     
  34 H34           -0.1726     0.1257    -1.1594 H       
  35 H35            1.2576     0.1850    -0.0963 H       
  36 H36           -0.5653    -1.4605     0.6291 H       
  37 H37           -0.0885    -0.2684     1.8662 H       
  38 H38           -1.8216     1.7911     2.1826 H       
  39 H39           -1.4298     3.3761     0.4010 H       
  40 H40           -1.9037     2.1853    -0.8385 H       
  41 H41            4.6641    -0.0542     0.0798 H       
  42 H42            5.3359     4.4977     1.0891 H       
  43 H43            9.4671     3.4624     1.3380 H       
  44 H44            8.9197     1.1253     0.7943 H       
  45 H45            6.5815     0.4652     0.4045 H       
  46 H46           -4.2070     1.3286     1.9111 H       
  47 H47           -3.8425     2.8945     1.1473 H       
  48 H48           -4.0641     1.4434     0.1406 H       
  49 H49           -4.4565    -5.8221    -0.6676 H       
  50 H50           -2.7886    -7.5763    -1.0117 H       
  51 H51           -0.3971    -7.0973    -0.7010 H       
  52 H52            0.3528    -4.8562    -0.0430 H       
  53 H53           -5.4717    -2.5139    -0.9257 H       
  54 H54           -5.7110    -3.7595     0.3231 H       
  55 H55           -5.4577    -2.0623     0.7959 H       
@<TRIPOS>BOND
   1    1    2 1
   2    1    7 am
   3    1    6 1
   4    2    3 1
   5    2   34 1
   6    2   35 1
   7    3    4 1
   8    3   36 1
   9    3   37 1
  10    4    5 1
  11    4   15 am
  12    5    6 1
  13    5   23 1
  14    5   38 1
  15    6   39 1
  16    6   40 1
  17    7    8 1
  18    7   14 2
  19    8    9 2
  20    8   10 1
  21    9   12 1
  22   10   11 2
  23   11   12 1
  24   11   41 1
  25   12   13 1
  26   13   18 ar
  27   13   22 ar
  28   15   16 1
  29   15   17 2
  30   16   24 2
  31   16   28 1
  32   18   19 ar
  33   18   42 1
  34   19   20 ar
  35   19   25 1
  36   20   21 ar
  37   20   43 1
  38   21   22 ar
  39   21   44 1
  40   22   45 1
  41   23   46 1
  42   23   47 1
  43   23   48 1
  44   24   26 1
  45   24   33 1
  46   26   27 ar
  47   26   29 ar
  48   27   28 1
  49   27   32 ar
  50   29   30 ar
  51   29   49 1
  52   30   31 ar
  53   30   50 1
  54   31   32 ar
  55   31   51 1
  56   32   52 1
  57   33   53 1
  58   33   54 1
  59   33   55 1

#	End of record

