#	Name: ASD09740344
#	Creating user name:	WinNT
#	Creation time:	15. 06. 2019 21:23

#	Modifying user name:	WinNT
#	Modification time:	15. 06. 2019 21:23

#	Program:	/corina/corina34_cracker 3.40 0067  02.08.2006

@<TRIPOS>MOLECULE
ASD09740344
  62   65    0    0    0
SMALL
NO_CHARGES


@<TRIPOS>ATOM
   1 N1            -3.2432     1.8473     0.5523 N.2     
   2 O2            -3.9759     0.8809     0.5573 O.3     
   3 C3            -2.0422     1.5098     0.9453 C.2     
   4 N4            -2.0629     0.1882     1.2156 N.2     
   5 C5            -3.2988    -0.2038     0.9656 C.2     
   6 C6            -3.8337    -1.5730     1.1083 C.ar    
   7 C7            -0.8713     2.4147     1.0708 C.ar    
   8 C8             0.3651     1.9300     1.5034 C.ar    
   9 C9             1.4258     2.8073     1.6045 C.ar    
  10 N10            1.2824     4.0809     1.3003 N.ar    
  11 C11            0.1306     4.5840     0.8868 C.ar    
  12 C12           -0.9772     3.7712     0.7535 C.ar    
  13 C13           -5.1711    -1.8371     0.8042 C.ar    
  14 C14           -5.6669    -3.1200     0.9394 C.ar    
  15 C15           -4.8329    -4.1466     1.3782 C.ar    
  16 C16           -3.5041    -3.8839     1.6802 C.ar    
  17 C17           -3.0019    -2.6076     1.5420 C.ar    
  18 C18           -0.2301     6.0022     0.4946 C.3     
  19 C19           -1.5482     5.8802    -0.2989 C.3     
  20 C20           -2.1578     4.5815     0.2678 C.3     
  21 N21           -0.4315     6.8268     1.6935 N.3     
  22 C22            0.4338     8.0136     1.6677 C.3     
  23 C23            1.8978     7.5757     1.5896 C.3     
  24 C24            0.0912     8.8681     0.4457 C.3     
  25 O25            0.9821     9.9835     0.3795 O.3     
  26 C26            0.2138     8.8329     2.9410 C.3     
  27 O27           -5.3219    -5.4072     1.5110 O.3     
  28 C28           -5.1382    -7.7554     2.0521 C.3     
  29 C29           -4.4123    -6.4113     1.9654 C.3     
  30 O30           -6.9687    -3.3805     0.6446 O.3     
  31 C31           -9.1902    -2.7640    -0.0802 C.3     
  32 C32           -7.7660    -2.2807     0.2008 C.3     
  33 H33            0.4889     0.8870     1.7548 H       
  34 H34            2.3868     2.4446     1.9381 H       
  35 H35           -5.8164    -1.0405     0.4646 H       
  36 H36           -2.8609    -4.6822     2.0200 H       
  37 H37           -1.9674    -2.4058     1.7778 H       
  38 H38            0.5509     6.4311    -0.1333 H       
  39 H39           -2.1984     6.7330    -0.1037 H       
  40 H40           -1.3502     5.7788    -1.3660 H       
  41 H41           -2.6920     4.0416    -0.5140 H       
  42 H42           -2.8275     4.8084     1.0974 H       
  43 H43           -1.4009     7.0882     1.7939 H       
  44 H44            2.0794     7.0840     0.6340 H       
  45 H45            2.5435     8.4495     1.6772 H       
  46 H46            2.1133     6.8817     2.4021 H       
  47 H47            0.1934     8.2673    -0.4580 H       
  48 H48           -0.9346     9.2270     0.5294 H       
  49 H49            0.8227    10.5700    -0.3726 H       
  50 H50            0.5375     8.2541     3.8060 H       
  51 H51            0.7919     9.7552     2.8839 H       
  52 H52           -0.8448     9.0732     3.0400 H       
  53 H53           -5.9697    -7.6748     2.7522 H       
  54 H54           -5.5175    -8.0277     1.0672 H       
  55 H55           -4.4444    -8.5213     2.3987 H       
  56 H56           -3.5808    -6.4920     1.2653 H       
  57 H57           -4.0329    -6.1391     2.9503 H       
  58 H58           -9.1674    -3.5317    -0.8537 H       
  59 H59           -9.6195    -3.1794     0.8315 H       
  60 H60           -9.7984    -1.9251    -0.4187 H       
  61 H61           -7.7888    -1.5131     0.9743 H       
  62 H62           -7.3367    -1.8653    -0.7109 H       
@<TRIPOS>BOND
   1    1    2 1
   2    1    3 2
   3    2    5 1
   4    3    4 1
   5    3    7 1
   6    4    5 2
   7    5    6 1
   8    6   13 ar
   9    6   17 ar
  10    7    8 ar
  11    7   12 ar
  12    8    9 ar
  13    8   33 1
  14    9   10 ar
  15    9   34 1
  16   10   11 ar
  17   11   12 ar
  18   11   18 1
  19   12   20 1
  20   13   14 ar
  21   13   35 1
  22   14   15 ar
  23   14   30 1
  24   15   16 ar
  25   15   27 1
  26   16   17 ar
  27   16   36 1
  28   17   37 1
  29   18   19 1
  30   18   21 1
  31   18   38 1
  32   19   20 1
  33   19   39 1
  34   19   40 1
  35   20   41 1
  36   20   42 1
  37   21   22 1
  38   21   43 1
  39   22   23 1
  40   22   24 1
  41   22   26 1
  42   23   44 1
  43   23   45 1
  44   23   46 1
  45   24   25 1
  46   24   47 1
  47   24   48 1
  48   25   49 1
  49   26   50 1
  50   26   51 1
  51   26   52 1
  52   27   29 1
  53   28   29 1
  54   28   53 1
  55   28   54 1
  56   28   55 1
  57   29   56 1
  58   29   57 1
  59   30   32 1
  60   31   32 1
  61   31   58 1
  62   31   59 1
  63   31   60 1
  64   32   61 1
  65   32   62 1

#	End of record

