#	Name: ASD01209095
#	Creating user name:	WinNT
#	Creation time:	15. 06. 2019 19:10

#	Modifying user name:	WinNT
#	Modification time:	15. 06. 2019 19:10

#	Program:	/corina/corina34_cracker 3.40 0067  02.08.2006

@<TRIPOS>MOLECULE
ASD01209095
  70   72    0    0    0
SMALL
NO_CHARGES


@<TRIPOS>ATOM
   1 C1            -1.7247    -0.8652    -0.0566 C.3     
   2 C2             1.6611    -1.8781    -3.9797 C.ar    
   3 S3            -1.1968    -2.5346    -0.5311 S.o2    
   4 O4            -0.3906    -3.1110     0.4873 O.2     
   5 O5            -2.2786    -3.2555    -1.1048 O.2     
   6 C6             2.6125    -1.6596    -5.1277 C.3     
   7 C7             2.2176    -0.4132    -5.8771 C.2     
   8 N8             3.0039     0.0562    -6.8660 N.am    
   9 O9             1.1922     0.1675    -5.5903 O.2     
  10 C10            2.5566    -2.8619    -6.0724 C.3     
  11 C11            3.0205    -4.1163    -5.3293 C.3     
  12 C12            2.8119    -5.3592    -6.2121 C.3     
  13 C13            4.2052    -5.9849    -6.4286 C.3     
  14 C14            5.0386    -5.4827    -5.2235 C.3     
  15 C15            4.5334    -4.0300    -5.0403 C.3     
  16 C16            2.1383    -1.9080    -2.6826 C.ar    
  17 C17            1.2656    -2.1089    -1.6296 C.ar    
  18 C18           -0.0844    -2.2791    -1.8734 C.ar    
  19 C19           -0.5616    -2.2492    -3.1705 C.ar    
  20 C20            0.3104    -2.0431    -4.2231 C.ar    
  21 C21            2.6234     1.1917    -7.5796 C.ar    
  22 C22            1.6941     2.0691    -7.0331 C.ar    
  23 P23            2.6517     5.9871    -9.4102 P.3     
  24 O24            4.0539     5.5537    -9.6011 O.2     
  25 O25            2.4297     6.4260    -7.8771 O.3     
  26 O26            2.3399     7.2365   -10.3766 O.3     
  27 C27            3.2334     7.4116    -7.2255 C.3     
  28 C28            2.7561     7.5861    -5.7823 C.3     
  29 C29            3.1202     8.4337   -10.3772 C.3     
  30 C30            2.5540     9.4109   -11.4095 C.3     
  31 C31            1.3251     3.1927    -7.7522 C.ar    
  32 C32            1.9010     3.4002    -8.9978 C.ar    
  33 C33            2.8181     2.4866    -9.4794 C.ar    
  34 N34            3.1545     1.4273    -8.7690 N.ar    
  35 C35            1.5291     4.6095    -9.8166 C.3     
  36 H36           -0.8547    -0.2801     0.2416 H       
  37 H37           -2.2131    -0.3841    -0.9039 H       
  38 H38           -2.4233    -0.9285     0.7776 H       
  39 H39            3.6261    -1.5465    -4.7432 H       
  40 H40            3.8346    -0.3961    -7.0812 H       
  41 H41            1.5333    -3.0033    -6.4203 H       
  42 H42            3.2095    -2.6833    -6.9268 H       
  43 H43            2.4670    -4.2236    -4.3965 H       
  44 H44            2.1577    -6.0701    -5.7073 H       
  45 H45            2.3800    -5.0688    -7.1698 H       
  46 H46            4.1402    -7.0730    -6.4206 H       
  47 H47            4.6393    -5.6347    -7.3651 H       
  48 H48            4.8309    -6.0789    -4.3349 H       
  49 H49            6.1030    -5.4949    -5.4580 H       
  50 H50            5.0205    -3.3640    -5.7525 H       
  51 H51            4.7080    -3.6914    -4.0190 H       
  52 H52            3.1930    -1.7751    -2.4921 H       
  53 H53            1.6386    -2.1330    -0.6163 H       
  54 H54           -1.6162    -2.3825    -3.3610 H       
  55 H55           -0.0624    -2.0197    -5.2365 H       
  56 H56            1.2655     1.8765    -6.0607 H       
  57 H57            4.2750     7.0904    -7.2274 H       
  58 H58            3.1448     8.3604    -7.7547 H       
  59 H59            1.7145     7.9074    -5.7804 H       
  60 H60            2.8447     6.6373    -5.2532 H       
  61 H61            3.3692     8.3379    -5.2853 H       
  62 H62            3.0861     8.8901    -9.3880 H       
  63 H63            4.1527     8.1943   -10.6316 H       
  64 H64            1.5215     9.6502   -11.1551 H       
  65 H65            3.1492    10.3240   -11.4099 H       
  66 H66            2.5881     8.9544   -12.3987 H       
  67 H67            0.6052     3.8919    -7.3532 H       
  68 H68            3.2688     2.6438   -10.4482 H       
  69 H69            0.5026     4.8989    -9.5917 H       
  70 H70            1.6154     4.3711   -10.8767 H       
@<TRIPOS>BOND
   1    1    3 1
   2    1   36 1
   3    1   37 1
   4    1   38 1
   5    2    6 1
   6    2   16 ar
   7    2   20 ar
   8    3    4 2
   9    3    5 2
  10    3   18 1
  11    6    7 1
  12    6   10 1
  13    6   39 1
  14    7    8 am
  15    7    9 2
  16    8   21 1
  17    8   40 1
  18   10   11 1
  19   10   41 1
  20   10   42 1
  21   11   12 1
  22   11   15 1
  23   11   43 1
  24   12   13 1
  25   12   44 1
  26   12   45 1
  27   13   14 1
  28   13   46 1
  29   13   47 1
  30   14   15 1
  31   14   48 1
  32   14   49 1
  33   15   50 1
  34   15   51 1
  35   16   17 ar
  36   16   52 1
  37   17   18 ar
  38   17   53 1
  39   18   19 ar
  40   19   20 ar
  41   19   54 1
  42   20   55 1
  43   21   22 ar
  44   21   34 ar
  45   22   31 ar
  46   22   56 1
  47   23   24 2
  48   23   25 1
  49   23   26 1
  50   23   35 1
  51   25   27 1
  52   26   29 1
  53   27   28 1
  54   27   57 1
  55   27   58 1
  56   28   59 1
  57   28   60 1
  58   28   61 1
  59   29   30 1
  60   29   62 1
  61   29   63 1
  62   30   64 1
  63   30   65 1
  64   30   66 1
  65   31   32 ar
  66   31   67 1
  67   32   33 ar
  68   32   35 1
  69   33   34 ar
  70   33   68 1
  71   35   69 1
  72   35   70 1

#	End of record

