#	Name: ASD05720114
#	Creating user name:	WinNT
#	Creation time:	15. 06. 2019 21:01

#	Modifying user name:	WinNT
#	Modification time:	15. 06. 2019 21:01

#	Program:	/corina/corina34_cracker 3.40 0067  02.08.2006

@<TRIPOS>MOLECULE
ASD05720114
  54   57    0    0    0
SMALL
NO_CHARGES


@<TRIPOS>ATOM
   1 C1             0.4956     1.0382     1.0965 C.2     
   2 N2             0.3990    -0.2278     0.6697 N.am    
   3 C3             1.6517    -0.6089     0.0004 C.3     
   4 C4             2.5238     0.6577     0.1001 C.3     
   5 N5             1.6699     1.6180     0.8151 N.am    
   6 O6            -0.4030     1.6108     1.6818 O.2     
   7 C7             1.3906    -0.9672    -1.4640 C.3     
   8 C8             0.5324    -2.2319    -1.5344 C.3     
   9 C9             0.6553     0.1869    -2.1482 C.3     
  10 C10            2.0440     2.9907     1.1642 C.3     
  11 C11            2.6958     3.0036     2.5229 C.ar    
  12 C12            4.0295     2.6430     2.6556 C.ar    
  13 C13            4.6284     2.6551     3.9056 C.ar    
  14 C14            3.8932     3.0276     5.0206 C.ar    
  15 C15            2.5602     3.3873     4.8827 C.ar    
  16 C16            1.9669     3.3799     3.6345 C.ar    
  17 O17            4.4775     3.0400     6.2475 O.3     
  18 C18            3.6602     3.4344     7.3513 C.3     
  19 O19            4.7474     2.2778     1.5611 O.3     
  20 C20            6.1145     1.9191     1.7719 C.3     
  21 C21           -1.6994    -3.1293     0.6440 C.2     
  22 N22           -0.6402    -2.3217     0.4923 N.2     
  23 C23           -0.7086    -1.0502     0.8334 C.2     
  24 C24           -1.9043    -0.5233     1.3648 C.2     
  25 C25           -2.9753    -1.3334     1.5199 C.2     
  26 N26           -2.8763    -2.6482     1.1577 N.pl3   
  27 N27           -3.7880    -3.7095     1.1958 N.2     
  28 C28           -3.2024    -4.7892     0.7293 C.2     
  29 C29           -1.8999    -4.4755     0.3679 C.2     
  30 Br30          -0.6271    -5.6664    -0.3655 Br      
  31 H31            2.1254    -1.4415     0.5204 H       
  32 H32            3.4305     0.4540     0.6697 H       
  33 H33            2.7708     1.0314    -0.8936 H       
  34 H34            2.3400    -1.1438    -1.9697 H       
  35 H35           -0.4866    -1.9971    -1.2267 H       
  36 H36            0.5252    -2.6096    -2.5568 H       
  37 H37            0.9471    -2.9899    -0.8699 H       
  38 H38            0.4693    -0.0683    -3.1914 H       
  39 H39           -0.2941     0.3635    -1.6425 H       
  40 H40            1.2667     1.0879    -2.0980 H       
  41 H41            2.7430     3.3766     0.4222 H       
  42 H42            1.1519     3.6168     1.1832 H       
  43 H43            5.6660     2.3744     4.0110 H       
  44 H44            1.9871     3.6776     5.7508 H       
  45 H45            0.9304     3.6644     3.5286 H       
  46 H46            3.2965     4.4492     7.1899 H       
  47 H47            2.8128     2.7541     7.4373 H       
  48 H48            4.2477     3.4007     8.2688 H       
  49 H49            6.5704     1.6495     0.8193 H       
  50 H50            6.6494     2.7646     2.2043 H       
  51 H51            6.1663     1.0696     2.4529 H       
  52 H52           -1.9634     0.5179     1.6456 H       
  53 H53           -3.8984    -0.9466     1.9255 H       
  54 H54           -3.6615    -5.7626     0.6390 H       
@<TRIPOS>BOND
   1    1    2 am
   2    1    5 am
   3    1    6 2
   4    2    3 1
   5    2   23 1
   6    3    4 1
   7    3    7 1
   8    3   31 1
   9    4    5 1
  10    4   32 1
  11    4   33 1
  12    5   10 1
  13    7    8 1
  14    7    9 1
  15    7   34 1
  16    8   35 1
  17    8   36 1
  18    8   37 1
  19    9   38 1
  20    9   39 1
  21    9   40 1
  22   10   11 1
  23   10   41 1
  24   10   42 1
  25   11   12 ar
  26   11   16 ar
  27   12   13 ar
  28   12   19 1
  29   13   14 ar
  30   13   43 1
  31   14   15 ar
  32   14   17 1
  33   15   16 ar
  34   15   44 1
  35   16   45 1
  36   17   18 1
  37   18   46 1
  38   18   47 1
  39   18   48 1
  40   19   20 1
  41   20   49 1
  42   20   50 1
  43   20   51 1
  44   21   22 1
  45   21   26 1
  46   21   29 2
  47   22   23 2
  48   23   24 1
  49   24   25 2
  50   24   52 1
  51   25   26 1
  52   25   53 1
  53   26   27 1
  54   27   28 2
  55   28   29 1
  56   28   54 1
  57   29   30 1

#	End of record

