#	Name: ASD04882512
#	Creating user name:	WinNT
#	Creation time:	15. 06. 2019 20:54

#	Modifying user name:	WinNT
#	Modification time:	15. 06. 2019 20:54

#	Program:	/corina/corina34_cracker 3.40 0067  02.08.2006

@<TRIPOS>MOLECULE
ASD04882512
  80   85    0    0    0
SMALL
NO_CHARGES


@<TRIPOS>ATOM
   1 C1            -0.0215     1.4013    -0.0093 C.ar    
   2 C2            -0.0116     0.0037    -0.0051 C.ar    
   3 C3            -1.2095    -0.7018    -0.0164 C.ar    
   4 C4            -2.4097    -0.0267    -0.0313 C.ar    
   5 C5            -2.4268     1.3709    -0.0352 C.ar    
   6 C6            -1.2240     2.0827    -0.0190 C.ar    
   7 N7             1.1997    -0.6831     0.0100 N.3     
   8 C8             1.3066    -1.5360     1.2019 C.3     
   9 C9             1.3723    -1.4734    -1.2168 C.3     
  10 C10            2.7461    -2.1477    -1.1970 C.3     
  11 N11            2.8531    -3.0006    -0.0051 N.3     
  12 C12            2.6805    -2.2103     1.2218 C.3     
  13 C13           -3.7127     2.0939    -0.0518 C.2     
  14 O14           -3.7266     3.3098    -0.0551 O.2     
  15 N15           -4.8720     1.4067    -0.0632 N.am    
  16 N16            1.1864     2.1110     0.0021 N.am    
  17 C17            4.0622    -3.6861     0.0100 C.ar    
  18 C18            1.2294     3.3599     0.5068 C.2     
  19 C19            2.5098     4.0698     0.5995 C.2     
  20 O20            0.2060     3.8988     0.8856 O.2     
  21 O21            2.7077     5.3193     1.0805 O.3     
  22 C22            4.0140     5.5875     0.9889 C.2     
  23 N23            4.6280     4.5569     0.4724 N.2     
  24 C24            3.7320     3.5964     0.2233 C.2     
  25 C25            4.6734     6.8742     1.4140 C.3     
  26 C26            5.7511     6.7916     2.4969 C.3     
  27 C27            6.1453     7.0693     1.0449 C.3     
  28 C28           -6.1490     2.1246    -0.0796 C.3     
  29 C29           -7.3004     1.1171    -0.0901 C.3     
  30 C30           -8.6340     1.8669    -0.1073 C.3     
  31 N31           -9.7365     0.9022    -0.1173 N.am    
  32 C32          -10.3735     0.3601     1.0886 C.3     
  33 C33          -10.2984     0.4042    -1.2323 C.2     
  34 C34          -11.3982    -0.5694    -0.8703 C.3     
  35 C35          -11.1409    -0.8961     0.6201 C.3     
  36 O36           -9.9717     0.6939    -2.3638 O.2     
  37 N37            4.9271    -3.5118    -0.9780 N.ar    
  38 C38            6.0889    -4.1454    -1.0012 C.ar    
  39 C39            6.4401    -5.0194     0.0174 C.ar    
  40 C40            5.5588    -5.2259     1.0675 C.ar    
  41 C41            4.3541    -4.5435     1.0647 C.ar    
  42 O42            6.9456    -3.9382    -2.0326 O.3     
  43 C43            6.5268    -3.0273    -3.0509 C.3     
  44 H44           -1.1987    -1.7817    -0.0138 H       
  45 H45           -3.3386    -0.5776    -0.0404 H       
  46 H46           -1.2341     3.1626    -0.0216 H       
  47 H47            1.1880    -0.9260     2.0975 H       
  48 H48            0.5278    -2.2981     1.1748 H       
  49 H49            0.5943    -2.2348    -1.2714 H       
  50 H50            1.3015    -0.8178    -2.0847 H       
  51 H51            2.8648    -2.7576    -2.0925 H       
  52 H52            3.5249    -1.3856    -1.1699 H       
  53 H53            3.4585    -1.4489     1.2764 H       
  54 H54            2.7513    -2.8659     2.0897 H       
  55 H55           -4.8610     0.4368    -0.0605 H       
  56 H56            1.9917     1.7034    -0.3533 H       
  57 H57            3.9375     2.6259    -0.2036 H       
  58 H58            4.0318     7.7554     1.4087 H       
  59 H59            5.8187     7.6186     3.2038 H       
  60 H60            5.9831     5.8066     2.9019 H       
  61 H61            6.6368     6.2669     0.4946 H       
  62 H62            6.4724     8.0789     0.7965 H       
  63 H63           -6.2240     2.7529     0.8079 H       
  64 H64           -6.2037     2.7482    -0.9719 H       
  65 H65           -7.2253     0.4888    -0.9776 H       
  66 H66           -7.2456     0.4935     0.8022 H       
  67 H67           -8.7090     2.4952     0.7802 H       
  68 H68           -8.6887     2.4905    -0.9996 H       
  69 H69           -9.6171     0.0875     1.8246 H       
  70 H70          -11.0653     1.0894     1.5100 H       
  71 H71          -12.3759    -0.1033    -0.9927 H       
  72 H72          -11.3254    -1.4707    -1.4791 H       
  73 H73          -10.5258    -1.7901     0.7230 H       
  74 H74          -12.0796    -1.0056     1.1632 H       
  75 H75            7.3895    -5.5336    -0.0076 H       
  76 H76            5.8083    -5.9014     1.8724 H       
  77 H77            3.6459    -4.6819     1.8683 H       
  78 H78            5.6041    -3.3888    -3.5047 H       
  79 H79            6.3549    -2.0448    -2.6111 H       
  80 H80            7.3021    -2.9533    -3.8135 H       
@<TRIPOS>BOND
   1    1    2 ar
   2    1   16 1
   3    1    6 ar
   4    2    3 ar
   5    2    7 1
   6    3    4 ar
   7    3   44 1
   8    4    5 ar
   9    4   45 1
  10    5    6 ar
  11    5   13 1
  12    6   46 1
  13    7    8 1
  14    7    9 1
  15    8   12 1
  16    8   47 1
  17    8   48 1
  18    9   10 1
  19    9   49 1
  20    9   50 1
  21   10   11 1
  22   10   51 1
  23   10   52 1
  24   11   12 1
  25   11   17 1
  26   12   53 1
  27   12   54 1
  28   13   14 2
  29   13   15 am
  30   15   28 1
  31   15   55 1
  32   16   18 am
  33   16   56 1
  34   17   37 ar
  35   17   41 ar
  36   18   19 1
  37   18   20 2
  38   19   21 1
  39   19   24 2
  40   21   22 1
  41   22   23 2
  42   22   25 1
  43   23   24 1
  44   24   57 1
  45   25   26 1
  46   25   27 1
  47   25   58 1
  48   26   27 1
  49   26   59 1
  50   26   60 1
  51   27   61 1
  52   27   62 1
  53   28   29 1
  54   28   63 1
  55   28   64 1
  56   29   30 1
  57   29   65 1
  58   29   66 1
  59   30   31 1
  60   30   67 1
  61   30   68 1
  62   31   32 1
  63   31   33 am
  64   32   35 1
  65   32   69 1
  66   32   70 1
  67   33   34 1
  68   33   36 2
  69   34   35 1
  70   34   71 1
  71   34   72 1
  72   35   73 1
  73   35   74 1
  74   37   38 ar
  75   38   39 ar
  76   38   42 1
  77   39   40 ar
  78   39   75 1
  79   40   41 ar
  80   40   76 1
  81   41   77 1
  82   42   43 1
  83   43   78 1
  84   43   79 1
  85   43   80 1

#	End of record

