#	Name: ASD01880430
#	Creating user name:	WinNT
#	Creation time:	15. 06. 2019 19:40

#	Modifying user name:	WinNT
#	Modification time:	15. 06. 2019 19:40

#	Program:	/corina/corina34_cracker 3.40 0067  02.08.2006

@<TRIPOS>MOLECULE
ASD01880430
  36   37    0    0    0
SMALL
NO_CHARGES


@<TRIPOS>ATOM
   1 O1             0.0015    -0.0037     0.0051 O.2     
   2 C2            -0.0145     1.2090     0.0136 C.2     
   3 C3            -1.3292     1.9450     0.0440 C.3     
   4 C4            -1.4461     2.8318    -1.1973 C.3     
   5 C5            -1.3777     1.9618    -2.4540 C.3     
   6 C6            -2.5271     0.9521    -2.4385 C.3     
   7 C7            -2.4102     0.0653    -1.1972 C.3     
   8 C8            -2.4787     0.9354     0.0595 C.3     
   9 C9            -2.3636     0.0619     1.2821 C.2     
  10 O10           -1.4520     0.2303     2.0641 O.2     
  11 N11           -3.2737    -0.9065     1.5066 N.am    
  12 N12            1.1435     1.8984     0.0013 N.am    
  13 C13            2.3637     1.2185     0.0917 C.ar    
  14 C14            3.4752     1.6906    -0.5936 C.ar    
  15 C15            4.6785     1.0182    -0.5032 C.ar    
  16 C16            4.7773    -0.1253     0.2690 C.ar    
  17 C17            3.6703    -0.5989     0.9538 C.ar    
  18 C18            2.4659     0.0739     0.8714 C.ar    
  19 Cl19           3.7975    -2.0346     1.9215 Cl      
  20 Cl20           6.2908    -0.9684     0.3794 Cl      
  21 H21           -1.3780     2.5649     0.9392 H       
  22 H22           -2.3970     3.3642    -1.1753 H       
  23 H23           -0.6272     3.5511    -1.2084 H       
  24 H24           -1.4609     2.5935    -3.3383 H       
  25 H25           -0.4267     1.4294    -2.4760 H       
  26 H26           -3.4780     1.4844    -2.4165 H       
  27 H27           -2.4783     0.3322    -3.3337 H       
  28 H28           -3.2291    -0.6540    -1.1861 H       
  29 H29           -1.4593    -0.4670    -1.2192 H       
  30 H30           -3.4296     1.4677     0.0815 H       
  31 H31           -4.0028    -1.0412     0.8812 H       
  32 H32           -3.1996    -1.4687     2.2936 H       
  33 H33            1.1314     2.8657    -0.0701 H       
  34 H34            3.3989     2.5829    -1.1972 H       
  35 H35            5.5430     1.3855    -1.0362 H       
  36 H36            1.6029    -0.2951     1.4056 H       
@<TRIPOS>BOND
   1    1    2 2
   2    2   12 am
   3    2    3 1
   4    3    4 1
   5    3    8 1
   6    3   21 1
   7    4    5 1
   8    4   22 1
   9    4   23 1
  10    5    6 1
  11    5   24 1
  12    5   25 1
  13    6    7 1
  14    6   26 1
  15    6   27 1
  16    7    8 1
  17    7   28 1
  18    7   29 1
  19    8    9 1
  20    8   30 1
  21    9   10 2
  22    9   11 am
  23   11   31 1
  24   11   32 1
  25   12   13 1
  26   12   33 1
  27   13   14 ar
  28   13   18 ar
  29   14   15 ar
  30   14   34 1
  31   15   16 ar
  32   15   35 1
  33   16   17 ar
  34   16   20 1
  35   17   18 ar
  36   17   19 1
  37   18   36 1

#	End of record

