#	Name: ASD07100006
#	Creating user name:	WinNT
#	Creation time:	15. 06. 2019 21:08

#	Modifying user name:	WinNT
#	Modification time:	15. 06. 2019 21:08

#	Program:	/corina/corina34_cracker 3.40 0067  02.08.2006

@<TRIPOS>MOLECULE
ASD07100006
  37   36    0    0    0
SMALL
NO_CHARGES


@<TRIPOS>ATOM
   1 C1            -0.1897     1.5979    -0.4985 C.3     
   2 C2            -1.1989     2.1998     0.4814 C.3     
   3 C3             1.2244     2.0262    -0.1014 C.3     
   4 O4            -2.5211     1.8149     0.0998 O.3     
   5 C5             2.2333     1.4278    -1.0838 C.3     
   6 C6             1.3234     3.5526    -0.1352 C.3     
   7 O7             1.5106     1.5594     1.2185 O.3     
   8 P8            -3.8354     2.2707     0.9103 P.3     
   9 O9            -5.1307     1.5511     0.2807 O.3     
  10 O10           -3.6916     1.8657     2.3943 O.co2   
  11 O11           -3.9974     3.8038     0.8083 O.co2   
  12 P12           -6.6446     1.3337     0.7837 P.3     
  13 O13           -7.5022     2.5928     0.4183 O.co2   
  14 O14           -7.2503     0.0687     0.0856 O.co2   
  15 O15           -6.6543     1.1280     2.3368 O.co2   
  16 C16            2.7677     3.9762     0.1397 C.3     
  17 C17            2.8667     5.5026     0.1059 C.3     
  18 C18            4.3109     5.9262     0.3809 C.3     
  19 C19            2.1699    -0.0763    -1.0151 C.2     
  20 O20            1.4808    -0.6194    -0.1685 O.co2   
  21 O21            2.8076    -0.7501    -1.8062 O.co2   
  22 H22           -0.2611     0.5106    -0.4714 H       
  23 H23           -0.4068     1.9513    -1.5065 H       
  24 H24           -0.9904     1.8354     1.4873 H       
  25 H25           -1.1178     3.2867     0.4646 H       
  26 H26            1.9938     1.7557    -2.0954 H       
  27 H27            3.2373     1.7614    -0.8219 H       
  28 H28            1.0193     3.9147    -1.1173 H       
  29 H29            0.6692     3.9761     0.6269 H       
  30 H30            0.9090     1.8994     1.8950 H       
  31 H31            3.0719     3.6140     1.1218 H       
  32 H32            3.4219     3.5527    -0.6224 H       
  33 H33            2.5625     5.8648    -0.8761 H       
  34 H34            2.2125     5.9261     0.8680 H       
  35 H35            4.3815     7.0137     0.3568 H       
  36 H36            4.6151     5.5641     1.3629 H       
  37 H37            4.9651     5.5027    -0.3812 H       
@<TRIPOS>BOND
   1    1    2 1
   2    1    3 1
   3    1   22 1
   4    1   23 1
   5    2    4 1
   6    2   24 1
   7    2   25 1
   8    3    5 1
   9    3    6 1
  10    3    7 1
  11    4    8 1
  12    5   19 1
  13    5   26 1
  14    5   27 1
  15    6   16 1
  16    6   28 1
  17    6   29 1
  18    7   30 1
  19    8    9 1
  20    8   10 ar
  21    8   11 ar
  22    9   12 1
  23   12   13 ar
  24   12   14 ar
  25   12   15 ar
  26   16   17 1
  27   16   31 1
  28   16   32 1
  29   17   18 1
  30   17   33 1
  31   17   34 1
  32   18   35 1
  33   18   36 1
  34   18   37 1
  35   19   20 ar
  36   19   21 ar

#	End of record

