#	Name: ASD03081365
#	Creating user name:	WinNT
#	Creation time:	15. 06. 2019 20:27

#	Modifying user name:	WinNT
#	Modification time:	15. 06. 2019 20:27

#	Program:	/corina/corina34_cracker 3.40 0067  02.08.2006

@<TRIPOS>MOLECULE
ASD03081365
  25   27    0    0    0
SMALL
NO_CHARGES


@<TRIPOS>ATOM
   1 O1            -0.0162     1.3444     0.0094 O.3     
   2 C2             0.0021    -0.0041     0.0020 C.2     
   3 N3             1.2608    -0.3805    -0.0120 N.2     
   4 N4             2.0178     0.6598    -0.0137 N.2     
   5 C5             1.2726     1.7416    -0.0007 C.2     
   6 C6             0.8548     4.2023     0.0149 C.ar    
   7 C7             1.7574     3.1373     0.0014 C.ar    
   8 C8             3.1297     3.4142    -0.0097 C.ar    
   9 C9             3.5315     4.7385    -0.0067 C.ar    
  10 C10            2.5741     5.7366     0.0070 C.ar    
  11 N11            1.2871     5.4460     0.0177 N.ar    
  12 C12           -2.4673    -0.3629     0.0246 C.ar    
  13 C13           -1.1767    -0.8945     0.0089 C.ar    
  14 C14           -1.0179    -2.2859    -0.0006 C.ar    
  15 C15           -2.1534    -3.0756     0.0060 C.ar    
  16 C16           -3.3993    -2.4711     0.0216 C.ar    
  17 N17           -3.5184    -1.1561     0.0307 N.ar    
  18 Cl18          -4.8274    -3.4582     0.0299 Cl      
  19 H19           -0.2069     4.0044     0.0191 H       
  20 H20            3.8561     2.6150    -0.0199 H       
  21 H21            4.5818     4.9900    -0.0146 H       
  22 H22            2.8851     6.7708     0.0094 H       
  23 H23           -2.6050     0.7082     0.0366 H       
  24 H24           -0.0339    -2.7308    -0.0131 H       
  25 H25           -2.0692    -4.1523    -0.0013 H       
@<TRIPOS>BOND
   1    1    2 1
   2    1    5 1
   3    2    3 2
   4    2   13 1
   5    3    4 1
   6    4    5 2
   7    5    7 1
   8    6    7 ar
   9    6   11 ar
  10    6   19 1
  11    7    8 ar
  12    8    9 ar
  13    8   20 1
  14    9   10 ar
  15    9   21 1
  16   10   11 ar
  17   10   22 1
  18   12   13 ar
  19   12   17 ar
  20   12   23 1
  21   13   14 ar
  22   14   15 ar
  23   14   24 1
  24   15   16 ar
  25   15   25 1
  26   16   17 ar
  27   16   18 1

#	End of record

