#	Name: ASD01900954
#	Creating user name:	WinNT
#	Creation time:	15. 06. 2019 19:52

#	Modifying user name:	WinNT
#	Modification time:	15. 06. 2019 19:52

#	Program:	/corina/corina34_cracker 3.40 0067  02.08.2006

@<TRIPOS>MOLECULE
ASD01900954
  60   64    0    0    0
SMALL
NO_CHARGES


@<TRIPOS>ATOM
   1 C1            -2.9529     4.7885    -1.8131 C.ar    
   2 C2            -3.4707     3.5456    -1.5160 C.ar    
   3 C3            -2.6575     2.5513    -0.9918 C.ar    
   4 C4            -1.3174     2.7940    -0.7518 C.ar    
   5 C5            -0.7839     4.0383    -1.0394 C.ar    
   6 C6            -1.6024     5.0436    -1.5848 C.ar    
   7 N7             0.5527     4.3354    -0.7974 N.pl3   
   8 C8             1.2164     5.3421    -1.6335 C.3     
   9 N9             0.3385     6.4961    -1.8311 N.am    
  10 C10           -1.0004     6.3525    -1.8910 C.2     
  11 C11            2.5080     5.7971    -0.9475 C.3     
  12 C12            1.5613     4.7246    -2.9916 C.3     
  13 C13            2.3142     5.7542    -3.8372 C.3     
  14 N14            3.5400     6.1616    -3.1389 N.3     
  15 C15            3.2326     6.7972    -1.8514 C.3     
  16 C16            0.8989     7.7716    -1.9589 C.ar    
  17 C17            1.0232     8.3543    -3.2134 C.ar    
  18 C18            1.5763     9.6138    -3.3367 C.ar    
  19 C19            2.0068    10.2949    -2.2117 C.ar    
  20 C20            1.8845     9.7165    -0.9605 C.ar    
  21 C21            1.3265     8.4598    -0.8309 C.ar    
  22 C22            4.3564     7.0460    -3.9810 C.3     
  23 C23            5.2713     7.8665    -3.1087 C.ar    
  24 O24           -1.7054     7.2955    -2.1960 O.2     
  25 Cl25           2.7021    11.8777    -2.3702 Cl      
  26 Br26          -3.3874     0.8511    -0.6017 Br      
  27 C27            5.4801     9.2035    -3.3911 C.ar    
  28 C28            6.3193     9.9560    -2.5909 C.ar    
  29 C29            6.9493     9.3717    -1.5081 C.ar    
  30 C30            6.7398     8.0349    -1.2252 C.ar    
  31 C31            5.8972     7.2835    -2.0228 C.ar    
  32 C32            5.1925     6.2028    -4.9458 C.3     
  33 C33            4.2636     5.4335    -5.8872 C.3     
  34 H34           -3.5892     5.5581    -2.2244 H       
  35 H35           -4.5171     3.3447    -1.6923 H       
  36 H36           -0.6902     2.0163    -0.3417 H       
  37 H37            1.0377     3.8854    -0.0881 H       
  38 H38            2.2672     6.2733     0.0029 H       
  39 H39            3.1500     4.9342    -0.7710 H       
  40 H40            2.1894     3.8462    -2.8431 H       
  41 H41            0.6436     4.4344    -3.5032 H       
  42 H42            2.5740     5.3135    -4.7997 H       
  43 H43            1.6803     6.6264    -3.9968 H       
  44 H44            2.5943     7.6650    -2.0180 H       
  45 H45            4.1590     7.1145    -1.3727 H       
  46 H46            0.6880     7.8229    -4.0918 H       
  47 H47            1.6732    10.0673    -4.3120 H       
  48 H48            2.2219    10.2499    -0.0841 H       
  49 H49            1.2268     8.0108     0.1462 H       
  50 H50            3.7049     7.7097    -4.5495 H       
  51 H51            4.9879     9.6600    -4.2371 H       
  52 H52            6.4830    11.0004    -2.8120 H       
  53 H53            7.6055     9.9595    -0.8834 H       
  54 H54            7.2323     7.5784    -0.3794 H       
  55 H55            5.7306     6.2400    -1.7996 H       
  56 H56            5.8421     6.8552    -5.5293 H       
  57 H57            5.8003     5.4976    -4.3788 H       
  58 H58            3.9033     4.5343    -5.3874 H       
  59 H59            3.4161     6.0638    -6.1566 H       
  60 H60            4.8096     5.1543    -6.7883 H       
@<TRIPOS>BOND
   1    1    2 ar
   2    1    6 ar
   3    1   34 1
   4    2    3 ar
   5    2   35 1
   6    3    4 ar
   7    3   26 1
   8    4    5 ar
   9    4   36 1
  10    5    7 1
  11    5    6 ar
  12    6   10 1
  13    7    8 1
  14    7   37 1
  15    8    9 1
  16    8   12 1
  17    8   11 1
  18    9   10 am
  19    9   16 1
  20   10   24 2
  21   11   15 1
  22   11   38 1
  23   11   39 1
  24   12   13 1
  25   12   40 1
  26   12   41 1
  27   13   14 1
  28   13   42 1
  29   13   43 1
  30   14   15 1
  31   14   22 1
  32   15   44 1
  33   15   45 1
  34   16   17 ar
  35   16   21 ar
  36   17   18 ar
  37   17   46 1
  38   18   19 ar
  39   18   47 1
  40   19   20 ar
  41   19   25 1
  42   20   21 ar
  43   20   48 1
  44   21   49 1
  45   22   23 1
  46   22   32 1
  47   22   50 1
  48   23   27 ar
  49   23   31 ar
  50   27   28 ar
  51   27   51 1
  52   28   29 ar
  53   28   52 1
  54   29   30 ar
  55   29   53 1
  56   30   31 ar
  57   30   54 1
  58   31   55 1
  59   32   33 1
  60   32   56 1
  61   32   57 1
  62   33   58 1
  63   33   59 1
  64   33   60 1

#	End of record

