#	Name: ASD01190172
#	Creating user name:	WinNT
#	Creation time:	15. 06. 2019 19:07

#	Modifying user name:	WinNT
#	Modification time:	15. 06. 2019 19:07

#	Program:	/corina/corina34_cracker 3.40 0067  02.08.2006

@<TRIPOS>MOLECULE
ASD01190172
  46   50    0    0    0
SMALL
NO_CHARGES


@<TRIPOS>ATOM
   1 C1            -0.0187     1.5258     0.0104 C.3     
   2 C2             0.0148     0.0356     0.3557 C.3     
   3 N3             5.1621     3.6970     0.2020 N.pl3   
   4 N4             5.0021     4.4754     1.3549 N.2     
   5 C5             3.7917     4.3369     1.8155 C.2     
   6 C6             3.0852     3.4454     0.9731 C.ar    
   7 C7             1.7792     2.9381     0.9795 C.ar    
   8 C8             1.3861     2.0712     0.0024 C.ar    
   9 C9             2.2679     1.6854    -1.0003 C.ar    
  10 C10            3.5464     2.1658    -1.0288 C.ar    
  11 C11            3.9757     3.0519    -0.0447 C.ar    
  12 C12            6.7036     2.4633    -1.1775 C.2     
  13 C13            6.3324     3.5980    -0.5718 C.2     
  14 C14            7.1931     4.6696    -0.7679 C.2     
  15 C15            8.2557     4.4042    -1.5282 C.2     
  16 S16            8.2097     2.7247    -2.0472 S.3     
  17 N17           -1.5998     1.2930    -3.3066 N.pl3   
  18 C18           -1.1150     0.7452    -2.1503 C.2     
  19 C19           -0.6378     1.7123    -1.3508 C.2     
  20 C20           -0.8329     2.9832    -2.0526 C.ar    
  21 C21           -0.5482     4.3152    -1.7454 C.ar    
  22 C22           -0.8635     5.2996    -2.6388 C.ar    
  23 C23           -1.4650     4.9864    -3.8502 C.ar    
  24 C24           -1.7551     3.6791    -4.1733 C.ar    
  25 C25           -1.4423     2.6606    -3.2787 C.ar    
  26 C26           -2.1925     0.5365    -4.4124 C.3     
  27 F27            0.5895    -0.1375     1.6193 F       
  28 F28           -1.2893    -0.4708     0.3631 F       
  29 F29            0.7748    -0.6475    -0.5998 F       
  30 O30           -0.7950     2.2235     0.9864 O.3     
  31 H31            3.3931     4.8219     2.6944 H       
  32 H32            1.0870     3.2319     1.7547 H       
  33 H33            1.9386     0.9978    -1.7653 H       
  34 H34            4.2227     1.8585    -1.8128 H       
  35 H35            6.1633     1.5292    -1.1348 H       
  36 H36            7.0153     5.6441    -0.3375 H       
  37 H37            9.0280     5.1136    -1.7864 H       
  38 H38           -1.1164    -0.3089    -1.9154 H       
  39 H39           -0.0807     4.5664    -0.8048 H       
  40 H40           -0.6434     6.3298    -2.4006 H       
  41 H41           -1.7083     5.7756    -4.5461 H       
  42 H42           -2.2235     3.4456    -5.1180 H       
  43 H43           -3.2668     0.4427    -4.2538 H       
  44 H44           -2.0080     1.0598    -5.3506 H       
  45 H45           -1.7435    -0.4558    -4.4554 H       
  46 H46           -0.8595     3.1756     0.8303 H       
@<TRIPOS>BOND
   1    1    2 1
   2    1    8 1
   3    1   19 1
   4    1   30 1
   5    2   27 1
   6    2   28 1
   7    2   29 1
   8    3    4 1
   9    3   11 1
  10    3   13 1
  11    4    5 2
  12    5    6 1
  13    5   31 1
  14    6    7 ar
  15    6   11 ar
  16    7    8 ar
  17    7   32 1
  18    8    9 ar
  19    9   10 ar
  20    9   33 1
  21   10   11 ar
  22   10   34 1
  23   12   13 2
  24   12   16 1
  25   12   35 1
  26   13   14 1
  27   14   15 2
  28   14   36 1
  29   15   16 1
  30   15   37 1
  31   17   18 1
  32   17   25 1
  33   17   26 1
  34   18   19 2
  35   18   38 1
  36   19   20 1
  37   20   21 ar
  38   20   25 ar
  39   21   22 ar
  40   21   39 1
  41   22   23 ar
  42   22   40 1
  43   23   24 ar
  44   23   41 1
  45   24   25 ar
  46   24   42 1
  47   26   43 1
  48   26   44 1
  49   26   45 1
  50   30   46 1

#	End of record

