#	Name: ASD07300146
#	Creating user name:	WinNT
#	Creation time:	15. 06. 2019 21:09

#	Modifying user name:	WinNT
#	Modification time:	15. 06. 2019 21:09

#	Program:	/corina/corina34_cracker 3.40 0067  02.08.2006

@<TRIPOS>MOLECULE
ASD07300146
  37   40    0    0    0
SMALL
NO_CHARGES


@<TRIPOS>ATOM
   1 C1            -0.8666     0.9870    -0.1320 C.ar    
   2 C2            -1.0311    -0.3834    -0.3559 C.ar    
   3 C3             0.0532    -1.2333    -0.1962 C.ar    
   4 C4             1.2686    -0.6822     0.1830 C.ar    
   5 C5             1.3594     0.6817     0.3875 C.ar    
   6 N6             0.3121     1.4675     0.2282 N.ar    
   7 C7            -2.9808     0.6166    -0.7034 C.2     
   8 N8            -2.1043     1.5781    -0.3585 N.am    
   9 N9            -2.3610    -0.5790    -0.7161 N.am    
  10 O10           -4.1541     0.8004    -0.9681 O.2     
  11 C11           -2.9819    -1.8648    -1.0439 C.3     
  12 C12           -3.5467    -2.4977     0.2295 C.3     
  13 C13           -2.3916     2.9466    -0.2459 C.ar    
  14 C14           -3.6753     3.4099    -0.5009 C.ar    
  15 C15           -3.9576     4.7569    -0.3900 C.ar    
  16 C16           -2.9585     5.6475    -0.0244 C.ar    
  17 C17           -1.6753     5.1850     0.2301 C.ar    
  18 C18           -1.3937     3.8373     0.1259 C.ar    
  19 O19           -3.2368     6.9738     0.0842 O.3     
  20 S20           -4.3759     6.4571     2.5497 S.3     
  21 N21           -5.1298     7.7523     3.3513 N.2     
  22 C22           -4.9934     8.7815     2.5653 C.2     
  23 N23           -4.3598     8.6052     1.4286 N.2     
  24 C24           -3.9134     7.3939     1.1796 C.2     
  25 Br25          -5.6858    10.4746     3.0447 Br      
  26 H26           -0.0461    -2.2958    -0.3623 H       
  27 H27            2.1351    -1.3127     0.3175 H       
  28 H28            2.3051     1.1119     0.6827 H       
  29 H29           -3.7886    -1.7067    -1.7597 H       
  30 H30           -2.2349    -2.5285    -1.4791 H       
  31 H31           -4.0086    -3.4544    -0.0144 H       
  32 H32           -2.7400    -2.6557     0.9452 H       
  33 H33           -4.2937    -1.8339     0.6647 H       
  34 H34           -4.4528     2.7168    -0.7862 H       
  35 H35           -4.9561     5.1174    -0.5883 H       
  36 H36           -0.8978     5.8787     0.5140 H       
  37 H37           -0.3962     3.4767     0.3291 H       
@<TRIPOS>BOND
   1    1    2 ar
   2    1    6 ar
   3    1    8 1
   4    2    3 ar
   5    2    9 1
   6    3    4 ar
   7    3   26 1
   8    4    5 ar
   9    4   27 1
  10    5    6 ar
  11    5   28 1
  12    7    8 am
  13    7    9 am
  14    7   10 2
  15    8   13 1
  16    9   11 1
  17   11   12 1
  18   11   29 1
  19   11   30 1
  20   12   31 1
  21   12   32 1
  22   12   33 1
  23   13   14 ar
  24   13   18 ar
  25   14   15 ar
  26   14   34 1
  27   15   16 ar
  28   15   35 1
  29   16   17 ar
  30   16   19 1
  31   17   18 ar
  32   17   36 1
  33   18   37 1
  34   19   24 1
  35   20   21 1
  36   20   24 1
  37   21   22 2
  38   22   23 1
  39   22   25 1
  40   23   24 2

#	End of record

