#	Name: ASD01900639
#	Creating user name:	WinNT
#	Creation time:	15. 06. 2019 19:52

#	Modifying user name:	WinNT
#	Modification time:	15. 06. 2019 19:52

#	Program:	/corina/corina34_cracker 3.40 0067  02.08.2006

@<TRIPOS>MOLECULE
ASD01900639
  46   50    0    0    0
SMALL
NO_CHARGES


@<TRIPOS>ATOM
   1 C1            -0.0186     1.4182     0.1364 C.ar    
   2 C2            -0.0085     0.0184     0.1256 C.ar    
   3 C3             1.2005    -0.6776     0.0651 C.ar    
   4 C4             2.3945     0.0227     0.0150 C.ar    
   5 C5             2.3660     1.4260     0.0306 C.ar    
   6 O6             3.5723    -0.6342    -0.0556 O.3     
   7 C7             4.7414    -0.0180     0.1908 C.2     
   8 C8             4.8673     1.3293     0.2214 C.2     
   9 C9             3.6621     2.1483    -0.0104 C.2     
  10 C10            5.9385    -0.8460     0.4391 C.ar    
  11 N11            7.1076    -0.2480     0.6855 N.ar    
  12 C12            8.2093    -0.9178     0.9146 C.ar    
  13 C13            8.1978    -2.3237     0.9087 C.ar    
  14 C14            6.9747    -2.9982     0.6509 C.ar    
  15 C15            5.8245    -2.2273     0.4172 C.ar    
  16 C16            9.3581    -3.0748     1.1494 C.ar    
  17 C17            9.2939    -4.4356     1.1322 C.ar    
  18 C18            8.0936    -5.0966     0.8787 C.ar    
  19 C19            6.9465    -4.4012     0.6411 C.ar    
  20 C20            1.1580     2.1126     0.0894 C.ar    
  21 C21           -1.2443    -0.7034     0.1772 C.1     
  22 C22           -2.2574    -1.2951     0.2196 C.1     
  23 C23           -3.4931    -2.0168     0.2713 C.ar    
  24 C24           -3.4910    -3.4143     0.2608 C.ar    
  25 C25           -4.7068    -1.3272     0.3382 C.ar    
  26 C26           -5.8929    -2.0291     0.3876 C.ar    
  27 C27           -5.8832    -3.4129     0.3716 C.ar    
  28 C28           -4.6851    -4.1026     0.3108 C.ar    
  29 N29            3.7317     3.4377    -0.2388 N.2     
  30 O30            2.5671     4.1563    -0.6025 O.3     
  31 H31           -0.9575     1.9503     0.1775 H       
  32 H32            1.2046    -1.7575     0.0577 H       
  33 H33            5.8244     1.7925     0.4108 H       
  34 H34            9.1304    -0.3882     1.1085 H       
  35 H35            4.8743    -2.6998     0.2172 H       
  36 H36           10.2963    -2.5775     1.3467 H       
  37 H37           10.1884    -5.0117     1.3177 H       
  38 H38            8.0724    -6.1764     0.8706 H       
  39 H39            6.0227    -4.9256     0.4463 H       
  40 H40            1.1494     3.1926     0.0971 H       
  41 H41           -2.5567    -3.9540     0.2134 H       
  42 H42           -4.7158    -0.2473     0.3515 H       
  43 H43           -6.8316    -1.4976     0.4393 H       
  44 H44           -6.8152    -3.9572     0.4112 H       
  45 H45           -4.6852    -5.1826     0.2986 H       
  46 H46            2.7173     5.1001    -0.7501 H       
@<TRIPOS>BOND
   1    1    2 ar
   2    1   20 ar
   3    1   31 1
   4    2    3 ar
   5    2   21 1
   6    3    4 ar
   7    3   32 1
   8    4    5 ar
   9    4    6 1
  10    5   20 ar
  11    5    9 1
  12    6    7 1
  13    7    8 2
  14    7   10 1
  15    8    9 1
  16    8   33 1
  17    9   29 2
  18   10   11 ar
  19   10   15 ar
  20   11   12 ar
  21   12   13 ar
  22   12   34 1
  23   13   14 ar
  24   13   16 ar
  25   14   15 ar
  26   14   19 ar
  27   15   35 1
  28   16   17 ar
  29   16   36 1
  30   17   18 ar
  31   17   37 1
  32   18   19 ar
  33   18   38 1
  34   19   39 1
  35   20   40 1
  36   21   22 3
  37   22   23 1
  38   23   24 ar
  39   23   25 ar
  40   24   28 ar
  41   24   41 1
  42   25   26 ar
  43   25   42 1
  44   26   27 ar
  45   26   43 1
  46   27   28 ar
  47   27   44 1
  48   28   45 1
  49   29   30 1
  50   30   46 1

#	End of record

