#	Name: ASD01190135
#	Creating user name:	WinNT
#	Creation time:	15. 06. 2019 19:07

#	Modifying user name:	WinNT
#	Modification time:	15. 06. 2019 19:07

#	Program:	/corina/corina34_cracker 3.40 0067  02.08.2006

@<TRIPOS>MOLECULE
ASD01190135
  56   60    0    0    0
SMALL
NO_CHARGES


@<TRIPOS>ATOM
   1 C1            -0.0187     1.5258     0.0104 C.3     
   2 C2             0.0082     0.0364     0.3597 C.3     
   3 N3             5.2779     3.3939    -0.2471 N.pl3   
   4 N4             5.6912     2.7128    -1.3968 N.2     
   5 C5             4.7131     1.9906    -1.8652 C.2     
   6 C6             3.5590     2.1815    -0.9925 C.ar    
   7 C7             2.2524     1.6807    -0.9843 C.ar    
   8 C8             1.3886     2.0648     0.0002 C.ar    
   9 C9             1.7943     2.9485     0.9928 C.ar    
  10 C10            3.0646     3.4513     1.0055 C.ar    
  11 C11            3.9680     3.0771     0.0146 C.ar    
  12 C12            6.0744     4.2558     0.5179 C.ar    
  13 C13            7.4292     3.9947     0.6748 C.ar    
  14 C14            8.2126     4.8457     1.4293 C.ar    
  15 C15            7.6480     5.9588     2.0293 C.ar    
  16 C16            6.2970     6.2210     1.8741 C.ar    
  17 C17            5.5113     5.3757     1.1157 C.ar    
  18 F18            8.4160     6.7898     2.7674 F       
  19 F19            0.5828    -0.1359     1.6235 F       
  20 F20           -1.2982    -0.4640     0.3692 F       
  21 F21            0.7646    -0.6527    -0.5944 F       
  22 C22           -1.7464     3.6921    -4.1615 C.ar    
  23 C23           -1.4419     2.6557    -3.2785 C.ar    
  24 C24           -0.8322     2.9773    -2.0514 C.ar    
  25 C25           -0.5574     4.3217    -1.7689 C.ar    
  26 C26           -0.8904     5.2693    -2.6925 C.ar    
  27 N27           -1.4636     4.9420    -3.8407 N.ar    
  28 N28           -1.5995     1.2889    -3.3061 N.pl3   
  29 C29           -0.6376     1.7114    -1.3510 C.2     
  30 C30           -1.1157     0.7422    -2.1515 C.2     
  31 O31           -2.3294     3.4149    -5.3552 O.3     
  32 C32           -2.6140     4.5233    -6.2111 C.3     
  33 C33           -2.1975     0.5328    -4.4093 C.3     
  34 C34           -1.1453     0.2439    -5.4488 C.2     
  35 C35           -0.9217    -0.9895    -5.8293 C.2     
  36 O36           -0.7913     2.2297     0.9849 O.3     
  37 H37            4.7498     1.3627    -2.7432 H       
  38 H38            1.9292     0.9940    -1.7527 H       
  39 H39            1.0968     3.2419     1.7634 H       
  40 H40            3.3672     4.1377     1.7825 H       
  41 H41            7.8699     3.1266     0.2073 H       
  42 H42            9.2663     4.6428     1.5518 H       
  43 H43            5.8585     7.0894     2.3432 H       
  44 H44            4.4587     5.5831     0.9909 H       
  45 H45           -0.0907     4.6031    -0.8365 H       
  46 H46           -0.6821     6.3081    -2.4828 H       
  47 H47           -1.1173    -0.3118    -1.9163 H       
  48 H48           -3.0775     4.1634    -7.1296 H       
  49 H49           -3.2944     5.2080    -5.7048 H       
  50 H50           -1.6871     5.0439    -6.4517 H       
  51 H51           -2.6006    -0.4061    -4.0297 H       
  52 H52           -3.0003     1.1180    -4.8577 H       
  53 H53           -0.5756     1.0538    -5.8800 H       
  54 H54           -1.4913    -1.7993    -5.3980 H       
  55 H55           -0.1676    -1.1964    -6.5742 H       
  56 H56           -0.8515     3.1817     0.8263 H       
@<TRIPOS>BOND
   1    1    2 1
   2    1    8 1
   3    1   29 1
   4    1   36 1
   5    2   19 1
   6    2   20 1
   7    2   21 1
   8    3    4 1
   9    3   11 1
  10    3   12 1
  11    4    5 2
  12    5    6 1
  13    5   37 1
  14    6    7 ar
  15    6   11 ar
  16    7    8 ar
  17    7   38 1
  18    8    9 ar
  19    9   10 ar
  20    9   39 1
  21   10   11 ar
  22   10   40 1
  23   12   13 ar
  24   12   17 ar
  25   13   14 ar
  26   13   41 1
  27   14   15 ar
  28   14   42 1
  29   15   16 ar
  30   15   18 1
  31   16   17 ar
  32   16   43 1
  33   17   44 1
  34   22   23 ar
  35   22   27 ar
  36   22   31 1
  37   23   24 ar
  38   23   28 1
  39   24   25 ar
  40   24   29 1
  41   25   26 ar
  42   25   45 1
  43   26   27 ar
  44   26   46 1
  45   28   30 1
  46   28   33 1
  47   29   30 2
  48   30   47 1
  49   31   32 1
  50   32   48 1
  51   32   49 1
  52   32   50 1
  53   33   34 1
  54   33   51 1
  55   33   52 1
  56   34   35 2
  57   34   53 1
  58   35   54 1
  59   35   55 1
  60   36   56 1

#	End of record

