#	Name: ASD01001116
#	Creating user name:	WinNT
#	Creation time:	15. 06. 2019 18:55

#	Modifying user name:	WinNT
#	Modification time:	15. 06. 2019 18:55

#	Program:	/corina/corina34_cracker 3.40 0067  02.08.2006

@<TRIPOS>MOLECULE
ASD01001116
  46   48    0    0    0
SMALL
NO_CHARGES


@<TRIPOS>ATOM
   1 C1            -0.3578     0.9449     0.6611 C.2     
   2 C2            -0.2587    -0.3684     0.4250 C.2     
   3 C3            -1.5540    -0.9959     0.2368 C.2     
   4 C4            -2.5999    -0.1213     0.3392 C.2     
   5 S5            -2.0381     1.4547     0.6539 S.3     
   6 N6            -3.9334    -0.4686     0.1997 N.am    
   7 C7            -4.8910     0.4722     0.3194 C.2     
   8 C8            -1.7239    -2.4260    -0.0367 C.2     
   9 O9            -1.7541    -3.2222     0.8835 O.2     
  10 N10           -1.8468    -2.8593    -1.3070 N.am    
  11 C11           -1.9069    -4.2958    -1.5884 C.3     
  12 C12           -1.9202    -1.8938    -2.4064 C.3     
  13 C13           -3.3643    -4.7606    -1.5595 C.3     
  14 C14           -0.5195    -1.6639    -2.9775 C.3     
  15 C15           -6.3023     0.1046     0.1718 C.2     
  16 O16           -4.5839     1.6271     0.5500 O.2     
  17 C17            0.8264     1.8631     0.8958 C.3     
  18 C18            2.0526     1.0092     1.2297 C.3     
  19 C19            2.1940    -0.0951     0.1778 C.3     
  20 C20            1.0657    -1.1125     0.3630 C.3     
  21 C21           -7.3674     0.9542     0.2685 C.2     
  22 C22           -8.5202     0.1812     0.0601 C.2     
  23 C23           -8.1138    -1.0901    -0.1519 C.2     
  24 O24           -6.7765    -1.1312    -0.0892 O.3     
  25 H25           -4.1782    -1.3891     0.0160 H       
  26 H26           -1.4827    -4.4911    -2.5732 H       
  27 H27           -1.3375    -4.8380    -0.8335 H       
  28 H28           -2.5722    -2.2827    -3.1885 H       
  29 H29           -2.3206    -0.9504    -2.0353 H       
  30 H30           -3.4090    -5.8294    -1.7688 H       
  31 H31           -3.7885    -4.5652    -0.5746 H       
  32 H32           -3.9336    -4.2183    -2.3144 H       
  33 H33            0.1061    -1.1854    -2.2241 H       
  34 H34           -0.0806    -2.6209    -3.2598 H       
  35 H35           -0.5862    -1.0216    -3.8557 H       
  36 H36            1.0210     2.4459    -0.0045 H       
  37 H37            0.6100     2.5331     1.7279 H       
  38 H38            2.9451     1.6348     1.2238 H       
  39 H39            1.9269     0.5603     2.2150 H       
  40 H40            2.1314     0.3413    -0.8190 H       
  41 H41            3.1563    -0.5924     0.2989 H       
  42 H42            1.2195    -1.6639     1.2906 H       
  43 H43            1.0562    -1.8049    -0.4788 H       
  44 H44           -7.3298     2.0151     0.4668 H       
  45 H45           -9.5404     0.5357     0.0681 H       
  46 H46           -8.7606    -1.9332    -0.3446 H       
@<TRIPOS>BOND
   1    1    2 2
   2    1   17 1
   3    1    5 1
   4    2    3 1
   5    2   20 1
   6    3    4 2
   7    3    8 1
   8    4    5 1
   9    4    6 1
  10    6    7 am
  11    6   25 1
  12    7   15 1
  13    7   16 2
  14    8    9 2
  15    8   10 am
  16   10   11 1
  17   10   12 1
  18   11   13 1
  19   11   26 1
  20   11   27 1
  21   12   14 1
  22   12   28 1
  23   12   29 1
  24   13   30 1
  25   13   31 1
  26   13   32 1
  27   14   33 1
  28   14   34 1
  29   14   35 1
  30   15   21 2
  31   15   24 1
  32   17   18 1
  33   17   36 1
  34   17   37 1
  35   18   19 1
  36   18   38 1
  37   18   39 1
  38   19   20 1
  39   19   40 1
  40   19   41 1
  41   20   42 1
  42   20   43 1
  43   21   22 1
  44   21   44 1
  45   22   23 2
  46   22   45 1
  47   23   24 1
  48   23   46 1

#	End of record

