#	Name: ASD01885672
#	Creating user name:	WinNT
#	Creation time:	15. 06. 2019 19:50

#	Modifying user name:	WinNT
#	Modification time:	15. 06. 2019 19:50

#	Program:	/corina/corina34_cracker 3.40 0067  02.08.2006

@<TRIPOS>MOLECULE
ASD01885672
  42   45    0    0    0
SMALL
NO_CHARGES


@<TRIPOS>ATOM
   1 C1            -0.0160     1.3299     0.0094 C.ar    
   2 C2            -1.2516     2.0246     0.0189 C.ar    
   3 C3            -2.4603     1.2819     0.0205 C.ar    
   4 C4            -2.3724    -0.1023     0.0125 C.ar    
   5 C5            -1.1116    -0.7137     0.0033 C.ar    
   6 N6             0.0021    -0.0041     0.0020 N.ar    
   7 C7             1.1370     3.4287     0.0097 C.ar    
   8 C8            -0.0796     4.1069     0.0258 C.ar    
   9 C9            -1.2599     3.4250     0.0271 C.ar    
  10 C10           -3.7750     1.9632     0.0308 C.ar    
  11 C11           -1.0288    -2.1433    -0.0049 C.1     
  12 C12            2.4236     4.2134     0.0092 C.3     
  13 C13            1.1821     2.0685     0.0019 C.ar    
  14 N14            2.8503     4.4525     1.3901 N.am    
  15 C15           -4.7577     1.6018    -0.8911 C.ar    
  16 C16           -5.9806     2.2394    -0.8774 C.ar    
  17 C17           -6.2339     3.2377     0.0500 C.ar    
  18 C18           -5.2607     3.6006     0.9676 C.ar    
  19 C19           -4.0369     2.9647     0.9661 C.ar    
  20 F20           -7.4334     3.8593     0.0594 F       
  21 C21            3.6494     3.6291     2.0903 C.2     
  22 C22            3.8746     4.1809     3.4808 C.3     
  23 C23            2.7620     5.2407     3.6531 C.3     
  24 C24            2.4653     5.6249     2.1846 C.3     
  25 O25            4.1209     2.5943     1.6688 O.2     
  26 N26           -0.9630    -3.2774    -0.0113 N.1     
  27 H27           -3.2690    -0.7044     0.0137 H       
  28 H28           -0.0878     5.1868     0.0377 H       
  29 H29           -2.1968     3.9621     0.0341 H       
  30 H30            3.1935     3.6485    -0.5164 H       
  31 H31            2.2667     5.1680    -0.4931 H       
  32 H32            2.1336     1.5577    -0.0097 H       
  33 H33           -4.5612     0.8243    -1.6144 H       
  34 H34           -6.7419     1.9606    -1.5909 H       
  35 H35           -5.4644     4.3760     1.6913 H       
  36 H36           -3.2809     3.2446     1.6849 H       
  37 H37            3.7690     3.3923     4.2259 H       
  38 H38            4.8582     4.6452     3.5523 H       
  39 H39            1.8833     4.8094     4.1328 H       
  40 H40            3.1268     6.1020     4.2127 H       
  41 H41            3.0556     6.4944     1.8955 H       
  42 H42            1.4025     5.8298     2.0556 H       
@<TRIPOS>BOND
   1    1    6 ar
   2    1   13 ar
   3    1    2 ar
   4    2    3 ar
   5    2    9 ar
   6    3   10 1
   7    3    4 ar
   8    4    5 ar
   9    4   27 1
  10    5   11 1
  11    5    6 ar
  12    7   12 1
  13    7    8 ar
  14    7   13 ar
  15    8    9 ar
  16    8   28 1
  17    9   29 1
  18   10   15 ar
  19   10   19 ar
  20   11   26 3
  21   12   14 1
  22   12   30 1
  23   12   31 1
  24   13   32 1
  25   14   21 am
  26   14   24 1
  27   15   16 ar
  28   15   33 1
  29   16   17 ar
  30   16   34 1
  31   17   20 1
  32   17   18 ar
  33   18   19 ar
  34   18   35 1
  35   19   36 1
  36   21   22 1
  37   21   25 2
  38   22   23 1
  39   22   37 1
  40   22   38 1
  41   23   24 1
  42   23   39 1
  43   23   40 1
  44   24   41 1
  45   24   42 1

#	End of record

