#	Name: ASD02690007
#	Creating user name:	WinNT
#	Creation time:	15. 06. 2019 20:26

#	Modifying user name:	WinNT
#	Modification time:	15. 06. 2019 20:26

#	Program:	/corina/corina34_cracker 3.40 0067  02.08.2006

@<TRIPOS>MOLECULE
ASD02690007
  68   70    0    0    0
SMALL
NO_CHARGES


@<TRIPOS>ATOM
   1 C1            -0.1016     1.5671    -0.1102 C.3     
   2 N2            -0.0760     0.0991    -0.1356 N.3     
   3 C3             0.5773    -0.3996    -1.3525 C.3     
   4 C4             2.0308     0.0782    -1.3851 C.3     
   5 C5             2.0606     1.6088    -1.3581 C.3     
   6 C6             1.3317     2.1036    -0.1057 C.3     
   7 C7             5.1569     3.8667    -1.8156 C.ar    
   8 C8             3.8313     3.4218    -1.8403 C.ar    
   9 C9             3.4903     2.0843    -1.3296 C.2     
  10 C10            5.4683     5.1213    -2.2955 C.ar    
  11 C11            4.4730     5.9395    -2.8008 C.ar    
  12 C12            3.1587     5.5065    -2.8287 C.ar    
  13 C13            2.8313     4.2546    -2.3525 C.ar    
  14 C14           -1.4304    -0.4534    -0.0010 C.3     
  15 C15           -1.3759    -1.9787    -0.1327 C.3     
  16 N16           -2.7138    -2.5245     0.1330 N.am    
  17 C17           -3.3903    -2.1583     1.3849 C.3     
  18 C18           -3.4223    -0.6310     1.4996 C.3     
  19 C19           -1.9989    -0.0839     1.3710 C.3     
  20 C20           -3.3095    -3.3450    -0.7548 C.2     
  21 C21           -4.6001    -3.9841    -0.4205 C.ar    
  22 O22           -2.7857    -3.5597    -1.8305 O.2     
  23 C23           -5.5980    -4.0976    -1.3898 C.ar    
  24 C24           -6.8000    -4.6950    -1.0712 C.ar    
  25 C25           -7.0175    -5.1809     0.2058 C.ar    
  26 C26           -6.0327    -5.0712     1.1715 C.ar    
  27 C27           -4.8239    -4.4816     0.8643 C.ar    
  28 O28           -1.1773    -0.6491     2.3946 O.3     
  29 O29            4.3597     1.3650    -0.8859 O.2     
  30 C30            4.8221     7.3093    -3.3233 C.3     
  31 F31            5.1229     7.2255    -4.6870 F       
  32 F32            3.7351     8.1702    -3.1376 F       
  33 F33            5.9323     7.8037    -2.6304 F       
  34 H34           -0.6249     1.9366    -0.9921 H       
  35 H35           -0.6189     1.9059     0.7874 H       
  36 H36            0.5530    -1.4893    -1.3572 H       
  37 H37            0.0508    -0.0210    -2.2286 H       
  38 H38            2.5616    -0.3115    -0.5165 H       
  39 H39            2.5110    -0.2791    -2.2961 H       
  40 H40            1.5638     1.9985    -2.2466 H       
  41 H41            1.3123     3.1935    -0.1027 H       
  42 H42            1.8514     1.7458     0.7830 H       
  43 H43            5.9340     3.2310    -1.4176 H       
  44 H44            6.4915     5.4664    -2.2768 H       
  45 H45            2.3876     6.1509    -3.2242 H       
  46 H46            1.8053     3.9181    -2.3749 H       
  47 H47           -2.0699    -0.0434    -0.7827 H       
  48 H48           -1.0656    -2.2474    -1.1425 H       
  49 H49           -0.6664    -2.3827     0.5895 H       
  50 H50           -4.4092    -2.5456     1.3764 H       
  51 H51           -2.8451    -2.5770     2.2308 H       
  52 H52           -4.0435    -0.2194     0.7041 H       
  53 H53           -3.8350    -0.3475     2.4678 H       
  54 H54           -2.0158     1.0008     1.4769 H       
  55 H55           -5.4296    -3.7184    -2.3869 H       
  56 H56           -7.5731    -4.7831    -1.8202 H       
  57 H57           -7.9603    -5.6477     0.4501 H       
  58 H58           -6.2089    -5.4522     2.1665 H       
  59 H59           -4.0558    -4.3968     1.6188 H       
  60 H60           -1.4781    -0.4541     3.2927 H       
  61 C61           12.7909    17.2815     8.3067 C.1     
  62 C62           12.8068    16.1077     8.3002 C.1     
  63 O63           12.7725    18.6364     8.3141 O.3     
  64 O64           12.8252    14.7528     8.2927 O.3     
  65 O65           14.1062    19.2521     8.3047 O.3     
  66 O66           11.4915    14.1371     8.3022 O.3     
  67 H67           14.0931    20.2190     8.3100 H       
  68 H68           11.5046    13.1702     8.2969 H       
@<TRIPOS>BOND
   1    1    2 1
   2    1    6 1
   3    1   34 1
   4    1   35 1
   5    2    3 1
   6    2   14 1
   7    3    4 1
   8    3   36 1
   9    3   37 1
  10    4    5 1
  11    4   38 1
  12    4   39 1
  13    5    6 1
  14    5    9 1
  15    5   40 1
  16    6   41 1
  17    6   42 1
  18    7    8 ar
  19    7   10 ar
  20    7   43 1
  21    8    9 1
  22    8   13 ar
  23    9   29 2
  24   10   11 ar
  25   10   44 1
  26   11   12 ar
  27   11   30 1
  28   12   13 ar
  29   12   45 1
  30   13   46 1
  31   14   15 1
  32   14   19 1
  33   14   47 1
  34   15   16 1
  35   15   48 1
  36   15   49 1
  37   16   17 1
  38   16   20 am
  39   17   18 1
  40   17   50 1
  41   17   51 1
  42   18   19 1
  43   18   52 1
  44   18   53 1
  45   19   28 1
  46   19   54 1
  47   20   21 1
  48   20   22 2
  49   21   23 ar
  50   21   27 ar
  51   23   24 ar
  52   23   55 1
  53   24   25 ar
  54   24   56 1
  55   25   26 ar
  56   25   57 1
  57   26   27 ar
  58   26   58 1
  59   27   59 1
  60   28   60 1
  61   30   31 1
  62   30   32 1
  63   30   33 1
  64   61   62 3
  65   61   63 1
  66   62   64 1
  67   63   65 1
  68   64   66 1
  69   65   67 1
  70   66   68 1

#	End of record

