#	Name: ASD01908389
#	Creating user name:	WinNT
#	Creation time:	15. 06. 2019 19:55

#	Modifying user name:	WinNT
#	Modification time:	15. 06. 2019 19:55

#	Program:	/corina/corina34_cracker 3.40 0067  02.08.2006

@<TRIPOS>MOLECULE
ASD01908389
  39   42    0    0    0
SMALL
NO_CHARGES


@<TRIPOS>ATOM
   1 C1             0.0820     1.2914    -1.2961 C.ar    
   2 C2             0.0957    -0.0846    -1.1678 C.ar    
   3 C3             1.2859    -0.7386    -0.9246 C.ar    
   4 C4             2.4725    -0.0244    -0.8074 C.ar    
   5 C5             2.4588     1.3459    -0.9351 C.ar    
   6 C6             1.2585     2.0025    -1.1802 C.ar    
   7 S7             4.1073    -0.6119    -0.5024 S.o2    
   8 N8             5.0919     0.7239    -0.4736 N.am    
   9 S9             4.0813     2.0117    -0.7470 S.o2    
  10 C10            6.4724     0.7572    -0.2639 C.ar    
  11 C11            7.1473     1.9700    -0.2716 C.ar    
  12 C12            7.1708    -0.4233    -0.0417 C.ar    
  13 C13            8.5364    -0.3911     0.1663 C.ar    
  14 C14            9.2117     0.8139     0.1545 C.ar    
  15 C15            8.5185     1.9987    -0.0624 C.ar    
  16 O16            4.4457     2.5493    -2.0109 O.2     
  17 O17            4.0675     2.7752     0.4514 O.2     
  18 O18            4.1064    -1.1407     0.8166 O.2     
  19 O19            4.4847    -1.3666    -1.6457 O.2     
  20 N20            9.2030     3.2179    -0.0747 N.am    
  21 C21           10.4492     3.2860    -0.5834 C.2     
  22 C22           11.1276     4.5814    -0.6902 C.2     
  23 O23           11.0114     2.2722    -0.9542 O.2     
  24 O24           10.6208     5.7749    -0.3175 O.3     
  25 C25           11.5211     6.7360    -0.5619 C.2     
  26 C26           12.6255     6.1712    -1.0980 C.2     
  27 C27           12.3856     4.7905    -1.1787 C.2     
  28 H28           -0.8461     1.8080    -1.4910 H       
  29 H29           -0.8224    -0.6462    -1.2573 H       
  30 H30            1.2955    -1.8138    -0.8241 H       
  31 H31            1.2469     3.0777    -1.2809 H       
  32 H32            6.6062     2.8894    -0.4404 H       
  33 H33            6.6456    -1.3669    -0.0312 H       
  34 H34            9.0770    -1.3100     0.3388 H       
  35 H35           10.2791     0.8356     0.3178 H       
  36 H36            8.7809     4.0147     0.2830 H       
  37 H37           11.3863     7.7891    -0.3637 H       
  38 H38           13.5251     6.6850    -1.4032 H       
  39 H39           13.0621     4.0400    -1.5602 H       
@<TRIPOS>BOND
   1    1    2 ar
   2    1    6 ar
   3    1   28 1
   4    2    3 ar
   5    2   29 1
   6    3    4 ar
   7    3   30 1
   8    4    5 ar
   9    4    7 1
  10    5    6 ar
  11    5    9 1
  12    6   31 1
  13    7    8 am
  14    7   18 2
  15    7   19 2
  16    8    9 am
  17    8   10 1
  18    9   16 2
  19    9   17 2
  20   10   11 ar
  21   10   12 ar
  22   11   15 ar
  23   11   32 1
  24   12   13 ar
  25   12   33 1
  26   13   14 ar
  27   13   34 1
  28   14   15 ar
  29   14   35 1
  30   15   20 1
  31   20   21 am
  32   20   36 1
  33   21   22 1
  34   21   23 2
  35   22   24 1
  36   22   27 2
  37   24   25 1
  38   25   26 2
  39   25   37 1
  40   26   27 1
  41   26   38 1
  42   27   39 1

#	End of record

