#	Name: ASD01510081
#	Creating user name:	WinNT
#	Creation time:	15. 06. 2019 19:21

#	Modifying user name:	WinNT
#	Modification time:	15. 06. 2019 19:21

#	Program:	/corina/corina34_cracker 3.40 0067  02.08.2006

@<TRIPOS>MOLECULE
ASD01510081
  71   73    0    0    0
SMALL
NO_CHARGES


@<TRIPOS>ATOM
   1 C1             5.5647     1.5482     9.4778 C.3     
   2 C2             5.5820     0.0183     9.4710 C.3     
   3 C3             4.8600    -0.4943     8.2234 C.3     
   4 C4             4.8773    -2.0242     8.2166 C.3     
   5 C5             4.1552    -2.5369     6.9689 C.3     
   6 C6             4.1726    -4.0668     6.9621 C.3     
   7 C7             3.4505    -4.5795     5.7144 C.3     
   8 C8             3.4676    -6.0863     5.7077 C.2     
   9 O9             4.0043    -6.6907     6.6118 O.2     
  10 N10            2.8863    -6.7624     4.6970 N.am    
  11 C11            2.9944    -8.1479     4.6340 C.ar    
  12 C12            2.3106    -8.8639     3.6577 C.ar    
  13 C13            2.4485   -10.2500     3.6328 C.ar    
  14 N14            1.7861   -11.0046     2.6773 N.pl3   
  15 N15            3.2248   -10.8396     4.5380 N.ar    
  16 C16            3.8616   -10.1245     5.4544 C.ar    
  17 N17            3.7575    -8.8044     5.5038 N.ar    
  18 S18            4.8784   -10.9499     6.6333 S.3     
  19 C19            4.6587   -12.6185     6.1117 C.ar    
  20 C20            5.5088   -13.1891     5.1645 C.ar    
  21 O21            6.5231   -12.4667     4.6272 O.3     
  22 C22            7.3485   -13.1243     3.6637 C.3     
  23 N23            5.3113   -14.4505     4.7963 N.ar    
  24 C24            4.3236   -15.1629     5.3164 C.ar    
  25 N25            3.4962   -14.6556     6.2174 N.ar    
  26 C26            3.6338   -13.4034     6.6401 C.ar    
  27 O27            2.7823   -12.8918     7.5635 O.3     
  28 C28            1.7518   -13.7567     8.0452 C.3     
  29 N29            4.1507   -16.4757     4.9061 N.3     
  30 C30            3.0092   -17.0962     5.5928 C.3     
  31 C31            2.8034   -18.5144     5.0555 C.3     
  32 N32            4.0293   -19.2974     5.2649 N.3     
  33 C33            5.1708   -18.6770     4.5782 C.3     
  34 C34            5.3765   -17.2587     5.1155 C.3     
  35 C35            3.8461   -20.6886     4.8301 C.3     
  36 H36            4.5330     1.8999     9.4848 H       
  37 H37            6.0791     1.9135    10.3667 H       
  38 H38            6.0697     1.9213     8.5868 H       
  39 H39            6.6137    -0.3333     9.4641 H       
  40 H40            5.0770    -0.3547    10.3621 H       
  41 H41            3.8283    -0.1427     8.2304 H       
  42 H42            5.3649    -0.1213     7.3323 H       
  43 H43            5.9090    -2.3759     8.2096 H       
  44 H44            4.3723    -2.3972     9.1076 H       
  45 H45            3.1235    -2.1852     6.9759 H       
  46 H46            4.6602    -2.1639     6.0778 H       
  47 H47            5.2042    -4.4184     6.9551 H       
  48 H48            3.6676    -4.4398     7.8531 H       
  49 H49            2.4188    -4.2278     5.7214 H       
  50 H50            3.9555    -4.2064     4.8234 H       
  51 H51            2.3926    -6.2829     4.0135 H       
  52 H52            1.6871    -8.3574     2.9359 H       
  53 H53            1.2219   -10.5679     2.0201 H       
  54 H54            1.8867   -11.9693     2.6659 H       
  55 H55            7.8192   -13.9942     4.1218 H       
  56 H56            6.7375   -13.4441     2.8196 H       
  57 H57            8.1185   -12.4362     3.3148 H       
  58 H58            1.1244   -14.0736     7.2121 H       
  59 H59            2.2016   -14.6316     8.5146 H       
  60 H60            1.1432   -13.2247     8.7764 H       
  61 H61            3.2081   -17.1383     6.6637 H       
  62 H62            2.1113   -16.5051     5.4124 H       
  63 H63            1.9754   -18.9869     5.5839 H       
  64 H64            2.5776   -18.4704     3.9901 H       
  65 H65            6.0687   -19.2680     4.7585 H       
  66 H66            4.9718   -18.6348     3.5073 H       
  67 H67            6.2046   -16.7862     4.5871 H       
  68 H68            5.6024   -17.3027     6.1809 H       
  69 H69            3.5961   -20.7077     3.7693 H       
  70 H70            4.7682   -21.2456     4.9961 H       
  71 H71            3.0381   -21.1446     5.4021 H       
@<TRIPOS>BOND
   1    1    2 1
   2    1   36 1
   3    1   37 1
   4    1   38 1
   5    2    3 1
   6    2   39 1
   7    2   40 1
   8    3    4 1
   9    3   41 1
  10    3   42 1
  11    4    5 1
  12    4   43 1
  13    4   44 1
  14    5    6 1
  15    5   45 1
  16    5   46 1
  17    6    7 1
  18    6   47 1
  19    6   48 1
  20    7    8 1
  21    7   49 1
  22    7   50 1
  23    8    9 2
  24    8   10 am
  25   10   11 1
  26   10   51 1
  27   11   12 ar
  28   11   17 ar
  29   12   13 ar
  30   12   52 1
  31   13   14 1
  32   13   15 ar
  33   14   53 1
  34   14   54 1
  35   15   16 ar
  36   16   17 ar
  37   16   18 1
  38   18   19 1
  39   19   20 ar
  40   19   26 ar
  41   20   21 1
  42   20   23 ar
  43   21   22 1
  44   22   55 1
  45   22   56 1
  46   22   57 1
  47   23   24 ar
  48   24   25 ar
  49   24   29 1
  50   25   26 ar
  51   26   27 1
  52   27   28 1
  53   28   58 1
  54   28   59 1
  55   28   60 1
  56   29   30 1
  57   29   34 1
  58   30   31 1
  59   30   61 1
  60   30   62 1
  61   31   32 1
  62   31   63 1
  63   31   64 1
  64   32   33 1
  65   32   35 1
  66   33   34 1
  67   33   65 1
  68   33   66 1
  69   34   67 1
  70   34   68 1
  71   35   69 1
  72   35   70 1
  73   35   71 1

#	End of record

