#	Name: ASD05143318
#	Creating user name:	WinNT
#	Creation time:	15. 06. 2019 20:57

#	Modifying user name:	WinNT
#	Modification time:	15. 06. 2019 20:57

#	Program:	/corina/corina34_cracker 3.40 0067  02.08.2006

@<TRIPOS>MOLECULE
ASD05143318
  49   51    0    0    0
SMALL
NO_CHARGES


@<TRIPOS>ATOM
   1 C1            -0.2746     1.4689     0.1092 C.2     
   2 N2            -0.0151     0.2209    -0.2271 N.2     
   3 S3            -1.5240    -0.5553    -0.3157 S.3     
   4 C4            -2.4309     0.8468     0.1066 C.2     
   5 N5            -1.5396     1.7959     0.2895 N.2     
   6 N6            -3.8041     0.9508     0.2322 N.pl3   
   7 C7            -4.3745     2.1320     0.7166 C.ar    
   8 C8            -5.6759     2.4702     0.3682 C.ar    
   9 C9            -6.2367     3.6375     0.8480 C.ar    
  10 C10           -5.5033     4.4699     1.6753 C.ar    
  11 C11           -4.2064     4.1357     2.0237 C.ar    
  12 C12           -3.6427     2.9666     1.5518 C.ar    
  13 C13            1.2175    -0.3356    -0.4582 C.ar    
  14 C14            2.0563     0.2001    -1.4351 C.ar    
  15 C15            1.6421    -1.4408     0.2899 C.ar    
  16 C16            2.8875    -1.9951     0.0500 C.ar    
  17 C17            3.7093    -1.4585    -0.9249 C.ar    
  18 C18            3.2956    -0.3638    -1.6627 C.ar    
  19 C19            0.8105     2.4618     0.2834 C.ar    
  20 C20            0.5876     3.8031    -0.0287 C.ar    
  21 C21            2.0561     2.0588     0.7654 C.ar    
  22 C22            3.0638     2.9858     0.9268 C.ar    
  23 C23            2.8400     4.3192     0.6102 C.ar    
  24 C24            1.5998     4.7247     0.1352 C.ar    
  25 O25            3.8353     5.2301     0.7705 O.3     
  26 C26            3.5370     6.5844     0.4256 C.3     
  27 O27            0.8346    -1.9669     1.2481 O.3     
  28 C28            1.3344    -3.0937     1.9709 C.3     
  29 Cl29          -6.2114     5.9364     2.2766 Cl      
  30 H30           -4.3717     0.2042    -0.0157 H       
  31 H31           -6.2485     1.8211    -0.2777 H       
  32 H32           -7.2483     3.9011     0.5771 H       
  33 H33           -3.6361     4.7875     2.6689 H       
  34 H34           -2.6307     2.7060     1.8243 H       
  35 H35            1.7367     1.0546    -2.0130 H       
  36 H36            3.2183    -2.8474     0.6249 H       
  37 H37            4.6803    -1.8941    -1.1084 H       
  38 H38            3.9431     0.0488    -2.4223 H       
  39 H39           -0.3766     4.1191    -0.3985 H       
  40 H40            2.2307     1.0220     1.0122 H       
  41 H41            4.0282     2.6746     1.3003 H       
  42 H42            1.4294     5.7625    -0.1105 H       
  43 H43            3.2574     6.6382    -0.6266 H       
  44 H44            2.7108     6.9422     1.0399 H       
  45 H45            4.4154     7.2057     0.6003 H       
  46 H46            1.5359    -3.9100     1.2772 H       
  47 H47            2.2555    -2.8170     2.4837 H       
  48 H48            0.5930    -3.4138     2.7030 H       
  49 Br49           9.6803    12.2057     7.7030 Br      
@<TRIPOS>BOND
   1    1    2 2
   2    1   19 1
   3    1    5 1
   4    2    3 1
   5    2   13 1
   6    3    4 1
   7    4    5 2
   8    4    6 1
   9    6    7 1
  10    6   30 1
  11    7    8 ar
  12    7   12 ar
  13    8    9 ar
  14    8   31 1
  15    9   10 ar
  16    9   32 1
  17   10   11 ar
  18   10   29 1
  19   11   12 ar
  20   11   33 1
  21   12   34 1
  22   13   14 ar
  23   13   15 ar
  24   14   18 ar
  25   14   35 1
  26   15   16 ar
  27   15   27 1
  28   16   17 ar
  29   16   36 1
  30   17   18 ar
  31   17   37 1
  32   18   38 1
  33   19   20 ar
  34   19   21 ar
  35   20   24 ar
  36   20   39 1
  37   21   22 ar
  38   21   40 1
  39   22   23 ar
  40   22   41 1
  41   23   24 ar
  42   23   25 1
  43   24   42 1
  44   25   26 1
  45   26   43 1
  46   26   44 1
  47   26   45 1
  48   27   28 1
  49   28   46 1
  50   28   47 1
  51   28   48 1

#	End of record

