#	Name: ASD01910404
#	Creating user name:	WinNT
#	Creation time:	15. 06. 2019 19:55

#	Modifying user name:	WinNT
#	Modification time:	15. 06. 2019 19:55

#	Program:	/corina/corina34_cracker 3.40 0067  02.08.2006

@<TRIPOS>MOLECULE
ASD01910404
  53   56    0    0    0
SMALL
NO_CHARGES


@<TRIPOS>ATOM
   1 C1             0.9311     1.6261    -0.9840 C.ar    
   2 C2             0.8152     0.2071    -0.8306 C.1     
   3 C3             0.7202    -0.9563    -0.7048 C.1     
   4 C4             0.6043    -2.3753    -0.5514 C.ar    
   5 C5             1.3212    -3.2315    -1.3947 C.ar    
   6 C6             1.2106    -4.5847    -1.2476 C.ar    
   7 C7             0.3812    -5.1147    -0.2546 C.ar    
   8 C8            -0.3357    -4.2600     0.5880 C.ar    
   9 C9            -0.2215    -2.9065     0.4456 C.ar    
  10 C10            0.2621    -6.5776    -0.0961 C.2     
  11 O11           -0.8247    -7.0796     0.1161 O.2     
  12 C12            0.2165     2.4840    -0.1434 C.ar    
  13 C13            0.3335     3.8496    -0.2969 C.ar    
  14 C14            1.1561     4.3708    -1.2802 C.ar    
  15 C15            1.8665     3.5276    -2.1165 C.ar    
  16 C16            1.7640     2.1600    -1.9713 C.ar    
  17 N17            1.3582    -7.3567    -0.1867 N.am    
  18 C18            1.2706    -8.8031     0.0563 C.3     
  19 C19            2.3048    -9.1880     1.1190 C.3     
  20 C20            3.6886    -8.7077     0.6759 C.3     
  21 C21            3.6816    -7.1835     0.5385 C.3     
  22 C22            2.6621    -6.7767    -0.5363 C.3     
  23 N23            4.6880    -9.1042     1.6769 N.3     
  24 C24            4.7792   -10.5722     1.7797 C.3     
  25 C25            6.2481   -10.9592     1.5078 C.3     
  26 C26            7.0189    -9.6512     1.8271 C.3     
  27 C27            6.0236    -8.5726     1.3316 C.3     
  28 H28            1.9616    -2.8222    -2.1620 H       
  29 H29            1.7636    -5.2456    -1.8986 H       
  30 H30           -0.9767    -4.6700     1.3543 H       
  31 H31           -0.7752    -2.2463     1.0968 H       
  32 H32           -0.4261     2.0787     0.6241 H       
  33 H33           -0.2184     4.5138     0.3516 H       
  34 H34            1.2438     5.4410    -1.3956 H       
  35 H35            2.5062     3.9416    -2.8819 H       
  36 H36            2.3192     1.5031    -2.6245 H       
  37 H37            0.2711    -9.0541     0.4113 H       
  38 H38            1.4785    -9.3422    -0.8679 H       
  39 H39            2.0434    -8.7190     2.0676 H       
  40 H40            2.3169   -10.2712     1.2393 H       
  41 H41            3.9388    -9.1578    -0.2848 H       
  42 H42            3.4073    -6.7334     1.4925 H       
  43 H43            4.6738    -6.8401     0.2455 H       
  44 H44            2.9859    -7.1510    -1.5074 H       
  45 H45            2.5802    -5.6903    -0.5698 H       
  46 H46            4.4906   -10.8925     2.7809 H       
  47 H47            4.1299   -11.0370     1.0378 H       
  48 H48            6.5638   -11.7643     2.1713 H       
  49 H49            6.3852   -11.2423     0.4642 H       
  50 H50            7.1979    -9.5549     2.8980 H       
  51 H51            7.9550    -9.6039     1.2706 H       
  52 H52            6.1125    -8.4409     0.2533 H       
  53 H53            6.2007    -7.6280     1.8459 H       
@<TRIPOS>BOND
   1    1    2 1
   2    1   12 ar
   3    1   16 ar
   4    2    3 3
   5    3    4 1
   6    4    5 ar
   7    4    9 ar
   8    5    6 ar
   9    5   28 1
  10    6    7 ar
  11    6   29 1
  12    7    8 ar
  13    7   10 1
  14    8    9 ar
  15    8   30 1
  16    9   31 1
  17   10   11 2
  18   10   17 am
  19   12   13 ar
  20   12   32 1
  21   13   14 ar
  22   13   33 1
  23   14   15 ar
  24   14   34 1
  25   15   16 ar
  26   15   35 1
  27   16   36 1
  28   17   18 1
  29   17   22 1
  30   18   19 1
  31   18   37 1
  32   18   38 1
  33   19   20 1
  34   19   39 1
  35   19   40 1
  36   20   21 1
  37   20   23 1
  38   20   41 1
  39   21   22 1
  40   21   42 1
  41   21   43 1
  42   22   44 1
  43   22   45 1
  44   23   24 1
  45   23   27 1
  46   24   25 1
  47   24   46 1
  48   24   47 1
  49   25   26 1
  50   25   48 1
  51   25   49 1
  52   26   27 1
  53   26   50 1
  54   26   51 1
  55   27   52 1
  56   27   53 1

#	End of record

