#	Name: ASD01410745
#	Creating user name:	WinNT
#	Creation time:	15. 06. 2019 19:18

#	Modifying user name:	WinNT
#	Modification time:	15. 06. 2019 19:18

#	Program:	/corina/corina34_cracker 3.40 0067  02.08.2006

@<TRIPOS>MOLECULE
ASD01410745
 103  110    0    0    0
SMALL
NO_CHARGES


@<TRIPOS>ATOM
   1 O1             1.8485     2.3316     1.7869 O.3     
   2 C2             0.1646    -0.3524     2.7780 C.3     
   3 C3             1.6103    -0.0276     2.3431 C.3     
   4 N4             2.2338     0.4774     3.5793 N.am    
   5 C5             1.7254    -0.3633     4.6713 C.3     
   6 C6             0.3586    -0.9108     4.2096 C.3     
   7 O7            -0.6361     0.8310     2.7997 O.3     
   8 C8             2.6766    -1.5029     4.9306 C.2     
   9 O9             3.6878    -1.6112     4.2698 O.2     
  10 N10            2.4036    -2.4020     5.8969 N.am    
  11 C11            1.6282     1.0283     1.2504 C.3     
  12 C12            3.1008     2.4700     2.4747 C.3     
  13 C13            3.0537     1.5398     3.6719 C.2     
  14 O14            3.7217     1.7440     4.6634 O.2     
  15 C15            3.2614    -3.5773     6.0674 C.3     
  16 C16            3.2534    -4.5592     4.9242 C.2     
  17 N17            2.3961    -4.3915     3.8979 N.am    
  18 O18            4.0184    -5.5003     4.9278 O.2     
  19 S19            2.4764    -5.3912     2.5802 S.o2    
  20 C20            2.0372    -7.0283     3.2266 C.3     
  21 C21            4.5759    -3.3882     6.8271 C.3     
  22 C22            3.4147    -4.1408     7.4816 C.3     
  23 C23            2.1322    -8.2157     2.2665 C.3     
  24 C24            3.1640    -8.0512     3.3841 C.3     
  25 O25            1.4602    -4.9089     1.7119 O.2     
  26 O26            3.8444    -5.3570     2.1971 O.2     
  27 C27            5.7816    -4.2109     6.3684 C.3     
  28 C28            7.0185    -3.7908     7.1649 C.3     
  29 C29           -1.9787     0.6678     2.6993 C.ar    
  30 C30           -2.8474     1.7842     2.6949 C.ar    
  31 C31           -2.5293    -0.5824     2.5936 C.ar    
  32 C32           -3.9199    -0.7242     2.4911 C.ar    
  33 N33           -4.7238     0.3256     2.4931 N.ar    
  34 C34           -4.2439     1.5697     2.5884 C.ar    
  35 C35           -4.5011    -2.0783     2.3777 C.2     
  36 C36           -5.1089     2.6778     2.5899 C.ar    
  37 C37           -4.5866     3.9481     2.6896 C.ar    
  38 C38           -3.2067     4.1474     2.7887 C.ar    
  39 C39           -2.3484     3.0910     2.7945 C.ar    
  40 Cl40          -6.8250     2.4463     2.4664 Cl      
  41 O41           -5.4220     5.0197     2.6911 O.3     
  42 C42           -4.8200     6.3114     2.7970 C.3     
  43 N43           -5.7710    -2.3497     2.2764 N.2     
  44 C44           -6.1059    -3.6139     2.1846 C.2     
  45 C45           -5.0925    -4.4892     2.2060 C.2     
  46 S46           -3.5869    -3.5842     2.3502 S.3     
  47 C47           -7.5419    -4.0547     2.0632 C.3     
  48 C48           -7.8934    -4.2464     0.5865 C.3     
  49 C49           -7.7344    -5.3767     2.8090 C.3     
  50 C50           -5.9101     7.3849     2.7822 C.3     
  51 N51           -6.7489     7.2475     3.9804 N.3     
  52 C52           -7.6539     8.3971     4.1245 C.3     
  53 C53           -8.5484     8.1851     5.3488 C.3     
  54 O54           -7.7284     7.9933     6.5047 O.3     
  55 C55           -6.8351     6.8815     6.3988 C.3     
  56 C56           -5.9231     7.0803     5.1852 C.3     
  57 H57           -0.2765    -1.1039     2.1232 H       
  58 H58            2.1159    -0.9337     2.0092 H       
  59 H59            1.6022     0.2334     5.5751 H       
  60 H60           -0.4342    -0.5527     4.8664 H       
  61 H61            0.3735    -2.0006     4.1921 H       
  62 H62            1.6392    -2.2708     6.4795 H       
  63 H63            0.6722     1.0154     0.7269 H       
  64 H64            2.4238     0.7951     0.5427 H       
  65 H65            3.9208     2.1861     1.8150 H       
  66 H66            3.2301     3.4996     2.8084 H       
  67 H67            1.7321    -3.6852     3.9311 H       
  68 H68            1.2372    -7.0423     3.9668 H       
  69 H69            4.8026    -2.3894     7.2001 H       
  70 H70            2.8776    -3.6369     8.2852 H       
  71 H71            3.5101    -5.2217     7.5852 H       
  72 H72            1.3949    -9.0111     2.3753 H       
  73 H73            2.4586    -8.0132     1.2464 H       
  74 H74            4.1693    -7.7405     3.0994 H       
  75 H75            3.1056    -8.7383     4.2282 H       
  76 H76            5.5840    -5.2697     6.5359 H       
  77 H77            5.9570    -4.0376     5.3066 H       
  78 H78            7.8775    -4.3769     6.8380 H       
  79 H79            7.2162    -2.7320     6.9974 H       
  80 H80            6.8432    -3.9642     8.2266 H       
  81 H81           -1.8938    -1.4557     2.5890 H       
  82 H82           -2.8170     5.1517     2.8656 H       
  83 H83           -1.2844     3.2591     2.8719 H       
  84 H84           -4.2595     6.3757     3.7296 H       
  85 H85           -4.1448     6.4677     1.9558 H       
  86 H86           -5.1820    -5.5636     2.1413 H       
  87 H87           -8.1929    -3.2952     2.4961 H       
  88 H88           -8.9321    -4.5652     0.4987 H       
  89 H89           -7.7563    -3.3045     0.0552 H       
  90 H90           -7.2424    -5.0059     0.1536 H       
  91 H91           -7.4839    -5.2402     3.8610 H       
  92 H92           -8.7730    -5.6955     2.7212 H       
  93 H93           -7.0833    -6.1362     2.3761 H       
  94 H94           -5.4479     8.3720     2.7734 H       
  95 H95           -6.5266     7.2644     1.8914 H       
  96 H96           -7.0683     9.3072     4.2549 H       
  97 H97           -8.2734     8.4868     3.2322 H       
  98 H98           -9.1816     9.0606     5.4929 H       
  99 H99           -9.1728     7.3049     5.1953 H       
 100 H100          -6.2291     6.8142     7.3023 H       
 101 H101          -7.4096     5.9634     6.2758 H       
 102 H102          -5.2793     6.2088     5.0671 H       
 103 H103          -5.3099     7.9694     5.3324 H       
@<TRIPOS>BOND
   1    1   11 1
   2    1   12 1
   3    2    3 1
   4    2    7 1
   5    2    6 1
   6    2   57 1
   7    3    4 1
   8    3   11 1
   9    3   58 1
  10    4    5 1
  11    4   13 am
  12    5    6 1
  13    5    8 1
  14    5   59 1
  15    6   60 1
  16    6   61 1
  17    7   29 1
  18    8    9 2
  19    8   10 am
  20   10   15 1
  21   10   62 1
  22   11   63 1
  23   11   64 1
  24   12   13 1
  25   12   65 1
  26   12   66 1
  27   13   14 2
  28   15   16 1
  29   15   21 1
  30   15   22 1
  31   16   17 am
  32   16   18 2
  33   17   19 am
  34   17   67 1
  35   19   20 1
  36   19   25 2
  37   19   26 2
  38   20   23 1
  39   20   24 1
  40   20   68 1
  41   21   22 1
  42   21   27 1
  43   21   69 1
  44   22   70 1
  45   22   71 1
  46   23   24 1
  47   23   72 1
  48   23   73 1
  49   24   74 1
  50   24   75 1
  51   27   28 1
  52   27   76 1
  53   27   77 1
  54   28   78 1
  55   28   79 1
  56   28   80 1
  57   29   30 ar
  58   29   31 ar
  59   30   34 ar
  60   30   39 ar
  61   31   32 ar
  62   31   81 1
  63   32   33 ar
  64   32   35 1
  65   33   34 ar
  66   34   36 ar
  67   35   43 2
  68   35   46 1
  69   36   37 ar
  70   36   40 1
  71   37   38 ar
  72   37   41 1
  73   38   39 ar
  74   38   82 1
  75   39   83 1
  76   41   42 1
  77   42   50 1
  78   42   84 1
  79   42   85 1
  80   43   44 1
  81   44   45 2
  82   44   47 1
  83   45   46 1
  84   45   86 1
  85   47   48 1
  86   47   49 1
  87   47   87 1
  88   48   88 1
  89   48   89 1
  90   48   90 1
  91   49   91 1
  92   49   92 1
  93   49   93 1
  94   50   51 1
  95   50   94 1
  96   50   95 1
  97   51   52 1
  98   51   56 1
  99   52   53 1
 100   52   96 1
 101   52   97 1
 102   53   54 1
 103   53   98 1
 104   53   99 1
 105   54   55 1
 106   55   56 1
 107   55  100 1
 108   55  101 1
 109   56  102 1
 110   56  103 1

#	End of record

