#	Name: ASD02198220
#	Creating user name:	WinNT
#	Creation time:	15. 06. 2019 20:19

#	Modifying user name:	WinNT
#	Modification time:	15. 06. 2019 20:19

#	Program:	/corina/corina34_cracker 3.40 0067  02.08.2006

@<TRIPOS>MOLECULE
ASD02198220
  49   52    0    0    0
SMALL
NO_CHARGES


@<TRIPOS>ATOM
   1 C1            -0.0166     1.3753     0.0096 C.2     
   2 C2             0.0021    -0.0041     0.0020 C.2     
   3 C3            -1.1878    -0.8008     0.0087 C.1     
   4 S4             1.5675     2.0054    -0.0021 S.3     
   5 C5             2.2772     0.3990    -0.0175 C.2     
   6 C6             1.2824    -0.5520    -0.0131 C.2     
   7 C7             3.6579     0.1249    -0.0329 C.2     
   8 C8             4.6307     1.2351    -0.0365 C.2     
   9 O9             4.0505    -1.0301    -0.0433 O.2     
  10 N10            1.5294    -1.9154    -0.0219 N.pl3   
  11 N11           -1.1593     2.1393     0.0194 N.pl3   
  12 N12           -2.1317    -1.4328     0.0139 N.1     
  13 C13           -1.0630     3.6011     0.0268 C.3     
  14 C14           -2.4477     4.1957     0.0368 C.ar    
  15 C15            5.9935     1.1304    -0.0508 C.2     
  16 C16            6.4372     2.4802    -0.0486 C.2     
  17 O17            4.3522     2.5521    -0.0324 O.3     
  18 N18            5.3580     3.2224    -0.0341 N.2     
  19 C19            8.1209     4.3201    -0.0562 C.ar    
  20 C20            7.8438     2.9548    -0.0601 C.ar    
  21 C21           -3.0761     4.4615     1.2383 C.ar    
  22 C22           -4.3507     5.0087     1.2468 C.ar    
  23 C23           -4.9914     5.2878     0.0481 C.ar    
  24 C24           -4.3589     5.0202    -1.1503 C.ar    
  25 C25           -3.0860     4.4799    -1.1561 C.ar    
  26 O26           -4.9710     5.2707     2.4273 O.3     
  27 C27           -6.2825     5.8341     2.3599 C.3     
  28 C28            9.4305     4.7560    -0.0664 C.ar    
  29 C29           10.4668     3.8399    -0.0809 C.ar    
  30 C30           10.1973     2.4832    -0.0843 C.ar    
  31 C31            8.8913     2.0365    -0.0742 C.ar    
  32 H32            2.4424    -2.2428    -0.0317 H       
  33 H33            0.7893    -2.5424    -0.0182 H       
  34 H34           -2.0294     1.7105     0.0213 H       
  35 H35           -0.5221     3.9251     0.9159 H       
  36 H36           -0.5308     3.9347    -0.8640 H       
  37 H37            6.5928     0.2319    -0.0607 H       
  38 H38            7.3125     5.0362    -0.0497 H       
  39 H39           -2.5755     4.2430     2.1700 H       
  40 H40           -5.9839     5.7136     0.0522 H       
  41 H41           -4.8573     5.2370    -2.0836 H       
  42 H42           -2.5930     4.2717    -2.0941 H       
  43 H43           -6.6619     5.9932     3.3693 H       
  44 H44           -6.2419     6.7872     1.8325 H       
  45 H45           -6.9442     5.1517     1.8264 H       
  46 H46            9.6465     5.8141    -0.0634 H       
  47 H47           11.4901     4.1852    -0.0896 H       
  48 H48           11.0101     1.7722    -0.0956 H       
  49 H49            8.6820     0.9770    -0.0769 H       
@<TRIPOS>BOND
   1    1    2 2
   2    1    4 1
   3    1   11 1
   4    2    3 1
   5    2    6 1
   6    3   12 3
   7    4    5 1
   8    5    6 2
   9    5    7 1
  10    6   10 1
  11    7    8 1
  12    7    9 2
  13    8   15 2
  14    8   17 1
  15   10   32 1
  16   10   33 1
  17   11   13 1
  18   11   34 1
  19   13   14 1
  20   13   35 1
  21   13   36 1
  22   14   21 ar
  23   14   25 ar
  24   15   16 1
  25   15   37 1
  26   16   18 2
  27   16   20 1
  28   17   18 1
  29   19   20 ar
  30   19   28 ar
  31   19   38 1
  32   20   31 ar
  33   21   22 ar
  34   21   39 1
  35   22   23 ar
  36   22   26 1
  37   23   24 ar
  38   23   40 1
  39   24   25 ar
  40   24   41 1
  41   25   42 1
  42   26   27 1
  43   27   43 1
  44   27   44 1
  45   27   45 1
  46   28   29 ar
  47   28   46 1
  48   29   30 ar
  49   29   47 1
  50   30   31 ar
  51   30   48 1
  52   31   49 1

#	End of record

