#	Name: ASD01913265
#	Creating user name:	WinNT
#	Creation time:	15. 06. 2019 20:01

#	Modifying user name:	WinNT
#	Modification time:	15. 06. 2019 20:01

#	Program:	/corina/corina34_cracker 3.40 0067  02.08.2006

@<TRIPOS>MOLECULE
ASD01913265
  41   44    0    0    0
SMALL
NO_CHARGES


@<TRIPOS>ATOM
   1 C1             0.1508     1.3718     1.4493 C.ar    
   2 C2             0.1689    -0.0109     1.4381 C.ar    
   3 N3             1.2800    -0.6714     1.1848 N.ar    
   4 C4             2.4225    -0.0405     0.9308 C.ar    
   5 C5             2.4750     1.3559     0.9262 C.ar    
   6 C6             1.3215     2.0719     1.1893 C.ar    
   7 C7             3.6076    -0.7974     0.6604 C.1     
   8 C8             4.5793    -1.4179     0.4388 C.1     
   9 C9             5.7645    -2.1747     0.1684 C.ar    
  10 C10            6.9695    -1.5183    -0.0996 C.ar    
  11 C11            8.1126    -2.2473    -0.3604 C.ar    
  12 C12            8.0747    -3.6275    -0.3586 C.ar    
  13 C13            6.8775    -4.2969    -0.0929 C.ar    
  14 C14            5.7212    -3.5692     0.1773 C.ar    
  15 C15            6.8397    -5.7751    -0.0921 C.2     
  16 N16            5.6608    -6.4190     0.0169 N.am    
  17 O17            7.8719    -6.4095    -0.1899 O.2     
  18 C18            5.4440    -7.8663    -0.0764 C.3     
  19 C19            3.9693    -8.1217     0.1070 C.ar    
  20 C20            3.3277    -6.9144     0.2992 C.ar    
  21 C21            4.3502    -5.8070     0.2579 C.3     
  22 C22            3.2409    -9.2990     0.1079 C.ar    
  23 C23            1.8732    -9.2674     0.3003 C.ar    
  24 C24            1.2308    -8.0584     0.4928 C.ar    
  25 C25            1.9572    -6.8834     0.4928 C.ar    
  26 H26           -0.7671     1.9028     1.6543 H       
  27 H27           -0.7407    -0.5569     1.6401 H       
  28 H28            3.4030     1.8686     0.7206 H       
  29 H29            1.3310     3.1518     1.1927 H       
  30 H30            7.0062    -0.4390    -0.1030 H       
  31 H31            9.0409    -1.7354    -0.5672 H       
  32 H32            8.9728    -4.1912    -0.5635 H       
  33 H33            4.7932    -4.0819     0.3833 H       
  34 H34            5.7622    -8.2252    -1.0551 H       
  35 H35            6.0071    -8.3754     0.7058 H       
  36 H36            4.3542    -5.2722     1.2077 H       
  37 H37            4.1163    -5.1182    -0.5539 H       
  38 H38            3.7425   -10.2435    -0.0425 H       
  39 H39            1.3062   -10.1866     0.3001 H       
  40 H40            0.1616    -8.0327     0.6434 H       
  41 H41            1.4552    -5.9391     0.6432 H       
@<TRIPOS>BOND
   1    1    2 ar
   2    1    6 ar
   3    1   26 1
   4    2    3 ar
   5    2   27 1
   6    3    4 ar
   7    4    5 ar
   8    4    7 1
   9    5    6 ar
  10    5   28 1
  11    6   29 1
  12    7    8 3
  13    8    9 1
  14    9   10 ar
  15    9   14 ar
  16   10   11 ar
  17   10   30 1
  18   11   12 ar
  19   11   31 1
  20   12   13 ar
  21   12   32 1
  22   13   14 ar
  23   13   15 1
  24   14   33 1
  25   15   16 am
  26   15   17 2
  27   16   18 1
  28   16   21 1
  29   18   19 1
  30   18   34 1
  31   18   35 1
  32   19   20 ar
  33   19   22 ar
  34   20   21 1
  35   20   25 ar
  36   21   36 1
  37   21   37 1
  38   22   23 ar
  39   22   38 1
  40   23   24 ar
  41   23   39 1
  42   24   25 ar
  43   24   40 1
  44   25   41 1

#	End of record

