#	Name: ASD01910565
#	Creating user name:	WinNT
#	Creation time:	15. 06. 2019 19:56

#	Modifying user name:	WinNT
#	Modification time:	15. 06. 2019 19:56

#	Program:	/corina/corina34_cracker 3.40 0067  02.08.2006

@<TRIPOS>MOLECULE
ASD01910565
  41   44    0    0    0
SMALL
NO_CHARGES


@<TRIPOS>ATOM
   1 O1             0.1343     0.6476    -0.2426 O.3     
   2 C2             0.2874    -0.6869    -0.2046 C.2     
   3 N3             1.5916    -0.9161    -0.1533 N.2     
   4 C4             2.1691     0.2942    -0.1626 C.2     
   5 N5             1.2218     1.1839    -0.2175 N.2     
   6 C6            -0.7812    -1.6941    -0.2171 C.2     
   7 C7            -2.1350    -1.4433    -0.2706 C.2     
   8 C8            -2.7856    -2.6843    -0.2626 C.2     
   9 C9            -1.8371    -3.6491    -0.2056 C.2     
  10 N10           -0.6117    -3.0580    -0.1834 N.pl3   
  11 C11            3.9747     1.4079     1.1252 C.3     
  12 C12            3.6494     0.5734    -0.1176 C.3     
  13 C13            4.0611     1.3496    -1.3705 C.3     
  14 C14            5.5698     1.6051    -1.3416 C.3     
  15 C15            5.9169     2.4513    -0.1127 C.3     
  16 N16            5.3954     1.7805     1.0860 N.am    
  17 C17            6.2049     1.5118     2.1295 C.2     
  18 C18            5.6418     0.9562     3.3772 C.ar    
  19 O19            7.3983     1.7267     2.0441 O.2     
  20 C20            6.3114    -0.0536     4.0687 C.ar    
  21 N21            5.8107    -0.5499     5.1811 N.ar    
  22 C22            4.6675    -0.1184     5.6843 C.ar    
  23 C23            3.9424     0.8836     5.0555 C.ar    
  24 C24            4.4294     1.4392     3.8881 C.ar    
  25 F25           -4.1213    -2.8828    -0.3037 F       
  26 F26            4.1974    -0.6616     6.8285 F       
  27 H27           -2.6062    -0.4723    -0.3108 H       
  28 H28           -2.0225    -4.7129    -0.1852 H       
  29 H29            0.2395    -3.5215    -0.1437 H       
  30 H30            3.3607     2.3085     1.1316 H       
  31 H31            3.7755     0.8210     2.0219 H       
  32 H32            4.1966    -0.3684    -0.0769 H       
  33 H33            3.8082     0.7685    -2.2573 H       
  34 H34            3.5320     2.3022    -1.3978 H       
  35 H35            6.0989     0.6535    -1.2894 H       
  36 H36            5.8660     2.1375    -2.2454 H       
  37 H37            6.9992     2.5528    -0.0329 H       
  38 H38            5.4613     3.4370    -0.2073 H       
  39 H39            7.2486    -0.4321     3.6882 H       
  40 H40            3.0093     1.2282     5.4762 H       
  41 H41            3.8858     2.2207     3.3781 H       
@<TRIPOS>BOND
   1    1    2 1
   2    1    5 1
   3    2    3 2
   4    2    6 1
   5    3    4 1
   6    4    5 2
   7    4   12 1
   8    6    7 2
   9    6   10 1
  10    7    8 1
  11    7   27 1
  12    8    9 2
  13    8   25 1
  14    9   10 1
  15    9   28 1
  16   10   29 1
  17   11   12 1
  18   11   16 1
  19   11   30 1
  20   11   31 1
  21   12   13 1
  22   12   32 1
  23   13   14 1
  24   13   33 1
  25   13   34 1
  26   14   15 1
  27   14   35 1
  28   14   36 1
  29   15   16 1
  30   15   37 1
  31   15   38 1
  32   16   17 am
  33   17   18 1
  34   17   19 2
  35   18   20 ar
  36   18   24 ar
  37   20   21 ar
  38   20   39 1
  39   21   22 ar
  40   22   23 ar
  41   22   26 1
  42   23   24 ar
  43   23   40 1
  44   24   41 1

#	End of record

