#	Name: ASD02039135
#	Creating user name:	WinNT
#	Creation time:	15. 06. 2019 20:17

#	Modifying user name:	WinNT
#	Modification time:	15. 06. 2019 20:17

#	Program:	/corina/corina34_cracker 3.40 0067  02.08.2006

@<TRIPOS>MOLECULE
ASD02039135
  35   37    0    0    0
SMALL
NO_CHARGES


@<TRIPOS>ATOM
   1 N1            -0.0162     1.3403     0.0094 N.am    
   2 C2             0.0021    -0.0041     0.0020 C.2     
   3 C3             1.2134    -0.7282    -0.0129 C.2     
   4 C4             2.4006    -0.0732    -0.0203 C.2     
   5 C5             2.3918     1.3908    -0.0128 C.ar    
   6 C6             3.5845     2.1216    -0.0203 C.ar    
   7 C7             3.5421     3.4876    -0.0134 C.ar    
   8 C8             2.3247     4.1566     0.0013 C.ar    
   9 C9             1.1378     3.4566     0.0088 C.ar    
  10 C10            1.1566     2.0655     0.0021 C.ar    
  11 O11           -1.0540    -0.6127     0.0088 O.2     
  12 C12           -1.3006     2.0449     0.0193 C.3     
  13 C13           -1.7343     2.2787     1.4434 C.ar    
  14 C14           -1.3568     3.4362     2.0987 C.ar    
  15 C15           -1.7531     3.6530     3.4042 C.ar    
  16 C16           -2.5306     2.7080     4.0578 C.ar    
  17 C17           -2.9081     1.5474     3.3982 C.ar    
  18 C18           -2.5139     1.3380     2.0908 C.ar    
  19 O19           -2.9213     2.9187     5.3422 O.3     
  20 C20           -3.7204     1.9030     5.9521 C.3     
  21 Br21           5.1545     4.4756    -0.0235 Br      
  22 H22            1.1946    -1.8080    -0.0182 H       
  23 H23            3.3323    -0.6194    -0.0310 H       
  24 H24            4.5348     1.6085    -0.0310 H       
  25 H25            2.3083     5.2365     0.0072 H       
  26 H26            0.1965     3.9859     0.0203 H       
  27 H27           -1.1935     3.0027    -0.4899 H       
  28 H28           -2.0496     1.4421    -0.4943 H       
  29 H29           -0.7512     4.1714     1.5895 H       
  30 H30           -1.4576     4.5571     3.9157 H       
  31 H31           -3.5133     0.8102     3.9048 H       
  32 H32           -2.8115     0.4368     1.5753 H       
  33 H33           -3.1671     0.9640     5.9646 H       
  34 H34           -3.9624     2.1958     6.9738 H       
  35 H35           -4.6412     1.7747     5.3832 H       
@<TRIPOS>BOND
   1    1    2 am
   2    1   10 1
   3    1   12 1
   4    2    3 1
   5    2   11 2
   6    3    4 2
   7    3   22 1
   8    4    5 1
   9    4   23 1
  10    5    6 ar
  11    5   10 ar
  12    6    7 ar
  13    6   24 1
  14    7    8 ar
  15    7   21 1
  16    8    9 ar
  17    8   25 1
  18    9   10 ar
  19    9   26 1
  20   12   13 1
  21   12   27 1
  22   12   28 1
  23   13   14 ar
  24   13   18 ar
  25   14   15 ar
  26   14   29 1
  27   15   16 ar
  28   15   30 1
  29   16   17 ar
  30   16   19 1
  31   17   18 ar
  32   17   31 1
  33   18   32 1
  34   19   20 1
  35   20   33 1
  36   20   34 1
  37   20   35 1

#	End of record

