#	Name: ASD01410649
#	Creating user name:	WinNT
#	Creation time:	15. 06. 2019 19:18

#	Modifying user name:	WinNT
#	Modification time:	15. 06. 2019 19:18

#	Program:	/corina/corina34_cracker 3.40 0067  02.08.2006

@<TRIPOS>MOLECULE
ASD01410649
  86   89    0    0    0
SMALL
NO_CHARGES


@<TRIPOS>ATOM
   1 C1             5.2852     6.5986    -3.4484 C.ar    
   2 C2             5.7086     5.8056    -4.5058 C.ar    
   3 C3             6.3279     4.6000    -4.2406 C.ar    
   4 N4             6.5197     4.1971    -2.9992 N.ar    
   5 C5             6.1303     4.9247    -1.9651 C.ar    
   6 C6             5.5009     6.1480    -2.1576 C.ar    
   7 O7             6.3472     4.4717    -0.7049 O.3     
   8 C8             6.8716     3.2256    -0.5558 C.ar    
   9 C9             8.2455     3.0318    -0.6752 C.ar    
  10 C10            8.7878     1.7688    -0.5252 C.ar    
  11 C11            7.9648     0.6856    -0.2549 C.ar    
  12 C12            6.5792     0.8755    -0.1336 C.ar    
  13 C13            6.0404     2.1572    -0.2808 C.ar    
  14 F14            9.0522     4.0828    -0.9392 F       
  15 N15            8.5118    -0.5878    -0.1047 N.am    
  16 C16            8.8902    -1.0191     1.1148 C.2     
  17 C17            8.6753    -1.4572    -1.2724 C.3     
  18 O18            9.4446    -2.0912     1.2338 O.2     
  19 C19            8.6245    -0.1691     2.3306 C.3     
  20 C20            9.7604    -0.3523     3.3390 C.3     
  21 C21            9.4907     0.5106     4.5734 C.3     
  22 C22            8.1673     0.0860     5.2131 C.3     
  23 C23            7.0314     0.2692     4.2047 C.3     
  24 C24            7.3011    -0.5937     2.9704 C.3     
  25 C25            7.8975     0.9489     6.4475 C.3     
  26 C26            7.9777    -0.8267    -2.4794 C.3     
  27 C27           10.1650    -1.6283    -1.5763 C.3     
  28 C28            5.4946     6.2551    -5.9282 C.3     
  29 O29           10.7907    -2.3395    -0.5064 O.3     
  30 N30            6.6553     7.0371    -6.3746 N.3     
  31 O31            6.5692    -0.7771    -2.2433 O.3     
  32 C32           12.1913    -2.5539    -0.6918 C.3     
  33 C33            5.8200    -0.2023    -3.3158 C.3     
  34 C34            6.5945     7.2911    -7.8196 C.3     
  35 C35            7.7365     8.2266    -8.2229 C.3     
  36 C36            9.0744     7.5789    -7.8555 C.3     
  37 C37            9.0926     7.2806    -6.3538 C.3     
  38 C38            7.9114     6.3724    -6.0046 C.3     
  39 F39           10.2900     6.6387    -6.0196 F       
  40 F40            8.9884     8.4783    -5.6383 F       
  41 C41            5.0595     6.9737    -0.9767 C.3     
  42 F42            4.4568     8.1518    -1.4307 F       
  43 F43            4.1411     6.2438    -0.2145 F       
  44 F44            6.1708     7.2921    -0.1887 F       
  45 C45            5.6980    -0.2690     0.1532 C.2     
  46 O46            6.1763    -1.3653     0.3680 O.2     
  47 O47            4.3610    -0.1005     0.1776 O.3     
  48 H48            4.8023     7.5476    -3.6286 H       
  49 H49            6.6590     3.9791    -5.0599 H       
  50 H50            9.8541     1.6254    -0.6190 H       
  51 H51            4.9753     2.3102    -0.1887 H       
  52 H52            8.2325    -2.4314    -1.0649 H       
  53 H53            8.5658     0.8786     2.0357 H       
  54 H54            9.8191    -1.4000     3.6339 H       
  55 H55           10.7032    -0.0498     2.8832 H       
  56 H56           10.2999     0.3802     5.2918 H       
  57 H57            9.4320     1.5584     4.2785 H       
  58 H58            8.2260    -0.9617     5.5080 H       
  59 H59            6.0886    -0.0333     4.6605 H       
  60 H60            6.9727     1.3169     3.9098 H       
  61 H61            6.4919    -0.4633     2.2519 H       
  62 H62            7.3598    -1.6414     3.2653 H       
  63 H63            7.8389     1.9966     6.1526 H       
  64 H64            6.9547     0.6464     6.9032 H       
  65 H65            8.7068     0.8185     7.1659 H       
  66 H66            8.3565     0.1841    -2.6309 H       
  67 H67            8.1763    -1.4261    -3.3679 H       
  68 H68           10.2846    -2.1883    -2.5038 H       
  69 H69           10.6293    -0.6478    -1.6814 H       
  70 H70            5.3753     5.3828    -6.5709 H       
  71 H71            4.5978     6.8723    -5.9831 H       
  72 H72           12.3531    -3.1331    -1.6009 H       
  73 H73           12.6977    -1.5926    -0.7785 H       
  74 H74           12.5916    -3.0996     0.1627 H       
  75 H75            5.9738    -0.7887    -4.2216 H       
  76 H76            4.7606    -0.2011    -3.0592 H       
  77 H77            6.1540     0.8214    -3.4846 H       
  78 H78            6.6898     6.3483    -8.3584 H       
  79 H79            5.6399     7.7556    -8.0669 H       
  80 H80            7.7004     8.4025    -9.2981 H       
  81 H81            7.6339     9.1747    -7.6949 H       
  82 H82            9.1946     6.6500    -8.4129 H       
  83 H83            9.8887     8.2604    -8.1014 H       
  84 H84            7.9133     6.1697    -4.9336 H       
  85 H85            8.0006     5.4340    -6.5519 H       
  86 H86            3.8236    -0.8810     0.3703 H       
@<TRIPOS>BOND
   1    1    2 ar
   2    1    6 ar
   3    1   48 1
   4    2    3 ar
   5    2   28 1
   6    3    4 ar
   7    3   49 1
   8    4    5 ar
   9    5    6 ar
  10    5    7 1
  11    6   41 1
  12    7    8 1
  13    8    9 ar
  14    8   13 ar
  15    9   10 ar
  16    9   14 1
  17   10   11 ar
  18   10   50 1
  19   11   12 ar
  20   11   15 1
  21   12   13 ar
  22   12   45 1
  23   13   51 1
  24   15   16 am
  25   15   17 1
  26   16   18 2
  27   16   19 1
  28   17   26 1
  29   17   27 1
  30   17   52 1
  31   19   20 1
  32   19   24 1
  33   19   53 1
  34   20   21 1
  35   20   54 1
  36   20   55 1
  37   21   22 1
  38   21   56 1
  39   21   57 1
  40   22   23 1
  41   22   25 1
  42   22   58 1
  43   23   24 1
  44   23   59 1
  45   23   60 1
  46   24   61 1
  47   24   62 1
  48   25   63 1
  49   25   64 1
  50   25   65 1
  51   26   31 1
  52   26   66 1
  53   26   67 1
  54   27   29 1
  55   27   68 1
  56   27   69 1
  57   28   30 1
  58   28   70 1
  59   28   71 1
  60   29   32 1
  61   30   34 1
  62   30   38 1
  63   31   33 1
  64   32   72 1
  65   32   73 1
  66   32   74 1
  67   33   75 1
  68   33   76 1
  69   33   77 1
  70   34   35 1
  71   34   78 1
  72   34   79 1
  73   35   36 1
  74   35   80 1
  75   35   81 1
  76   36   37 1
  77   36   82 1
  78   36   83 1
  79   37   38 1
  80   37   39 1
  81   37   40 1
  82   38   84 1
  83   38   85 1
  84   41   42 1
  85   41   43 1
  86   41   44 1
  87   45   46 2
  88   45   47 1
  89   47   86 1

#	End of record

