#	Name: ASD02198121
#	Creating user name:	WinNT
#	Creation time:	15. 06. 2019 20:18

#	Modifying user name:	WinNT
#	Modification time:	15. 06. 2019 20:18

#	Program:	/corina/corina34_cracker 3.40 0067  02.08.2006

@<TRIPOS>MOLECULE
ASD02198121
  40   42    0    0    0
SMALL
NO_CHARGES


@<TRIPOS>ATOM
   1 C1             0.5519     1.3817    -0.6363 C.2     
   2 C2             0.4617     0.0083    -0.5476 C.2     
   3 C3            -0.7730    -0.6796    -0.3170 C.1     
   4 S4             2.1618     1.8688    -0.9148 S.3     
   5 C5             2.7338     0.2082    -0.9141 C.2     
   6 C6             1.6797    -0.6494    -0.7025 C.2     
   7 C7             4.0719    -0.1862    -1.1021 C.2     
   8 C8             5.0959     0.8194    -1.4639 C.ar    
   9 O9             4.3874    -1.3562    -0.9668 O.2     
  10 N10            1.8156    -2.0277    -0.6489 N.pl3   
  11 N11           -0.5147     2.2425    -0.5215 N.pl3   
  12 N12           -1.7524    -1.2253    -0.1341 N.1     
  13 C13            4.7411     1.9424    -2.2121 C.ar    
  14 C14           -0.2991     3.6252    -0.5026 C.ar    
  15 C15           -1.2129     4.4793    -1.1063 C.ar    
  16 C16            5.6999     2.8769    -2.5461 C.ar    
  17 C17            7.0110     2.7023    -2.1415 C.ar    
  18 C18            7.3703     1.5898    -1.3991 C.ar    
  19 C19            6.4189     0.6510    -1.0533 C.ar    
  20 C20           -0.9994     5.8433    -1.0872 C.ar    
  21 C21            0.1275     6.3608    -0.4652 C.ar    
  22 C22            1.0407     5.5085     0.1381 C.ar    
  23 C23            0.8259     4.1445     0.1249 C.ar    
  24 O24            0.3372     7.7042    -0.4472 O.3     
  25 C25            1.5180     8.1677     0.2108 C.3     
  26 Cl26           9.0186     1.3787    -0.8967 Cl      
  27 H27            2.6890    -2.4337    -0.7635 H       
  28 H28            1.0372    -2.5862    -0.4968 H       
  29 H29           -1.4163     1.8913    -0.4537 H       
  30 H30            3.7180     2.0799    -2.5294 H       
  31 H31           -2.0901     4.0766    -1.5909 H       
  32 H32            5.4260     3.7464    -3.1252 H       
  33 H33            7.7577     3.4365    -2.4059 H       
  34 H34            6.6997    -0.2164    -0.4743 H       
  35 H35           -1.7097     6.5076    -1.5569 H       
  36 H36            1.9179     5.9121     0.6219 H       
  37 H37            1.5370     3.4811     0.5946 H       
  38 H38            1.4955     7.8607     1.2564 H       
  39 H39            2.3957     7.7407    -0.2744 H       
  40 H40            1.5634     9.2552     0.1522 H       
@<TRIPOS>BOND
   1    1    2 2
   2    1    4 1
   3    1   11 1
   4    2    3 1
   5    2    6 1
   6    3   12 3
   7    4    5 1
   8    5    6 2
   9    5    7 1
  10    6   10 1
  11    7    8 1
  12    7    9 2
  13    8   13 ar
  14    8   19 ar
  15   10   27 1
  16   10   28 1
  17   11   14 1
  18   11   29 1
  19   13   16 ar
  20   13   30 1
  21   14   15 ar
  22   14   23 ar
  23   15   20 ar
  24   15   31 1
  25   16   17 ar
  26   16   32 1
  27   17   18 ar
  28   17   33 1
  29   18   19 ar
  30   18   26 1
  31   19   34 1
  32   20   21 ar
  33   20   35 1
  34   21   22 ar
  35   21   24 1
  36   22   23 ar
  37   22   36 1
  38   23   37 1
  39   24   25 1
  40   25   38 1
  41   25   39 1
  42   25   40 1

#	End of record

