#	Name: ASD09380014
#	Creating user name:	WinNT
#	Creation time:	15. 06. 2019 21:21

#	Modifying user name:	WinNT
#	Modification time:	15. 06. 2019 21:21

#	Program:	/corina/corina34_cracker 3.40 0067  02.08.2006

@<TRIPOS>MOLECULE
ASD09380014
  63   67    0    0    0
SMALL
NO_CHARGES


@<TRIPOS>ATOM
   1 C1            -0.0184     1.5028     0.0103 C.2     
   2 C2             0.0021    -0.0041     0.0020 C.3     
   3 C3             1.4513    -0.4944    -0.0145 C.3     
   4 O4             1.0197     2.1211     0.0037 O.2     
   5 O5            -1.1898     2.1580     0.0194 O.3     
   6 C6            -0.7241    -0.5171    -1.2431 C.3     
   7 C7             2.3946    -6.0815    -2.3253 C.3     
   8 C8             2.5586    -6.8133    -0.9870 C.3     
   9 C9             1.5037    -6.2798    -0.0147 C.3     
  10 C10            1.5072    -4.7723    -0.0387 C.ar    
  11 C11            2.0900    -4.0688    -1.0786 C.ar    
  12 O12            2.6904    -4.6991    -2.1215 O.3     
  13 C13            2.0686    -2.6780    -1.0670 C.ar    
  14 C14            1.4717    -2.0012    -0.0227 C.ar    
  15 C15            0.8930    -2.7065     1.0159 C.ar    
  16 C16            0.9113    -4.0879     1.0071 C.ar    
  17 C17            5.0952    -7.7233    -5.2047 C.ar    
  18 C18            3.7552    -8.1054    -5.2053 C.ar    
  19 C19            2.8877    -7.5720    -4.2737 C.ar    
  20 C20            3.3465    -6.6601    -3.3403 C.ar    
  21 C21            4.6755    -6.2768    -3.3354 C.ar    
  22 C22            5.5518    -6.8039    -4.2624 C.ar    
  23 C23            6.0337    -8.2979    -6.1999 C.ar    
  24 C24            6.0951    -9.6794    -6.3881 C.ar    
  25 C25            6.9708   -10.2110    -7.3162 C.ar    
  26 C26            7.7863    -9.3772    -8.0586 C.ar    
  27 C27            7.7308    -8.0026    -7.8762 C.ar    
  28 C28            6.8522    -7.4601    -6.9531 C.ar    
  29 O29            8.5353    -7.1874    -8.6086 O.3     
  30 C30            9.4124    -7.8140    -9.5468 C.3     
  31 F31            5.2996   -10.4965    -5.6637 F       
  32 C32            2.1775     0.0187     1.2307 C.3     
  33 C33            3.6485    -0.3666     1.3996 C.3     
  34 C34            3.2715     1.0689     1.0280 C.3     
  35 H35           -0.4983    -0.3791     0.8948 H       
  36 H36            1.9516    -0.1193    -0.9073 H       
  37 H37           -1.1523     3.1243     0.0245 H       
  38 H38           -1.7565    -0.1678    -1.2314 H       
  39 H39           -0.2237    -0.1421    -2.1359 H       
  40 H40           -0.7093    -1.6070    -1.2491 H       
  41 H41            1.3694    -6.1892    -2.6795 H       
  42 H42            2.4151    -7.8838    -1.1337 H       
  43 H43            3.5551    -6.6273    -0.5863 H       
  44 H44            0.5202    -6.6449    -0.3105 H       
  45 H45            1.7308    -6.6270     0.9932 H       
  46 H46            2.5208    -2.1259    -1.8777 H       
  47 H47            0.4274    -2.1777     1.8344 H       
  48 H48            0.4583    -4.6365     1.8196 H       
  49 H49            3.3959    -8.8174    -5.9336 H       
  50 H50            1.8489    -7.8672    -4.2735 H       
  51 H51            5.0283    -5.5642    -2.6046 H       
  52 H52            6.5893    -6.5040    -4.2577 H       
  53 H53            7.0183   -11.2801    -7.4615 H       
  54 H54            8.4689    -9.7970    -8.7826 H       
  55 H55            6.8054    -6.3900    -6.8144 H       
  56 H56            8.8256    -8.3761   -10.2734 H       
  57 H57            9.9965    -7.0521   -10.0630 H       
  58 H58           10.0840    -8.4917    -9.0198 H       
  59 H59            1.5697     0.0922     2.1325 H       
  60 H60            4.0086    -0.5462     2.4126 H       
  61 H61            4.0989    -0.9856     0.6237 H       
  62 H62            3.4739     1.3943     0.0076 H       
  63 H63            3.3835     1.8337     1.7965 H       
@<TRIPOS>BOND
   1    1    2 1
   2    1    4 2
   3    1    5 1
   4    2    6 1
   5    2    3 1
   6    2   35 1
   7    3   14 1
   8    3   32 1
   9    3   36 1
  10    5   37 1
  11    6   38 1
  12    6   39 1
  13    6   40 1
  14    7    8 1
  15    7   12 1
  16    7   20 1
  17    7   41 1
  18    8    9 1
  19    8   42 1
  20    8   43 1
  21    9   10 1
  22    9   44 1
  23    9   45 1
  24   10   11 ar
  25   10   16 ar
  26   11   12 1
  27   11   13 ar
  28   13   14 ar
  29   13   46 1
  30   14   15 ar
  31   15   16 ar
  32   15   47 1
  33   16   48 1
  34   17   18 ar
  35   17   22 ar
  36   17   23 1
  37   18   19 ar
  38   18   49 1
  39   19   20 ar
  40   19   50 1
  41   20   21 ar
  42   21   22 ar
  43   21   51 1
  44   22   52 1
  45   23   24 ar
  46   23   28 ar
  47   24   25 ar
  48   24   31 1
  49   25   26 ar
  50   25   53 1
  51   26   27 ar
  52   26   54 1
  53   27   28 ar
  54   27   29 1
  55   28   55 1
  56   29   30 1
  57   30   56 1
  58   30   57 1
  59   30   58 1
  60   32   33 1
  61   32   34 1
  62   32   59 1
  63   33   34 1
  64   33   60 1
  65   33   61 1
  66   34   62 1
  67   34   63 1

#	End of record

