#	Name: ASD01884325
#	Creating user name:	WinNT
#	Creation time:	15. 06. 2019 19:48

#	Modifying user name:	WinNT
#	Modification time:	15. 06. 2019 19:48

#	Program:	/corina/corina34_cracker 3.40 0067  02.08.2006

@<TRIPOS>MOLECULE
ASD01884325
  50   52    0    0    0
SMALL
NO_CHARGES


@<TRIPOS>ATOM
   1 C1            -0.0168     1.3884     0.0097 C.2     
   2 C2             0.0021    -0.0041     0.0020 C.2     
   3 C3            -1.2095    -0.6965     0.0104 C.2     
   4 C4            -2.3831    -0.0157     0.0252 C.2     
   5 N5            -2.4093     1.3392     0.0327 N.am    
   6 C6            -1.2693     2.0558     0.0312 C.2     
   7 O7            -1.3129     3.2741     0.0380 O.2     
   8 C8            -3.6983     2.0352     0.0483 C.3     
   9 C9            -4.1338     2.2698     1.4962 C.3     
  10 C10            1.2059     2.1337     0.0020 C.1     
  11 N11            2.1759     2.7249    -0.0041 N.1     
  12 C12            1.3105    -0.7515    -0.0155 C.3     
  13 N13            1.6901    -1.1066     1.3585 N.3     
  14 C14            2.8290    -2.0352     1.3670 C.3     
  15 C15            3.2431    -2.3172     2.8131 C.3     
  16 N16            2.1012    -2.8822     3.5456 N.3     
  17 C17            0.9623    -1.9536     3.5371 C.3     
  18 C18            0.5482    -1.6716     2.0910 C.3     
  19 C19            2.4588    -3.2167     4.8402 C.ar    
  20 C20           -5.4800     2.9967     1.5124 C.3     
  21 C21           -5.9155     3.2312     2.9603 C.3     
  22 N22            1.5488    -3.7420     5.6472 N.ar    
  23 C23            1.8576    -4.0728     6.8902 C.ar    
  24 C24            3.1505    -3.8638     7.3441 C.ar    
  25 C25            4.0774    -3.3126     6.4735 C.ar    
  26 N26            3.7044    -3.0091     5.2412 N.ar    
  27 H27           -1.2130    -1.7765     0.0046 H       
  28 H28           -3.3137    -0.5638     0.0308 H       
  29 H29           -3.5999     2.9937    -0.4613 H       
  30 H30           -4.4456     1.4275    -0.4619 H       
  31 H31           -4.2323     1.3113     2.0058 H       
  32 H32           -3.3866     2.8775     2.0064 H       
  33 H33            1.2023    -1.6595    -0.6087 H       
  34 H34            2.0835    -0.1207    -0.4544 H       
  35 H35            2.5411    -2.9683     0.8826 H       
  36 H36            3.6659    -1.5892     0.8295 H       
  37 H37            4.0692    -3.0283     2.8228 H       
  38 H38            3.5569    -1.3883     3.2893 H       
  39 H39            0.1254    -2.3996     4.0746 H       
  40 H40            1.2502    -1.0205     4.0215 H       
  41 H41           -0.2779    -0.9605     2.0813 H       
  42 H42            0.2344    -2.6005     1.6148 H       
  43 H43           -5.3816     3.9552     1.0028 H       
  44 H44           -6.2273     2.3889     1.0022 H       
  45 H45           -6.8746     3.7491     2.9718 H       
  46 H46           -6.0140     2.2727     3.4699 H       
  47 H47           -5.1683     3.8390     3.4705 H       
  48 H48            1.1114    -4.5003     7.5435 H       
  49 H49            3.4294    -4.1246     8.3543 H       
  50 H50            5.0930    -3.1366     6.7961 H       
@<TRIPOS>BOND
   1    1    2 2
   2    1   10 1
   3    1    6 1
   4    2    3 1
   5    2   12 1
   6    3    4 2
   7    3   27 1
   8    4    5 1
   9    4   28 1
  10    5    6 am
  11    5    8 1
  12    6    7 2
  13    8    9 1
  14    8   29 1
  15    8   30 1
  16    9   20 1
  17    9   31 1
  18    9   32 1
  19   10   11 3
  20   12   13 1
  21   12   33 1
  22   12   34 1
  23   13   14 1
  24   13   18 1
  25   14   15 1
  26   14   35 1
  27   14   36 1
  28   15   16 1
  29   15   37 1
  30   15   38 1
  31   16   17 1
  32   16   19 1
  33   17   18 1
  34   17   39 1
  35   17   40 1
  36   18   41 1
  37   18   42 1
  38   19   22 ar
  39   19   26 ar
  40   20   21 1
  41   20   43 1
  42   20   44 1
  43   21   45 1
  44   21   46 1
  45   21   47 1
  46   22   23 ar
  47   23   24 ar
  48   23   48 1
  49   24   25 ar
  50   24   49 1
  51   25   26 ar
  52   25   50 1

#	End of record

