#	Name: ASD02190001
#	Creating user name:	WinNT
#	Creation time:	15. 06. 2019 20:18

#	Modifying user name:	WinNT
#	Modification time:	15. 06. 2019 20:18

#	Program:	/corina/corina34_cracker 3.40 0067  02.08.2006

@<TRIPOS>MOLECULE
ASD02190001
  47   49    0    0    0
SMALL
NO_CHARGES


@<TRIPOS>ATOM
   1 C1             0.1575     0.7463    -0.0230 C.ar    
   2 C2             0.4175    -0.6123     0.0547 C.ar    
   3 C3             1.7395    -1.0647     0.1054 C.ar    
   4 C4             2.7862    -0.1433     0.0772 C.ar    
   5 C5             2.5111     1.2097    -0.0005 C.ar    
   6 C6             1.2016     1.6519    -0.0503 C.ar    
   7 C7             2.0273    -2.5172     0.1892 C.ar    
   8 C8             1.6852    -3.3600    -0.8666 C.ar    
   9 C9             1.9560    -4.7109    -0.7833 C.ar    
  10 C10            2.5655    -5.2284     0.3452 C.ar    
  11 C11            2.9069    -4.3965     1.3965 C.ar    
  12 C12            2.6463    -3.0435     1.3218 C.ar    
  13 O13           -0.6086    -1.5020     0.0820 O.3     
  14 C14           -1.9326    -0.9672     0.0273 C.3     
  15 F15            4.0665    -0.5719     0.1263 F       
  16 C16            3.6417     2.2056    -0.0304 C.3     
  17 C17            4.1294     2.3695    -1.4469 C.ar    
  18 C18            3.5659     3.3328    -2.2634 C.ar    
  19 C19            4.0106     3.4855    -3.5620 C.ar    
  20 C20            5.0250     2.6708    -4.0474 C.ar    
  21 C21            5.5891     1.7047    -3.2247 C.ar    
  22 C22            5.1433     1.5602    -1.9255 C.ar    
  23 N23            5.4775     2.8228    -5.3629 N.am    
  24 C24            5.5342     4.0493    -5.9186 C.2     
  25 N25            6.0574     4.2074    -7.1506 N.am    
  26 O26            5.1132     5.0132    -5.3086 O.2     
  27 N27            3.5582    -4.9579     2.6013 N.pl3   
  28 O28            3.7930    -6.1513     2.6665 O.2     
  29 O29            3.8593    -4.2265     3.5276 O.2     
  30 H30           -0.8626     1.0982    -0.0668 H       
  31 H31            0.9937     2.7099    -0.1113 H       
  32 H32            1.2089    -2.9570    -1.7481 H       
  33 H33            1.6910    -5.3651    -1.6008 H       
  34 H34            2.7755    -6.2861     0.4060 H       
  35 H35            2.9132    -2.3949     2.1431 H       
  36 H36           -2.6554    -1.7826     0.0567 H       
  37 H37           -2.0937    -0.3080     0.8804 H       
  38 H38           -2.0587    -0.4030    -0.8967 H       
  39 H39            3.2900     3.1661     0.3462 H       
  40 H40            4.4586     1.8468     0.5958 H       
  41 H41            2.7770     3.9661    -1.8854 H       
  42 H42            3.5696     4.2376    -4.1995 H       
  43 H43            6.3780     1.0693    -3.5994 H       
  44 H44            5.5819     0.8092    -1.2851 H       
  45 H45            5.7504     2.0453    -5.8748 H       
  46 H46            6.3932     3.4385    -7.6373 H       
  47 H47            6.0982     5.0902    -7.5505 H       
@<TRIPOS>BOND
   1    1    2 ar
   2    1    6 ar
   3    1   30 1
   4    2    3 ar
   5    2   13 1
   6    3    4 ar
   7    3    7 1
   8    4    5 ar
   9    4   15 1
  10    5    6 ar
  11    5   16 1
  12    6   31 1
  13    7    8 ar
  14    7   12 ar
  15    8    9 ar
  16    8   32 1
  17    9   10 ar
  18    9   33 1
  19   10   11 ar
  20   10   34 1
  21   11   12 ar
  22   11   27 1
  23   12   35 1
  24   13   14 1
  25   14   36 1
  26   14   37 1
  27   14   38 1
  28   16   17 1
  29   16   39 1
  30   16   40 1
  31   17   18 ar
  32   17   22 ar
  33   18   19 ar
  34   18   41 1
  35   19   20 ar
  36   19   42 1
  37   20   21 ar
  38   20   23 1
  39   21   22 ar
  40   21   43 1
  41   22   44 1
  42   23   24 am
  43   23   45 1
  44   24   25 am
  45   24   26 2
  46   25   46 1
  47   25   47 1
  48   27   28 2
  49   27   29 2

#	End of record

