#	Name: ASD03570045
#	Creating user name:	WinNT
#	Creation time:	15. 06. 2019 20:43

#	Modifying user name:	WinNT
#	Modification time:	15. 06. 2019 20:43

#	Program:	/corina/corina34_cracker 3.40 0067  02.08.2006

@<TRIPOS>MOLECULE
ASD03570045
  77   82    0    0    0
SMALL
NO_CHARGES


@<TRIPOS>ATOM
   1 C1            -3.8624    10.5586    -3.3079 C.ar    
   2 C2            -5.9457    11.5603    -2.6560 C.ar    
   3 C3            -4.5994    11.3620    -2.4359 C.ar    
   4 C4            -4.4927     9.9590    -4.3997 C.ar    
   5 C5            -5.8405    10.1580    -4.6098 C.ar    
   6 C6            -6.5710    10.9540    -3.7375 C.ar    
   7 O7            -7.8983    11.1515    -3.9507 O.3     
   8 C8            -8.4780    10.4980    -5.0816 C.3     
   9 F9            -8.3200     9.1140    -4.9521 F       
  10 F10           -9.8406    10.8073    -5.1511 F       
  11 F11           -7.8410    10.9329    -6.2487 F       
  12 C12           -2.4174    10.3483    -3.0792 C.2     
  13 N13           -1.6200     9.6299    -3.8181 N.2     
  14 N14           -0.4086     9.5586    -3.4755 N.2     
  15 C15           -0.0420    10.2089    -2.4068 C.2     
  16 S16           -1.4635    11.0316    -1.7611 S.3     
  17 N17            1.2375    10.2511    -1.8754 N.pl3   
  18 C18            2.2276     9.3911    -2.3651 C.ar    
  19 C19            1.8736     8.2714    -3.1023 C.ar    
  20 C20            2.8533     7.4235    -3.5855 C.ar    
  21 C21            4.1870     7.6881    -3.3361 C.ar    
  22 C22            4.5496     8.8022    -2.6014 C.ar    
  23 C23            3.5743     9.6612    -2.1177 C.ar    
  24 N24            3.9391    10.7926    -1.3794 N.pl3   
  25 C25            4.2023    12.0547    -1.9225 C.ar    
  26 C26            4.4995    12.2763     0.3958 C.3     
  27 C27            4.0955    10.8313     0.0782 C.3     
  28 C28            4.5389    12.9734    -0.9410 C.ar    
  29 C29            4.1677    12.4702    -3.2594 C.ar    
  30 C30            4.4654    13.7791    -3.5899 C.ar    
  31 C31            4.7993    14.6863    -2.6012 C.ar    
  32 C32            4.8385    14.2814    -1.2792 C.ar    
  33 C33            3.4566    12.2180     2.6604 C.3     
  34 C34            3.4602    12.9286     1.3040 C.3     
  35 C35            5.8744    12.3073     1.0589 C.3     
  36 C36            5.7933    11.6164     2.4230 C.3     
  37 N37            4.7956    12.2970     3.2583 N.3     
  38 C38            4.7950    11.7559     4.6241 C.3     
  39 C39            5.0244    10.2440     4.5737 C.3     
  40 C40            6.4631     9.9608     4.1369 C.3     
  41 C41            4.7855     9.6455     5.9614 C.3     
  42 C42            4.0540     9.6140     3.5726 C.3     
  43 Cl43           5.2583    15.4206    -0.0383 Cl      
  44 O44            3.8404    11.5824    -4.2366 O.3     
  45 H45           -6.5166    12.1814    -1.9817 H       
  46 H46           -4.1154    11.8273    -1.5899 H       
  47 H47           -3.9251     9.3403    -5.0791 H       
  48 H48           -6.3289     9.6945    -5.4543 H       
  49 H49            1.4469    10.8766    -1.1641 H       
  50 H50            0.8326     8.0612    -3.2989 H       
  51 H51            2.5756     6.5516    -4.1593 H       
  52 H52            4.9481     7.0226    -3.7158 H       
  53 H53            5.5925     9.0054    -2.4079 H       
  54 H54            3.1528    10.5854     0.5670 H       
  55 H55            4.8780    10.1412     0.3937 H       
  56 H56            4.4375    14.0937    -4.6227 H       
  57 H57            5.0317    15.7085    -2.8611 H       
  58 H58            2.7350    12.6991     3.3207 H       
  59 H59            3.1816    11.1724     2.5221 H       
  60 H60            3.7089    13.9804     1.4448 H       
  61 H61            2.4741    12.8453     0.8469 H       
  62 H62            6.5943    11.7851     0.4287 H       
  63 H63            6.1904    13.3418     1.1932 H       
  64 H64            5.5027    10.5748     2.2860 H       
  65 H65            6.7669    11.6607     2.9111 H       
  66 H66            5.5917    12.2253     5.2012 H       
  67 H67            3.8344    11.9621     5.0962 H       
  68 H68            7.0994    10.8010     4.4150 H       
  69 H69            6.8206     9.0560     4.6284 H       
  70 H70            6.4943     9.8236     3.0560 H       
  71 H71            3.7606     9.8473     6.2726 H       
  72 H72            4.9490     8.5684     5.9255 H       
  73 H73            5.4769    10.0943     6.6746 H       
  74 H74            4.2544    10.0070     2.5758 H       
  75 H75            4.1864     8.5321     3.5699 H       
  76 H76            3.0300     9.8541     3.8587 H       
  77 H77            2.8938    11.5416    -4.4300 H       
@<TRIPOS>BOND
   1    1    4 ar
   2    1   12 1
   3    1    3 ar
   4    2    3 ar
   5    2    6 ar
   6    2   45 1
   7    3   46 1
   8    4    5 ar
   9    4   47 1
  10    5    6 ar
  11    5   48 1
  12    6    7 1
  13    7    8 1
  14    8    9 1
  15    8   10 1
  16    8   11 1
  17   12   13 2
  18   12   16 1
  19   13   14 1
  20   14   15 2
  21   15   16 1
  22   15   17 1
  23   17   18 1
  24   17   49 1
  25   18   19 ar
  26   18   23 ar
  27   19   20 ar
  28   19   50 1
  29   20   21 ar
  30   20   51 1
  31   21   22 ar
  32   21   52 1
  33   22   23 ar
  34   22   53 1
  35   23   24 1
  36   24   25 1
  37   24   27 1
  38   25   29 ar
  39   25   28 ar
  40   26   27 1
  41   26   35 1
  42   26   28 1
  43   26   34 1
  44   27   54 1
  45   27   55 1
  46   28   32 ar
  47   29   30 ar
  48   29   44 1
  49   30   31 ar
  50   30   56 1
  51   31   32 ar
  52   31   57 1
  53   32   43 1
  54   33   34 1
  55   33   37 1
  56   33   58 1
  57   33   59 1
  58   34   60 1
  59   34   61 1
  60   35   36 1
  61   35   62 1
  62   35   63 1
  63   36   37 1
  64   36   64 1
  65   36   65 1
  66   37   38 1
  67   38   39 1
  68   38   66 1
  69   38   67 1
  70   39   40 1
  71   39   41 1
  72   39   42 1
  73   40   68 1
  74   40   69 1
  75   40   70 1
  76   41   71 1
  77   41   72 1
  78   41   73 1
  79   42   74 1
  80   42   75 1
  81   42   76 1
  82   44   77 1

#	End of record

