#	Name: ASD01910468
#	Creating user name:	WinNT
#	Creation time:	15. 06. 2019 19:55

#	Modifying user name:	WinNT
#	Modification time:	15. 06. 2019 19:55

#	Program:	/corina/corina34_cracker 3.40 0067  02.08.2006

@<TRIPOS>MOLECULE
ASD01910468
  41   44    0    0    0
SMALL
NO_CHARGES


@<TRIPOS>ATOM
   1 C1            -0.8524     1.9315     1.0572 C.2     
   2 C2            -0.8689     0.4953     0.6910 C.2     
   3 N3            -1.8828    -0.3754     0.9005 N.2     
   4 C4            -1.4661    -1.5218     0.4234 C.2     
   5 O5            -0.2337    -1.3250    -0.0552 O.3     
   6 N6             0.0924    -0.1670     0.0993 N.2     
   7 C7            -2.2324    -2.8194     0.4159 C.3     
   8 C8            -2.4165    -3.2956    -1.0268 C.3     
   9 C9            -3.2229    -4.5963    -1.0375 C.3     
  10 C10           -2.4550    -5.6747    -0.2667 C.3     
  11 N11           -2.1470    -5.1667     1.0771 N.am    
  12 C12           -1.4533    -3.8777     1.2032 C.3     
  13 C13           -2.4943    -5.8698     2.1732 C.2     
  14 C14           -3.2648    -7.1225     2.0338 C.ar    
  15 O15           -2.1734    -5.4732     3.2767 O.2     
  16 C16            0.2388     2.7647     0.8048 C.2     
  17 C17            0.0589     4.0208     1.2087 C.2     
  18 S18           -1.5321     4.1884     1.9361 S.3     
  19 C19           -1.8893     2.5436     1.6556 C.2     
  20 C20           -2.8384    -8.1120     1.1461 C.ar    
  21 C21           -3.5605    -9.2798     1.0189 C.ar    
  22 C22           -4.7088    -9.4732     1.7700 C.ar    
  23 C23           -5.1388    -8.4927     2.6546 C.ar    
  24 C24           -4.4193    -7.3232     2.7939 C.ar    
  25 F25           -5.4126   -10.6191     1.6410 F       
  26 F26           -6.2594    -8.6865     3.3840 F       
  27 H27           -3.2086    -2.6681     0.8765 H       
  28 H28           -2.9492    -2.5334    -1.5956 H       
  29 H29           -1.4402    -3.4698    -1.4791 H       
  30 H30           -4.1898    -4.4288    -0.5631 H       
  31 H31           -3.3737    -4.9223    -2.0666 H       
  32 H32           -3.0678    -6.5726    -0.1864 H       
  33 H33           -1.5281    -5.9081    -0.7905 H       
  34 H34           -0.4446    -3.9646     0.7993 H       
  35 H35           -1.4051    -3.5899     2.2534 H       
  36 H36            1.1449     2.4224     0.3270 H       
  37 H37            0.7819     4.8164     1.1053 H       
  38 H38           -2.8164     2.0604     1.9263 H       
  39 H39           -1.9440    -7.9628     0.5593 H       
  40 H40           -3.2306   -10.0452     0.3322 H       
  41 H41           -4.7535    -6.5609     3.4821 H       
@<TRIPOS>BOND
   1    1    2 1
   2    1   16 1
   3    1   19 2
   4    2    3 1
   5    2    6 2
   6    3    4 2
   7    4    5 1
   8    4    7 1
   9    5    6 1
  10    7    8 1
  11    7   12 1
  12    7   27 1
  13    8    9 1
  14    8   28 1
  15    8   29 1
  16    9   10 1
  17    9   30 1
  18    9   31 1
  19   10   11 1
  20   10   32 1
  21   10   33 1
  22   11   12 1
  23   11   13 am
  24   12   34 1
  25   12   35 1
  26   13   14 1
  27   13   15 2
  28   14   20 ar
  29   14   24 ar
  30   16   17 2
  31   16   36 1
  32   17   18 1
  33   17   37 1
  34   18   19 1
  35   19   38 1
  36   20   21 ar
  37   20   39 1
  38   21   22 ar
  39   21   40 1
  40   22   23 ar
  41   22   25 1
  42   23   24 ar
  43   23   26 1
  44   24   41 1

#	End of record

