#	Name: ASD01882618
#	Creating user name:	WinNT
#	Creation time:	15. 06. 2019 19:44

#	Modifying user name:	WinNT
#	Modification time:	15. 06. 2019 19:44

#	Program:	/corina/corina34_cracker 3.40 0067  02.08.2006

@<TRIPOS>MOLECULE
ASD01882618
  26   27    0    0    0
SMALL
NO_CHARGES


@<TRIPOS>ATOM
   1 C1             1.3003    -0.5980     0.2052 C.ar    
   2 C2             0.0370    -0.0566     0.0072 C.ar    
   3 C3            -0.0909     1.3130    -0.2087 C.ar    
   4 C4             1.0537     2.0888    -0.2180 C.ar    
   5 C5             2.2905     1.4768    -0.0120 C.ar    
   6 N6             2.3719     0.1667     0.1907 N.ar    
   7 O7            -1.0625    -0.8549     0.0236 O.3     
   8 C8             3.5214     2.2938    -0.0194 C.2     
   9 C9             4.6741     1.6742     0.0671 C.2     
  10 C10            6.0011     2.3753     0.0801 C.3     
  11 C11            5.8459     3.8063    -0.4390 C.3     
  12 C12            4.6787     4.4691     0.3029 C.3     
  13 C13            3.3796     3.7837    -0.1316 C.3     
  14 H14            1.4047    -1.6591     0.3776 H       
  15 H15           -1.0619     1.7591    -0.3657 H       
  16 H16            0.9912     3.1543    -0.3829 H       
  17 H17           -1.4617    -0.9566     0.8984 H       
  18 H18            4.6681     0.5962     0.1332 H       
  19 H19            6.3864     2.4005     1.0994 H       
  20 H20            6.7019     1.8343    -0.5557 H       
  21 H21            6.7630     4.3650    -0.2524 H       
  22 H22            5.6365     3.7872    -1.5085 H       
  23 H23            4.8156     4.3542     1.3782 H       
  24 H24            4.6362     5.5278     0.0473 H       
  25 H25            3.1555     4.0486    -1.1649 H       
  26 H26            2.5645     4.1185     0.5100 H       
@<TRIPOS>BOND
   1    1    2 ar
   2    1    6 ar
   3    1   14 1
   4    2    3 ar
   5    2    7 1
   6    3    4 ar
   7    3   15 1
   8    4    5 ar
   9    4   16 1
  10    5    6 ar
  11    5    8 1
  12    7   17 1
  13    8    9 2
  14    8   13 1
  15    9   10 1
  16    9   18 1
  17   10   11 1
  18   10   19 1
  19   10   20 1
  20   11   12 1
  21   11   21 1
  22   11   22 1
  23   12   13 1
  24   12   23 1
  25   12   24 1
  26   13   25 1
  27   13   26 1

#	End of record

