#	Name: ASD01811296
#	Creating user name:	WinNT
#	Creation time:	15. 06. 2019 19:26

#	Modifying user name:	WinNT
#	Modification time:	15. 06. 2019 19:26

#	Program:	/corina/corina34_cracker 3.40 0067  02.08.2006

@<TRIPOS>MOLECULE
ASD01811296
  57   61    0    0    0
SMALL
NO_CHARGES


@<TRIPOS>ATOM
   1 C1             6.7726     8.7901    -0.9774 C.1     
   2 C2             5.3829     8.4871    -0.8120 C.ar    
   3 C3             4.9643     7.1609    -0.6869 C.ar    
   4 C4             3.6239     6.8761    -0.5279 C.ar    
   5 C5             2.6951     7.9011    -0.4928 C.ar    
   6 C6             3.1029     9.2174    -0.6167 C.ar    
   7 C7             4.4408     9.5169    -0.7694 C.ar    
   8 N8             7.8751     9.0305    -1.1086 N.1     
   9 N9            -1.5018     8.2632    -0.0739 N.am    
  10 C10           -0.7663     7.8992     1.1449 C.3     
  11 C11            0.7116     8.2539     0.9533 C.3     
  12 C12            1.2325     7.5821    -0.3193 C.3     
  13 C13            0.4507     8.1007    -1.5285 C.3     
  14 C14           -1.0302     7.7443    -1.3650 C.3     
  15 C15           -2.5916     9.0534    -0.0081 C.2     
  16 C16           -3.1277     9.4655     1.3069 C.ar    
  17 C17           -3.5635    10.7756     1.5055 C.ar    
  18 C18           -4.0653    11.1544     2.7410 C.ar    
  19 C19           -4.1329    10.2297     3.7768 C.ar    
  20 C20           -3.7007     8.9318     3.5800 C.ar    
  21 C21           -3.2047     8.5433     2.3518 C.ar    
  22 O22           -3.1338     9.4273    -1.0297 O.2     
  23 C23           -4.6789    10.6440     5.1189 C.3     
  24 N24           -4.5031    12.4667     2.9455 N.pl3   
  25 C25           -3.6949    14.3548     0.0947 C.ar    
  26 C26           -4.2444    15.3608     0.9102 C.ar    
  27 C27           -4.3178    16.6606     0.4335 C.ar    
  28 C28           -3.8410    16.9190    -0.8425 C.ar    
  29 C29           -3.3120    15.8841    -1.5941 C.ar    
  30 N30           -3.2511    14.6560    -1.1234 N.ar    
  31 C31           -4.2921    13.4228     1.9751 C.2     
  32 N32           -3.7531    13.1983     0.8012 N.2     
  33 N33           -4.6087    14.7450     2.0951 N.pl3   
  34 H34            5.6882     6.3599    -0.7148 H       
  35 H35            3.2987     5.8508    -0.4310 H       
  36 H36            2.3726    10.0126    -0.5888 H       
  37 H37            4.7583    10.5450    -0.8612 H       
  38 H38           -1.1681     8.4533     1.9933 H       
  39 H39           -0.8649     6.8288     1.3252 H       
  40 H40            0.8176     9.3350     0.8636 H       
  41 H41            1.2844     7.9016     1.8112 H       
  42 H42            1.1032     6.5028    -0.2392 H       
  43 H43            0.5592     9.1832    -1.5948 H       
  44 H44            0.8377     7.6394    -2.4370 H       
  45 H45           -1.1503     6.6612    -1.3894 H       
  46 H46           -1.6061     8.1961    -2.1727 H       
  47 H47           -3.5098    11.4925     0.6996 H       
  48 H48           -3.7550     8.2180     4.3887 H       
  49 H49           -2.8721     7.5270     2.2007 H       
  50 H50           -5.7555    10.4752     5.1411 H       
  51 H51           -4.2026    10.0547     5.9026 H       
  52 H52           -4.4734    11.7016     5.2840 H       
  53 H53           -4.9553    12.7042     3.7701 H       
  54 H54           -4.7356    17.4507     1.0398 H       
  55 H55           -3.8823    17.9196    -1.2468 H       
  56 H56           -2.9413    16.0883    -2.5877 H       
  57 H57           -5.0179    15.1719     2.8641 H       
@<TRIPOS>BOND
   1    1    2 1
   2    1    8 3
   3    2    3 ar
   4    2    7 ar
   5    3    4 ar
   6    3   34 1
   7    4    5 ar
   8    4   35 1
   9    5    6 ar
  10    5   12 1
  11    6    7 ar
  12    6   36 1
  13    7   37 1
  14    9   10 1
  15    9   14 1
  16    9   15 am
  17   10   11 1
  18   10   38 1
  19   10   39 1
  20   11   12 1
  21   11   40 1
  22   11   41 1
  23   12   13 1
  24   12   42 1
  25   13   14 1
  26   13   43 1
  27   13   44 1
  28   14   45 1
  29   14   46 1
  30   15   16 1
  31   15   22 2
  32   16   17 ar
  33   16   21 ar
  34   17   18 ar
  35   17   47 1
  36   18   19 ar
  37   18   24 1
  38   19   20 ar
  39   19   23 1
  40   20   21 ar
  41   20   48 1
  42   21   49 1
  43   23   50 1
  44   23   51 1
  45   23   52 1
  46   24   31 1
  47   24   53 1
  48   25   26 ar
  49   25   30 ar
  50   25   32 1
  51   26   27 ar
  52   26   33 1
  53   27   28 ar
  54   27   54 1
  55   28   29 ar
  56   28   55 1
  57   29   30 ar
  58   29   56 1
  59   31   32 2
  60   31   33 1
  61   33   57 1

#	End of record

