#	Name: ASD04881001
#	Creating user name:	WinNT
#	Creation time:	15. 06. 2019 20:53

#	Modifying user name:	WinNT
#	Modification time:	15. 06. 2019 20:53

#	Program:	/corina/corina34_cracker 3.40 0067  02.08.2006

@<TRIPOS>MOLECULE
ASD04881001
  73   76    0    0    0
SMALL
NO_CHARGES


@<TRIPOS>ATOM
   1 C1             0.4233     1.4369     0.7356 C.2     
   2 C2             0.3578     0.0043     0.4301 C.2     
   3 O3            -0.6498    -0.4672    -0.0639 O.2     
   4 N4             1.4132    -0.7905     0.6964 N.am    
   5 C5             1.3127    -2.1750     0.5076 C.ar    
   6 C6             2.4315    -2.9088     0.1021 C.ar    
   7 C7             2.3334    -4.2824    -0.0851 C.ar    
   8 C8             1.1340    -4.9258     0.1280 C.ar    
   9 C9             0.0119    -4.1985     0.5333 C.ar    
  10 C10            0.1092    -2.8173     0.7274 C.ar    
  11 C11           -1.2725    -4.8877     0.7608 C.2     
  12 O12           -2.2484    -4.2539     1.1136 O.2     
  13 N13           -1.3641    -6.2198     0.5778 N.am    
  14 C14           -2.6395    -6.9042     0.8038 C.3     
  15 C15           -2.4717    -8.3997     0.5278 C.3     
  16 N16            3.6457    -2.2625    -0.1148 N.3     
  17 C17            3.5616    -1.3577    -1.2698 C.3     
  18 C18            4.8876    -0.6095    -1.4259 C.3     
  19 N19            5.9774    -1.5801    -1.5990 N.3     
  20 C20            6.0614    -2.4849    -0.4440 C.3     
  21 C21            4.7354    -3.2331    -0.2880 C.3     
  22 C22            7.1953    -0.9318    -1.8166 C.ar    
  23 C23            8.2039    -1.0068    -0.8641 C.ar    
  24 C24            9.4068    -0.3651    -1.0826 C.ar    
  25 C25            9.6081     0.3521    -2.2480 C.ar    
  26 C26            8.6065     0.4288    -3.1980 C.ar    
  27 C27            7.4028    -0.2155    -2.9883 C.ar    
  28 C28           -3.8037    -9.1145     0.7638 C.3     
  29 N29           -3.6430   -10.5465     0.4995 N.am    
  30 C30           -4.6922   -11.3802     0.6434 C.2     
  31 O31            1.4742     2.0840     1.2806 O.3     
  32 C32            1.1755     3.3828     1.4148 C.2     
  33 C33           -0.0783     3.5903     0.9555 C.2     
  34 C34           -0.5665     2.3510     0.5127 C.2     
  35 C35            2.0874     4.4387     1.9847 C.3     
  36 C36            6.3139    -0.1365    -4.0271 C.3     
  37 C37           -4.5269   -12.8532     0.3715 C.3     
  38 O38           -5.7693   -10.9450     0.9916 O.2     
  39 H39            2.2423    -0.4039     1.0188 H       
  40 H40            3.1992    -4.8466    -0.3987 H       
  41 H41            1.0609    -5.9933    -0.0188 H       
  42 H42           -0.7553    -2.2531     1.0446 H       
  43 H43           -0.5855    -6.7254     0.2965 H       
  44 H44           -2.9519    -6.7584     1.8379 H       
  45 H45           -3.3957    -6.4939     0.1345 H       
  46 H46           -2.1593    -8.5456    -0.5063 H       
  47 H47           -1.7156    -8.8101     1.1971 H       
  48 H48            3.3625    -1.9367    -2.1716 H       
  49 H49            2.7559    -0.6408    -1.1123 H       
  50 H50            4.8377     0.0408    -2.2992 H       
  51 H51            5.0735    -0.0092    -0.5352 H       
  52 H52            6.8672    -3.2018    -0.6016 H       
  53 H53            6.2605    -1.9059     0.4577 H       
  54 H54            4.7854    -3.8834     0.5854 H       
  55 H55            4.5496    -3.8334    -1.1786 H       
  56 H56            8.0471    -1.5660     0.0464 H       
  57 H57           10.1913    -0.4229    -0.3426 H       
  58 H58           10.5497     0.8537    -2.4161 H       
  59 H59            8.7669     0.9896    -4.1069 H       
  60 H60           -4.1161    -8.9687     1.7979 H       
  61 H61           -4.5599    -8.7042     0.0945 H       
  62 H62           -2.7816   -10.8946     0.2210 H       
  63 H63           -0.6044     4.5332     0.9302 H       
  64 H64           -1.5376     2.1574     0.0818 H       
  65 H65            3.0347     3.9833     2.2733 H       
  66 H66            2.2678     5.2071     1.2330 H       
  67 H67            1.6192     4.8892     2.8598 H       
  68 H68            5.7282     0.7695    -3.8714 H       
  69 H69            6.7609    -0.1139    -5.0210 H       
  70 H70            5.6651    -1.0081    -3.9403 H       
  71 H71           -3.4982   -13.0543     0.0723 H       
  72 H72           -4.7596   -13.4177     1.2745 H       
  73 H73           -5.2033   -13.1532    -0.4288 H       
@<TRIPOS>BOND
   1    1    2 1
   2    1   31 1
   3    1   34 2
   4    2    3 2
   5    2    4 am
   6    4    5 1
   7    4   39 1
   8    5    6 ar
   9    5   10 ar
  10    6    7 ar
  11    6   16 1
  12    7    8 ar
  13    7   40 1
  14    8    9 ar
  15    8   41 1
  16    9   10 ar
  17    9   11 1
  18   10   42 1
  19   11   12 2
  20   11   13 am
  21   13   14 1
  22   13   43 1
  23   14   15 1
  24   14   44 1
  25   14   45 1
  26   15   28 1
  27   15   46 1
  28   15   47 1
  29   16   17 1
  30   16   21 1
  31   17   18 1
  32   17   48 1
  33   17   49 1
  34   18   19 1
  35   18   50 1
  36   18   51 1
  37   19   20 1
  38   19   22 1
  39   20   21 1
  40   20   52 1
  41   20   53 1
  42   21   54 1
  43   21   55 1
  44   22   23 ar
  45   22   27 ar
  46   23   24 ar
  47   23   56 1
  48   24   25 ar
  49   24   57 1
  50   25   26 ar
  51   25   58 1
  52   26   27 ar
  53   26   59 1
  54   27   36 1
  55   28   29 1
  56   28   60 1
  57   28   61 1
  58   29   30 am
  59   29   62 1
  60   30   37 1
  61   30   38 2
  62   31   32 1
  63   32   33 2
  64   32   35 1
  65   33   34 1
  66   33   63 1
  67   34   64 1
  68   35   65 1
  69   35   66 1
  70   35   67 1
  71   36   68 1
  72   36   69 1
  73   36   70 1
  74   37   71 1
  75   37   72 1
  76   37   73 1

#	End of record

