#	Name: ASD03200049
#	Creating user name:	WinNT
#	Creation time:	15. 06. 2019 20:34

#	Modifying user name:	WinNT
#	Modification time:	15. 06. 2019 20:34

#	Program:	/corina/corina34_cracker 3.40 0067  02.08.2006

@<TRIPOS>MOLECULE
ASD03200049
  48   51    0    0    0
SMALL
NO_CHARGES


@<TRIPOS>ATOM
   1 C1            -0.0629     1.5038    -0.0284 C.3     
   2 N2            -0.0289     0.0358    -0.0150 N.3     
   3 C3             0.6343    -0.4689     1.1941 C.3     
   4 C4             2.0853     0.0169     1.2222 C.3     
   5 C5             2.1062     1.5479     1.2073 C.3     
   6 C6             1.3673     2.0485    -0.0368 C.3     
   7 C7            -1.3119    -0.4947    -0.1395 C.ar    
   8 C8            -2.2750    -0.2742     0.8420 C.ar    
   9 C9            -3.5342    -0.8162     0.6819 C.ar    
  10 N10           -3.8334    -1.5361    -0.3828 N.ar    
  11 C11           -2.9527    -1.7707    -1.3375 C.ar    
  12 C12           -1.6683    -1.2586    -1.2573 C.ar    
  13 N13           -0.7369    -1.5105    -2.2736 N.am    
  14 C14           -0.7594    -2.6863    -2.9319 C.2     
  15 C15            0.1346    -2.9035    -4.0822 C.2     
  16 O16           -1.5179    -3.5683    -2.5761 O.2     
  17 C17            0.1529    -4.0631    -4.7776 C.2     
  18 S18            1.3082    -3.9447    -6.0329 S.3     
  19 C19            1.7067    -2.3042    -5.5355 C.2     
  20 N20            0.9758    -1.9743    -4.5143 N.2     
  21 C21            2.7136    -1.4351    -6.1828 C.ar    
  22 N22            2.7422    -0.4707     2.4423 N.3     
  23 C23            3.4370    -1.8995    -7.2818 C.ar    
  24 C24            4.3748    -1.0840    -7.8811 C.ar    
  25 C25            4.5984     0.1917    -7.3946 C.ar    
  26 C26            3.8847     0.6579    -6.3050 C.ar    
  27 C27            2.9397    -0.1456    -5.7006 C.ar    
  28 H28           -0.5874     1.8468    -0.9203 H       
  29 H29           -0.5832     1.8632     0.8594 H       
  30 H30            0.1108    -0.1003     2.0762 H       
  31 H31            0.6162    -1.5587     1.1902 H       
  32 H32            2.6131    -0.3628     0.3474 H       
  33 H33            1.6124     1.9276     2.1017 H       
  34 H34            3.1382     1.8978     1.1835 H       
  35 H35            1.8839     1.7008    -0.9314 H       
  36 H36            1.3417     3.1382    -0.0310 H       
  37 H37           -2.0396     0.3130     1.7173 H       
  38 H38           -4.2856    -0.6490     1.4394 H       
  39 H39           -3.2381    -2.3651    -2.1928 H       
  40 H40           -0.0761    -0.8386    -2.5032 H       
  41 H41           -0.4633    -4.9261    -4.5727 H       
  42 H42            3.7021    -0.1628     2.4839 H       
  43 H43            2.2344    -0.1838     3.2657 H       
  44 H44            3.2636    -2.8953    -7.6623 H       
  45 H45            4.9357    -1.4424    -8.7316 H       
  46 H46            5.3336     0.8262    -7.8672 H       
  47 H47            4.0643     1.6544    -5.9295 H       
  48 H48            2.3832     0.2195    -4.8501 H       
@<TRIPOS>BOND
   1    1    2 1
   2    1    6 1
   3    1   28 1
   4    1   29 1
   5    2    3 1
   6    2    7 1
   7    3    4 1
   8    3   30 1
   9    3   31 1
  10    4    5 1
  11    4   22 1
  12    4   32 1
  13    5    6 1
  14    5   33 1
  15    5   34 1
  16    6   35 1
  17    6   36 1
  18    7    8 ar
  19    7   12 ar
  20    8    9 ar
  21    8   37 1
  22    9   10 ar
  23    9   38 1
  24   10   11 ar
  25   11   12 ar
  26   11   39 1
  27   12   13 1
  28   13   14 am
  29   13   40 1
  30   14   15 1
  31   14   16 2
  32   15   17 2
  33   15   20 1
  34   17   18 1
  35   17   41 1
  36   18   19 1
  37   19   20 2
  38   19   21 1
  39   21   23 ar
  40   21   27 ar
  41   22   42 1
  42   22   43 1
  43   23   24 ar
  44   23   44 1
  45   24   25 ar
  46   24   45 1
  47   25   26 ar
  48   25   46 1
  49   26   27 ar
  50   26   47 1
  51   27   48 1

#	End of record

