#	Name: ASD01813849
#	Creating user name:	WinNT
#	Creation time:	15. 06. 2019 19:31

#	Modifying user name:	WinNT
#	Modification time:	15. 06. 2019 19:31

#	Program:	/corina/corina34_cracker 3.40 0067  02.08.2006

@<TRIPOS>MOLECULE
ASD01813849
  53   56    0    0    0
SMALL
NO_CHARGES


@<TRIPOS>ATOM
   1 C1            -0.0111     1.4772    -0.0496 C.2     
   2 C2            -0.0069     0.0758    -0.0539 C.2     
   3 C3             1.1826    -0.5921    -0.0582 C.2     
   4 C4             2.3837     0.1366    -0.0581 C.2     
   5 N5             2.3501     1.5046    -0.0534 N.am    
   6 C6             1.1553     2.1613    -0.0495 C.2     
   7 C7             3.6074    -0.5475    -0.0623 C.2     
   8 C8             4.7800     0.1508    -0.0618 C.2     
   9 C9             4.7417     1.5575    -0.0575 C.2     
  10 C10            3.4953     2.2163    -0.0529 C.2     
  11 O11            3.4527     3.4350    -0.0495 O.2     
  12 C12            5.9857     2.3303    -0.0564 C.2     
  13 O13            5.9422     3.6785    -0.0523 O.3     
  14 O14            7.0583     1.7564    -0.0593 O.2     
  15 C15            3.6281    -2.0543    -0.0669 C.3     
  16 N16            3.7530    -2.5381    -1.4484 N.3     
  17 C17            4.0142    -3.9840    -1.4784 C.3     
  18 C18            4.0584    -4.4616    -2.9318 C.3     
  19 N19            5.1044    -3.7252    -3.6551 N.3     
  20 C20            4.8433    -2.2794    -3.6250 C.3     
  21 C21            4.7991    -1.8018    -2.1716 C.3     
  22 C22            5.2226    -4.1826    -4.9612 C.ar    
  23 C23            6.1630    -3.6105    -5.8151 C.ar    
  24 C24            6.2828    -4.0575    -7.0997 C.ar    
  25 C25            5.4582    -5.0930    -7.5588 C.ar    
  26 C26            4.5137    -5.6655    -6.6966 C.ar    
  27 C27            4.4042    -5.2161    -5.4119 C.ar    
  28 C28            5.5830    -5.5763    -8.9388 C.2     
  29 C29            4.7849    -6.7708    -9.3939 C.3     
  30 O30            6.3286    -5.0142    -9.7132 O.2     
  31 H31           -0.9490     2.0126    -0.0507 H       
  32 H32           -0.9382    -0.4711    -0.0536 H       
  33 H33            1.2008    -1.6719    -0.0612 H       
  34 H34            1.1402     3.2412    -0.0458 H       
  35 H35            5.7261    -0.3701    -0.0644 H       
  36 H36            6.7892     4.1451    -0.0517 H       
  37 H37            4.4758    -2.4079     0.5199 H       
  38 H38            2.7025    -2.4317     0.3679 H       
  39 H39            4.9707    -4.1908    -0.9984 H       
  40 H40            3.2196    -4.5081    -0.9474 H       
  41 H41            4.2807    -5.5283    -2.9575 H       
  42 H42            3.0929    -4.2795    -3.4039 H       
  43 H43            5.6379    -1.7552    -4.1561 H       
  44 H44            3.8868    -2.0725    -4.1050 H       
  45 H45            4.5768    -0.7350    -2.1460 H       
  46 H46            5.7646    -1.9838    -1.6995 H       
  47 H47            6.7980    -2.8121    -5.4605 H       
  48 H48            7.0119    -3.6132    -7.7611 H       
  49 H49            3.8758    -6.4636    -7.0466 H       
  50 H50            3.6767    -5.6570    -4.7465 H       
  51 H51            4.2504    -7.1958    -8.5443 H       
  52 H52            4.0692    -6.4609   -10.1554 H       
  53 H53            5.4579    -7.5198    -9.8113 H       
@<TRIPOS>BOND
   1    1    2 1
   2    1    6 2
   3    1   31 1
   4    2    3 2
   5    2   32 1
   6    3    4 1
   7    3   33 1
   8    4    5 1
   9    4    7 2
  10    5    6 1
  11    5   10 am
  12    6   34 1
  13    7    8 1
  14    7   15 1
  15    8    9 2
  16    8   35 1
  17    9   10 1
  18    9   12 1
  19   10   11 2
  20   12   13 1
  21   12   14 2
  22   13   36 1
  23   15   16 1
  24   15   37 1
  25   15   38 1
  26   16   17 1
  27   16   21 1
  28   17   18 1
  29   17   39 1
  30   17   40 1
  31   18   19 1
  32   18   41 1
  33   18   42 1
  34   19   20 1
  35   19   22 1
  36   20   21 1
  37   20   43 1
  38   20   44 1
  39   21   45 1
  40   21   46 1
  41   22   23 ar
  42   22   27 ar
  43   23   24 ar
  44   23   47 1
  45   24   25 ar
  46   24   48 1
  47   25   26 ar
  48   25   28 1
  49   26   27 ar
  50   26   49 1
  51   27   50 1
  52   28   29 1
  53   28   30 2
  54   29   51 1
  55   29   52 1
  56   29   53 1

#	End of record

