#	Name: ASD03430299
#	Creating user name:	WinNT
#	Creation time:	15. 06. 2019 20:40

#	Modifying user name:	WinNT
#	Modification time:	15. 06. 2019 20:40

#	Program:	/corina/corina34_cracker 3.40 0067  02.08.2006

@<TRIPOS>MOLECULE
ASD03430299
  50   55    0    0    0
SMALL
NO_CHARGES


@<TRIPOS>ATOM
   1 C1            -0.0166     1.3738     0.0096 C.ar    
   2 C2             0.0021    -0.0041     0.0020 C.ar    
   3 C3             1.2042    -0.6788    -0.0045 C.ar    
   4 C4             2.4067     0.0241     0.0056 C.ar    
   5 C5             2.3789     1.4131     0.0039 C.ar    
   6 C6             1.1690     2.0978     0.0022 C.ar    
   7 O7             3.4729    -0.8255     0.0285 O.3     
   8 C8             1.5603    -2.1403    -0.0345 C.3     
   9 C9             3.0497    -2.1320    -0.4062 C.3     
  10 C10            0.4362    -3.8614     1.0115 C.ar    
  11 C11            1.3159    -2.8163     1.2819 C.ar    
  12 C12            0.7408    -2.9059    -1.0334 C.2     
  13 N13            0.1196    -3.8867    -0.3489 N.am    
  14 O14            0.6549    -2.6848    -2.2228 O.2     
  15 C15            1.7686    -2.5957     2.5635 C.ar    
  16 C16            1.3511    -3.4155     3.5968 C.ar    
  17 C17            0.4781    -4.4569     3.3397 C.ar    
  18 C18            0.0212    -4.6816     2.0578 C.ar    
  19 C19           -0.7824    -4.8658    -0.9604 C.3     
  20 C20           -1.1521     2.3781     0.0360 C.3     
  21 C21           -0.4182     3.6807     0.4332 C.3     
  22 O22            0.9258     3.4379    -0.0164 O.3     
  23 C23           -2.2148    -4.3288    -0.9294 C.3     
  24 O24           -2.3060    -3.1640    -1.7541 O.3     
  25 C25           -3.6204    -2.6036    -1.8156 C.3     
  26 C26           -4.5934    -3.6560    -2.3538 C.3     
  27 N27           -4.5371    -4.8507    -1.4989 N.3     
  28 C28           -3.1735    -5.3987    -1.4586 C.3     
  29 H29           -0.9262    -0.5560     0.0016 H       
  30 H30            3.3063     1.9664     0.0046 H       
  31 H31            3.1805    -2.2430    -1.4827 H       
  32 H32            3.5874    -2.9122     0.1325 H       
  33 H33            2.4506    -1.7822     2.7622 H       
  34 H34            1.7063    -3.2427     4.6020 H       
  35 H35            0.1530    -5.0974     4.1462 H       
  36 H36           -0.6609    -5.4965     1.8648 H       
  37 H37           -0.4823    -5.0407    -1.9936 H       
  38 H38           -0.7333    -5.8020    -0.4044 H       
  39 H39           -1.6104     2.4738    -0.9484 H       
  40 H40           -1.8955     2.1058     0.7853 H       
  41 H41           -0.8487     4.5392    -0.0823 H       
  42 H42           -0.4440     3.8247     1.5134 H       
  43 H43           -2.4849    -4.0716     0.0948 H       
  44 H44           -3.9322    -2.2965    -0.8173 H       
  45 H45           -3.6166    -1.7385    -2.4787 H       
  46 H46           -5.6058    -3.2522    -2.3487 H       
  47 H47           -4.3128    -3.9239    -3.3725 H       
  48 H48           -4.8722    -4.6463    -0.5694 H       
  49 H49           -2.8703    -5.6944    -2.4629 H       
  50 H50           -3.1494    -6.2669    -0.8000 H       
@<TRIPOS>BOND
   1    1    2 ar
   2    1    6 ar
   3    1   20 1
   4    2    3 ar
   5    2   29 1
   6    3    4 ar
   7    3    8 1
   8    4    5 ar
   9    4    7 1
  10    5    6 ar
  11    5   30 1
  12    6   22 1
  13    7    9 1
  14    8    9 1
  15    8   11 1
  16    8   12 1
  17    9   31 1
  18    9   32 1
  19   10   11 ar
  20   10   13 1
  21   10   18 ar
  22   11   15 ar
  23   12   13 am
  24   12   14 2
  25   13   19 1
  26   15   16 ar
  27   15   33 1
  28   16   17 ar
  29   16   34 1
  30   17   18 ar
  31   17   35 1
  32   18   36 1
  33   19   23 1
  34   19   37 1
  35   19   38 1
  36   20   21 1
  37   20   39 1
  38   20   40 1
  39   21   22 1
  40   21   41 1
  41   21   42 1
  42   23   24 1
  43   23   28 1
  44   23   43 1
  45   24   25 1
  46   25   26 1
  47   25   44 1
  48   25   45 1
  49   26   27 1
  50   26   46 1
  51   26   47 1
  52   27   28 1
  53   27   48 1
  54   28   49 1
  55   28   50 1

#	End of record

