#	Name: ASD09610108
#	Creating user name:	WinNT
#	Creation time:	15. 06. 2019 21:22

#	Modifying user name:	WinNT
#	Modification time:	15. 06. 2019 21:22

#	Program:	/corina/corina34_cracker 3.40 0067  02.08.2006

@<TRIPOS>MOLECULE
ASD09610108
  36   37    0    0    0
SMALL
NO_CHARGES


@<TRIPOS>ATOM
   1 N1            -0.0225     1.4834    -0.0085 N.pl3   
   2 N2            -0.1065     0.0950    -0.0906 N.2     
   3 C3             1.0423    -0.5035    -0.0767 C.2     
   4 C4             2.1445     0.5263     0.0276 C.3     
   5 C5             1.3942     1.8719     0.0726 C.3     
   6 C6             1.2360    -1.9062    -0.1477 C.2     
   7 O7             2.3618    -2.3667    -0.1264 O.2     
   8 O8             0.1715    -2.7305    -0.2388 O.3     
   9 C9             1.7820     2.7442    -1.1231 C.3     
  10 C10            1.6731     2.5910     1.3673 C.2     
  11 O11            2.7143     2.4028     1.9507 O.2     
  12 O12            0.7648     3.4404     1.8724 O.3     
  13 C13            1.1006     4.0977     3.1228 C.3     
  14 C14           -0.0469     5.0204     3.5382 C.3     
  15 C15           -1.1069     2.3637    -0.0090 C.ar    
  16 C16           -1.6439     2.8073    -1.2130 C.ar    
  17 C17           -2.7165     3.6781    -1.2097 C.ar    
  18 C18           -3.2562     4.1086    -0.0099 C.ar    
  19 C19           -2.7234     3.6690     1.1892 C.ar    
  20 C20           -1.6551     2.7936     1.1928 C.ar    
  21 Cl21          -4.6040     5.2027    -0.0095 Cl      
  22 Cl22          -0.9669     2.2680    -2.7178 Cl      
  23 H23            2.7200     0.3789     0.9415 H       
  24 H24            2.7945     0.4802    -0.8461 H       
  25 H25            0.4029    -3.6685    -0.2820 H       
  26 H26            1.1864     3.6571    -1.1152 H       
  27 H27            2.8396     2.9998    -1.0585 H       
  28 H28            1.5962     2.1971    -2.0474 H       
  29 H29            1.2612     3.3467     3.8963 H       
  30 H30            2.0097     4.6847     2.9920 H       
  31 H31           -0.9560     4.4334     3.6690 H       
  32 H32            0.2052     5.5138     4.4769 H       
  33 H33           -0.2075     5.7714     2.7647 H       
  34 H34           -3.1340     4.0234    -2.1439 H       
  35 H35           -3.1467     4.0071     2.1235 H       
  36 H36           -1.2433     2.4471     2.1292 H       
@<TRIPOS>BOND
   1    1    2 1
   2    1    5 1
   3    1   15 1
   4    2    3 2
   5    3    4 1
   6    3    6 1
   7    4    5 1
   8    4   23 1
   9    4   24 1
  10    5    9 1
  11    5   10 1
  12    6    7 2
  13    6    8 1
  14    8   25 1
  15    9   26 1
  16    9   27 1
  17    9   28 1
  18   10   11 2
  19   10   12 1
  20   12   13 1
  21   13   14 1
  22   13   29 1
  23   13   30 1
  24   14   31 1
  25   14   32 1
  26   14   33 1
  27   15   16 ar
  28   15   20 ar
  29   16   17 ar
  30   16   22 1
  31   17   18 ar
  32   17   34 1
  33   18   19 ar
  34   18   21 1
  35   19   20 ar
  36   19   35 1
  37   20   36 1

#	End of record

