#	Name: ASD01813024
#	Creating user name:	WinNT
#	Creation time:	15. 06. 2019 19:29

#	Modifying user name:	WinNT
#	Modification time:	15. 06. 2019 19:29

#	Program:	/corina/corina34_cracker 3.40 0067  02.08.2006

@<TRIPOS>MOLECULE
ASD01813024
  38   40    0    0    0
SMALL
NO_CHARGES


@<TRIPOS>ATOM
   1 C1            -0.0161     1.3393     0.0094 C.2     
   2 C2             0.0021    -0.0041     0.0020 C.2     
   3 N3            -1.1617    -0.7194     0.0278 N.pl3   
   4 C4            -2.3742    -0.1532     0.0484 C.2     
   5 C5            -2.4977     1.2221     0.0475 C.2     
   6 C6            -1.2652     2.0204     0.0311 C.2     
   7 O7            -1.3113     3.2403     0.0286 O.2     
   8 C8            -1.0779    -2.1820     0.0326 C.3     
   9 C9            -1.0216    -2.6772     1.4548 C.ar    
  10 C10            1.2310     2.1827     0.0020 C.3     
  11 C11            2.4368     1.3624    -0.4510 C.3     
  12 C12            2.4716     0.0694     0.3732 C.3     
  13 C13            1.2858    -0.7961    -0.0448 C.3     
  14 O14            1.0489     3.2837    -0.8905 O.3     
  15 N15            0.1379    -2.7319     2.0801 N.ar    
  16 C16            0.2356    -3.1578     3.3244 C.ar    
  17 C17           -0.8863    -3.5655     4.0222 C.ar    
  18 C18           -2.1241    -3.5220     3.3967 C.ar    
  19 C19           -2.1870    -3.0634     2.0901 C.ar    
  20 Br20          -0.7356    -4.1751     5.8059 Br      
  21 C21           -3.8204     1.8664     0.0670 C.2     
  22 O22           -4.8275     1.1862     0.0842 O.2     
  23 O23           -3.9152     3.2109     0.0658 O.3     
  24 H24           -3.2581    -0.7735     0.0654 H       
  25 H25           -1.9555    -2.5978    -0.4625 H       
  26 H26           -0.1788    -2.4962    -0.4974 H       
  27 H27            1.4129     2.5629     1.0072 H       
  28 H28            2.3411     1.1215    -1.5097 H       
  29 H29            3.3520     1.9303    -0.2835 H       
  30 H30            3.4023    -0.4643     0.1806 H       
  31 H31            2.3967     0.3077     1.4342 H       
  32 H32            1.2071    -1.6474     0.6313 H       
  33 H33            1.4467    -1.1588    -1.0600 H       
  34 H34            1.8130     3.8736    -0.9484 H       
  35 H35            1.2030    -3.1888     3.8036 H       
  36 H36           -3.0177    -3.8343     3.9166 H       
  37 H37           -3.1336    -3.0156     1.5724 H       
  38 H38           -4.8054     3.5882     0.0790 H       
@<TRIPOS>BOND
   1    1    2 2
   2    1   10 1
   3    1    6 1
   4    2    3 1
   5    2   13 1
   6    3    4 1
   7    3    8 1
   8    4    5 2
   9    4   24 1
  10    5    6 1
  11    5   21 1
  12    6    7 2
  13    8    9 1
  14    8   25 1
  15    8   26 1
  16    9   15 ar
  17    9   19 ar
  18   10   11 1
  19   10   14 1
  20   10   27 1
  21   11   12 1
  22   11   28 1
  23   11   29 1
  24   12   13 1
  25   12   30 1
  26   12   31 1
  27   13   32 1
  28   13   33 1
  29   14   34 1
  30   15   16 ar
  31   16   17 ar
  32   16   35 1
  33   17   18 ar
  34   17   20 1
  35   18   19 ar
  36   18   36 1
  37   19   37 1
  38   21   22 2
  39   21   23 1
  40   23   38 1

#	End of record

