#	Name: ASD04550074
#	Creating user name:	WinNT
#	Creation time:	15. 06. 2019 20:49

#	Modifying user name:	WinNT
#	Modification time:	15. 06. 2019 20:49

#	Program:	/corina/corina34_cracker 3.40 0067  02.08.2006

@<TRIPOS>MOLECULE
ASD04550074
  39   40    0    0    0
SMALL
NO_CHARGES


@<TRIPOS>ATOM
   1 C1            -0.1202     2.0793    -0.5538 C.ar    
   2 C2            -0.3011     0.7039    -0.5595 C.ar    
   3 C3             0.7942    -0.1380    -0.4314 C.ar    
   4 C4             2.0617     0.3950    -0.2986 C.ar    
   5 C5             2.2393     1.7662    -0.2927 C.ar    
   6 C6             1.1494     2.6073    -0.4207 C.ar    
   7 C7             3.6231     2.3449    -0.1467 C.3     
   8 C8             3.9530     3.1943    -1.3757 C.3     
   9 O9            -1.5491     0.1820    -0.6899 O.3     
  10 S10           -1.9673    -0.0697    -2.1315 S.o2    
  11 O11           -3.3575    -0.3521    -2.0488 O.2     
  12 O12           -1.4915     1.0676    -2.8381 O.2     
  13 C13            3.6796     3.2058     1.0889 C.2     
  14 O14            2.6934     3.3367     1.7826 O.2     
  15 N15            4.8262     3.8305     1.4230 N.am    
  16 C16            4.8534     4.7067     2.5136 C.ar    
  17 C17            4.0836     4.4416     3.6386 C.ar    
  18 C18            4.1126     5.3085     4.7134 C.ar    
  19 C19            4.9067     6.4397     4.6699 C.ar    
  20 C20            5.6741     6.7068     3.5510 C.ar    
  21 C21            5.6546     5.8404     2.4756 C.ar    
  22 C22           -1.0442    -1.5536    -2.6180 C.3     
  23 F23           -1.3949    -2.6169    -1.7792 F       
  24 F24           -1.3542    -1.8823    -3.9421 F       
  25 F25            0.3283    -1.3059    -2.5081 F       
  26 H26           -0.9707     2.7367    -0.6578 H       
  27 H27            0.6559    -1.2091    -0.4352 H       
  28 H28            2.9147    -0.2600    -0.1988 H       
  29 H29            1.2907     3.6780    -0.4158 H       
  30 H30            4.3480     1.5356    -0.0591 H       
  31 H31            3.2281     4.0036    -1.4633 H       
  32 H32            4.9539     3.6128    -1.2701 H       
  33 H33            3.9121     2.5715    -2.2694 H       
  34 H34            5.6326     3.6726     0.9075 H       
  35 H35            3.4626     3.5586     3.6729 H       
  36 H36            3.5142     5.1029     5.5886 H       
  37 H37            4.9274     7.1162     5.5115 H       
  38 H38            6.2927     7.5915     3.5198 H       
  39 H39            6.2544     6.0493     1.6021 H       
@<TRIPOS>BOND
   1    1    2 ar
   2    1    6 ar
   3    1   26 1
   4    2    3 ar
   5    2    9 1
   6    3    4 ar
   7    3   27 1
   8    4    5 ar
   9    4   28 1
  10    5    6 ar
  11    5    7 1
  12    6   29 1
  13    7    8 1
  14    7   13 1
  15    7   30 1
  16    8   31 1
  17    8   32 1
  18    8   33 1
  19    9   10 1
  20   10   11 2
  21   10   12 2
  22   10   22 1
  23   13   14 2
  24   13   15 am
  25   15   16 1
  26   15   34 1
  27   16   17 ar
  28   16   21 ar
  29   17   18 ar
  30   17   35 1
  31   18   19 ar
  32   18   36 1
  33   19   20 ar
  34   19   37 1
  35   20   21 ar
  36   20   38 1
  37   21   39 1
  38   22   23 1
  39   22   24 1
  40   22   25 1

#	End of record

