#	Name: ASD01815598
#	Creating user name:	WinNT
#	Creation time:	15. 06. 2019 19:33

#	Modifying user name:	WinNT
#	Modification time:	15. 06. 2019 19:33

#	Program:	/corina/corina34_cracker 3.40 0067  02.08.2006

@<TRIPOS>MOLECULE
ASD01815598
  37   39    0    0    0
SMALL
NO_CHARGES


@<TRIPOS>ATOM
   1 C1             0.5293     1.8032     0.6621 C.ar    
   2 C2             0.3731     0.4256     0.6678 C.ar    
   3 C3             1.4476    -0.4072     0.4306 C.ar    
   4 C4             2.7072     0.1344     0.1812 C.ar    
   5 C5             2.8641     1.5310     0.1753 C.ar    
   6 C6             1.7676     2.3623     0.4175 C.ar    
   7 N7             3.7886    -0.6877    -0.0567 N.pl3   
   8 C8             5.0180    -0.2166    -0.3007 C.2     
   9 C9             5.2945     1.1354    -0.3322 C.2     
  10 C10            4.2012     2.0909    -0.0897 C.2     
  11 O11            4.3939     3.2940    -0.1066 O.2     
  12 C12            6.6577     1.6129    -0.6031 C.2     
  13 O13            7.5530     0.8150    -0.8020 O.2     
  14 O14            6.9153     2.9359    -0.6313 O.3     
  15 C15            3.5837    -2.1382    -0.0413 C.3     
  16 C16            3.7132    -2.6489     1.3706 C.ar    
  17 C17            4.9562    -2.7042     1.9750 C.ar    
  18 C18            5.0743    -3.1728     3.2716 C.ar    
  19 C19            3.9504    -3.5852     3.9620 C.ar    
  20 C20            2.7082    -3.5296     3.3574 C.ar    
  21 C21            2.5890    -3.0568     2.0641 C.ar    
  22 F22            1.9180     3.7049     0.4114 F       
  23 F23            1.2785    -1.7476     0.4406 F       
  24 Cl24           6.3676    -2.1865     1.1069 Cl      
  25 C25            1.4831    -3.9800     4.1106 C.3     
  26 F26            1.8535    -4.4079     5.3900 F       
  27 F27            0.5835    -2.9140     4.2177 F       
  28 F28            0.8752    -5.0361     3.4234 F       
  29 H29           -0.3222     2.4417     0.8455 H       
  30 H30           -0.6005    -0.0005     0.8604 H       
  31 H31            5.8200    -0.9177    -0.4785 H       
  32 H32            7.8269     3.2019    -0.8135 H       
  33 H33            2.5883    -2.3686    -0.4211 H       
  34 H34            4.3329    -2.6177    -0.6713 H       
  35 H35            6.0446    -3.2166     3.7438 H       
  36 H36            4.0425    -3.9513     4.9739 H       
  37 H37            1.6184    -3.0133     1.5924 H       
@<TRIPOS>BOND
   1    1    2 ar
   2    1    6 ar
   3    1   29 1
   4    2    3 ar
   5    2   30 1
   6    3    4 ar
   7    3   23 1
   8    4    5 ar
   9    4    7 1
  10    5    6 ar
  11    5   10 1
  12    6   22 1
  13    7    8 1
  14    7   15 1
  15    8    9 2
  16    8   31 1
  17    9   10 1
  18    9   12 1
  19   10   11 2
  20   12   13 2
  21   12   14 1
  22   14   32 1
  23   15   16 1
  24   15   33 1
  25   15   34 1
  26   16   17 ar
  27   16   21 ar
  28   17   18 ar
  29   17   24 1
  30   18   19 ar
  31   18   35 1
  32   19   20 ar
  33   19   36 1
  34   20   21 ar
  35   20   25 1
  36   21   37 1
  37   25   26 1
  38   25   27 1
  39   25   28 1

#	End of record

