#	Name: ASD00170412
#	Creating user name:	WinNT
#	Creation time:	15. 06. 2019 18:32

#	Modifying user name:	WinNT
#	Modification time:	15. 06. 2019 18:32

#	Program:	/corina/corina34_cracker 3.40 0067  02.08.2006

@<TRIPOS>MOLECULE
ASD00170412
  82   86    0    0    0
SMALL
NO_CHARGES


@<TRIPOS>ATOM
   1 C1            -0.8340     0.8790    -0.4759 C.2     
   2 C2            -0.7433    -0.4519    -0.1308 C.2     
   3 C3            -2.0057    -1.0066     0.2962 C.2     
   4 C4            -3.0045    -0.1155     0.2693 C.2     
   5 S5            -2.4278     1.4486    -0.2779 S.3     
   6 C6            -2.1813    -2.4401     0.7266 C.3     
   7 C7            -4.4011    -0.4079     0.6536 C.ar    
   8 C8            -5.0828     0.4463     1.5223 C.ar    
   9 C9            -6.3864     0.1674     1.8770 C.ar    
  10 C10           -7.0184    -0.9559     1.3737 C.ar    
  11 C11           -6.3486    -1.8066     0.5123 C.ar    
  12 C12           -5.0466    -1.5364     0.1449 C.ar    
  13 N13            0.2224     1.6470    -0.9160 N.pl3   
  14 C14            0.5005    -1.2211    -0.1907 C.2     
  15 C15            0.8374    -1.9881    -1.4091 C.ar    
  16 O16            1.2577    -1.2295     0.7629 O.2     
  17 C17            2.0714    -2.6332    -1.5122 C.ar    
  18 C18            2.3800    -3.3469    -2.6510 C.ar    
  19 C19            1.4689    -3.4242    -3.6915 C.ar    
  20 C20            0.2431    -2.7863    -3.5949 C.ar    
  21 C21           -0.0793    -2.0748    -2.4585 C.ar    
  22 Cl22           1.8650    -4.3237    -5.1225 Cl      
  23 N23           -1.3011    -2.7197     1.8690 N.3     
  24 C24           -1.8800    -2.2062     3.1177 C.3     
  25 C25           -1.8046    -0.6781     3.1242 C.3     
  26 C26           -2.4075    -0.1433     4.4248 C.3     
  27 C27           -3.8696    -0.5822     4.5274 C.3     
  28 C28           -3.9451    -2.1103     4.5208 C.3     
  29 C29           -3.3421    -2.6451     3.2203 C.3     
  30 C30           -1.0145    -4.1567     1.9735 C.3     
  31 C31           -0.2395    -4.6135     0.7359 C.3     
  32 C32            0.0589    -6.1101     0.8447 C.3     
  33 C33            0.8972    -6.3733     2.0973 C.3     
  34 C34            0.1222    -5.9165     3.3348 C.3     
  35 C35           -0.1763    -4.4199     3.2260 C.3     
  36 C36           -8.4425    -1.2543     1.7660 C.3     
  37 C37           -9.3439    -0.0959     1.3342 C.3     
  38 C38           -8.9018    -2.5416     1.0783 C.3     
  39 C39           -8.5276    -1.4285     3.2836 C.3     
  40 H40           -3.2184    -2.6077     1.0174 H       
  41 H41           -1.9244    -3.1019    -0.1005 H       
  42 H42           -4.5905     1.3232     1.9161 H       
  43 H43           -6.9148     0.8272     2.5492 H       
  44 H44           -6.8476    -2.6819     0.1233 H       
  45 H45           -4.5250    -2.2011    -0.5278 H       
  46 H46            1.1187     1.2763    -0.9303 H       
  47 H47            0.0697     2.5581    -1.2115 H       
  48 H48            2.7828    -2.5730    -0.7019 H       
  49 H49            3.3342    -3.8463    -2.7320 H       
  50 H50           -0.4631    -2.8498    -4.4095 H       
  51 H51           -1.0354    -1.5781    -2.3842 H       
  52 H52           -1.3217    -2.6012     3.9664 H       
  53 H53           -0.7629    -0.3655     3.0511 H       
  54 H54           -2.3629    -0.2831     2.2755 H       
  55 H55           -1.8492    -0.5383     5.2735 H       
  56 H56           -2.3538     0.9454     4.4294 H       
  57 H57           -4.2992    -0.2012     5.4539 H       
  58 H58           -4.4280    -0.1872     3.6787 H       
  59 H59           -3.3867    -2.5053     5.3696 H       
  60 H60           -4.9867    -2.4230     4.5939 H       
  61 H61           -3.9005    -2.2501     2.3716 H       
  62 H62           -3.3959    -3.7338     3.2156 H       
  63 H63           -1.9512    -4.7101     2.0403 H       
  64 H64           -0.8368    -4.4260    -0.1565 H       
  65 H65            0.6972    -4.0601     0.6691 H       
  66 H66           -0.8778    -6.6635     0.9115 H       
  67 H67            0.6111    -6.4356    -0.0370 H       
  68 H68            1.1099    -7.4395     2.1748 H       
  69 H69            1.8339    -5.8199     2.0304 H       
  70 H70           -0.8145    -6.4699     3.4017 H       
  71 H71            0.7194    -6.1040     4.2272 H       
  72 H72            0.7604    -3.8665     3.1592 H       
  73 H73           -0.7284    -4.0944     4.1077 H       
  74 H74           -9.2833     0.0282     0.2530 H       
  75 H75          -10.3739    -0.3118     1.6180 H       
  76 H76           -9.0167     0.8212     1.8241 H       
  77 H77           -8.2596    -3.3669     1.3859 H       
  78 H78           -9.9318    -2.7575     1.3621 H       
  79 H79           -8.8411    -2.4175    -0.0029 H       
  80 H80           -8.2004    -0.5115     3.7735 H       
  81 H81           -9.5577    -1.6444     3.5674 H       
  82 H82           -7.8854    -2.2538     3.5912 H       
@<TRIPOS>BOND
   1    1    2 2
   2    1   13 1
   3    1    5 1
   4    2    3 1
   5    2   14 1
   6    3    4 2
   7    3    6 1
   8    4    5 1
   9    4    7 1
  10    6   23 1
  11    6   40 1
  12    6   41 1
  13    7    8 ar
  14    7   12 ar
  15    8    9 ar
  16    8   42 1
  17    9   10 ar
  18    9   43 1
  19   10   11 ar
  20   10   36 1
  21   11   12 ar
  22   11   44 1
  23   12   45 1
  24   13   46 1
  25   13   47 1
  26   14   15 1
  27   14   16 2
  28   15   17 ar
  29   15   21 ar
  30   17   18 ar
  31   17   48 1
  32   18   19 ar
  33   18   49 1
  34   19   20 ar
  35   19   22 1
  36   20   21 ar
  37   20   50 1
  38   21   51 1
  39   23   24 1
  40   23   30 1
  41   24   25 1
  42   24   29 1
  43   24   52 1
  44   25   26 1
  45   25   53 1
  46   25   54 1
  47   26   27 1
  48   26   55 1
  49   26   56 1
  50   27   28 1
  51   27   57 1
  52   27   58 1
  53   28   29 1
  54   28   59 1
  55   28   60 1
  56   29   61 1
  57   29   62 1
  58   30   31 1
  59   30   35 1
  60   30   63 1
  61   31   32 1
  62   31   64 1
  63   31   65 1
  64   32   33 1
  65   32   66 1
  66   32   67 1
  67   33   34 1
  68   33   68 1
  69   33   69 1
  70   34   35 1
  71   34   70 1
  72   34   71 1
  73   35   72 1
  74   35   73 1
  75   36   37 1
  76   36   38 1
  77   36   39 1
  78   37   74 1
  79   37   75 1
  80   37   76 1
  81   38   77 1
  82   38   78 1
  83   38   79 1
  84   39   80 1
  85   39   81 1
  86   39   82 1

#	End of record

