#	Name: ASD01410778
#	Creating user name:	WinNT
#	Creation time:	15. 06. 2019 19:18

#	Modifying user name:	WinNT
#	Modification time:	15. 06. 2019 19:18

#	Program:	/corina/corina34_cracker 3.40 0067  02.08.2006

@<TRIPOS>MOLECULE
ASD01410778
  87   93    0    0    0
SMALL
NO_CHARGES


@<TRIPOS>ATOM
   1 C1             2.3252     2.2142    -1.8192 C.3     
   2 C2             1.9259    -1.5722    -1.3331 C.3     
   3 C3             1.9309    -0.2365    -2.1102 C.3     
   4 N4             3.2444    -0.2271    -2.7759 N.am    
   5 C5             3.4941    -1.6083    -3.2176 C.3     
   6 C6             2.6719    -2.5292    -2.2939 C.3     
   7 O7             2.6328    -1.4421    -0.0980 O.3     
   8 C8             3.0473    -1.7806    -4.6465 C.2     
   9 O9             2.5647    -0.8445    -5.2480 O.2     
  10 N10            3.1840    -2.9749    -5.2560 N.am    
  11 C11            2.6384    -3.1779    -6.6004 C.3     
  12 C12            1.1369    -3.1099    -6.7097 C.2     
  13 N13            0.3842    -3.0079    -5.5964 N.am    
  14 O14            0.6059    -3.1471    -7.7994 O.2     
  15 S15           -1.2540    -2.8000    -5.7207 S.o2    
  16 C16           -1.8481    -4.3335    -6.4862 C.3     
  17 C17            3.4572    -2.6533    -7.7816 C.3     
  18 C18            3.3699    -4.1588    -7.5189 C.3     
  19 C19           -3.3323    -4.4129    -6.8493 C.3     
  20 C20           -2.2815    -4.2695    -7.9521 C.3     
  21 O21           -1.6990    -2.7099    -4.3742 O.2     
  22 O22           -1.4015    -1.7062    -6.6157 O.2     
  23 C23            2.7004    -2.1086    -8.9656 C.2     
  24 C24            2.8726    -0.8642    -9.3370 C.2     
  25 C25            2.3335    -2.3333     0.8795 C.ar    
  26 C26            2.9715    -2.2694     2.1404 C.ar    
  27 C27            1.4012    -3.3161     0.6737 C.ar    
  28 C28            1.1099    -4.2251     1.7001 C.ar    
  29 N29            1.7156    -4.1599     2.8737 N.ar    
  30 C30            2.6298    -3.2200     3.1339 C.ar    
  31 C31            0.1021    -5.2804     1.4653 C.2     
  32 C32            3.2673    -3.1614     4.3855 C.ar    
  33 C33            4.2056    -2.1824     4.6257 C.ar    
  34 C34            4.5303    -1.2468     3.6394 C.ar    
  35 C35            3.9310    -1.2851     2.4178 C.ar    
  36 Cl36           2.8738    -4.3158     5.6209 Cl      
  37 N37           -0.2609    -6.1844     2.3299 N.2     
  38 C38            1.8171     0.9380    -1.1490 C.3     
  39 C39            3.8180     2.0854    -2.1237 C.3     
  40 C40            4.0665     0.8237    -2.9109 C.2     
  41 O41            5.0121     0.7588    -3.6676 O.2     
  42 C42           -1.1733    -7.0445     1.9469 C.2     
  43 C43           -1.6311    -6.8922     0.6976 C.2     
  44 S44           -0.8064    -5.5128    -0.0261 S.3     
  45 C45           -1.6752    -8.1369     2.8557 C.3     
  46 C46           -2.9525    -7.6702     3.5568 C.3     
  47 C47           -1.9752    -9.3895     2.0300 C.3     
  48 O48            4.8222    -2.1252     5.8351 O.3     
  49 C49            5.7859    -1.0870     6.0234 C.3     
  50 H50            1.7792     2.3769    -2.7485 H       
  51 H51            2.1636     3.0617    -1.1532 H       
  52 H52            0.9056    -1.9136    -1.1584 H       
  53 H53            1.1286    -0.2206    -2.8478 H       
  54 H54            4.5549    -1.8420    -3.1280 H       
  55 H55            3.3326    -3.1900    -1.7327 H       
  56 H56            1.9589    -3.1117    -2.8773 H       
  57 H57            3.6435    -3.7000    -4.8045 H       
  58 H58            0.8020    -3.0563    -4.7223 H       
  59 H59           -1.3641    -5.2481    -6.1436 H       
  60 H60            4.4017    -2.1571    -7.5585 H       
  61 H61            4.2573    -4.6528    -7.1231 H       
  62 H62            2.7653    -4.7547    -8.2025 H       
  63 H63           -3.8246    -5.3799    -6.7459 H       
  64 H64           -3.9517    -3.5437    -6.6282 H       
  65 H65           -2.2097    -3.3059    -8.4566 H       
  66 H66           -2.0826    -5.1421    -8.5743 H       
  67 H67            2.0160    -2.7442    -9.5078 H       
  68 H68            3.5570    -0.2286    -8.7947 H       
  69 H69            2.3302    -0.4739   -10.1854 H       
  70 H70            0.8922    -3.3899    -0.2760 H       
  71 H71            5.2686    -0.4866     3.8477 H       
  72 H72            4.1914    -0.5562     1.6646 H       
  73 H73            2.4123     0.7356    -0.2585 H       
  74 H74            0.7739     1.0709    -0.8622 H       
  75 H75            4.1453     2.9469    -2.7059 H       
  76 H76            4.3771     2.0460    -1.1888 H       
  77 H77           -2.3788    -7.5062     0.2177 H       
  78 H78           -0.9146    -8.3670     3.6017 H       
  79 H79           -3.7132    -7.4401     2.8108 H       
  80 H80           -3.3156    -8.4603     4.2141 H       
  81 H81           -2.7388    -6.7778     4.1450 H       
  82 H82           -1.0652    -9.7220     1.5305 H       
  83 H83           -2.3382   -10.1796     2.6873 H       
  84 H84           -2.7358    -9.1594     1.2840 H       
  85 H85            6.2013    -1.1548     7.0289 H       
  86 H86            6.5862    -1.1970     5.2915 H       
  87 H87            5.3055    -0.1173     5.8933 H       
@<TRIPOS>BOND
   1    1   38 1
   2    1   39 1
   3    1   50 1
   4    1   51 1
   5    2    3 1
   6    2    7 1
   7    2    6 1
   8    2   52 1
   9    3    4 1
  10    3   38 1
  11    3   53 1
  12    4    5 1
  13    4   40 am
  14    5    6 1
  15    5    8 1
  16    5   54 1
  17    6   55 1
  18    6   56 1
  19    7   25 1
  20    8    9 2
  21    8   10 am
  22   10   11 1
  23   10   57 1
  24   11   12 1
  25   11   17 1
  26   11   18 1
  27   12   13 am
  28   12   14 2
  29   13   15 am
  30   13   58 1
  31   15   16 1
  32   15   21 2
  33   15   22 2
  34   16   19 1
  35   16   20 1
  36   16   59 1
  37   17   18 1
  38   17   23 1
  39   17   60 1
  40   18   61 1
  41   18   62 1
  42   19   20 1
  43   19   63 1
  44   19   64 1
  45   20   65 1
  46   20   66 1
  47   23   24 2
  48   23   67 1
  49   24   68 1
  50   24   69 1
  51   25   26 ar
  52   25   27 ar
  53   26   30 ar
  54   26   35 ar
  55   27   28 ar
  56   27   70 1
  57   28   29 ar
  58   28   31 1
  59   29   30 ar
  60   30   32 ar
  61   31   37 2
  62   31   44 1
  63   32   33 ar
  64   32   36 1
  65   33   34 ar
  66   33   48 1
  67   34   35 ar
  68   34   71 1
  69   35   72 1
  70   37   42 1
  71   38   73 1
  72   38   74 1
  73   39   40 1
  74   39   75 1
  75   39   76 1
  76   40   41 2
  77   42   43 2
  78   42   45 1
  79   43   44 1
  80   43   77 1
  81   45   46 1
  82   45   47 1
  83   45   78 1
  84   46   79 1
  85   46   80 1
  86   46   81 1
  87   47   82 1
  88   47   83 1
  89   47   84 1
  90   48   49 1
  91   49   85 1
  92   49   86 1
  93   49   87 1

#	End of record

