#	Name: ASD01914376
#	Creating user name:	WinNT
#	Creation time:	15. 06. 2019 20:03

#	Modifying user name:	WinNT
#	Modification time:	15. 06. 2019 20:03

#	Program:	/corina/corina34_cracker 3.40 0067  02.08.2006

@<TRIPOS>MOLECULE
ASD01914376
  43   44    0    0    0
SMALL
NO_CHARGES


@<TRIPOS>ATOM
   1 C1             0.8760     0.4510     1.9768 C.ar    
   2 C2             0.0384     0.1321     0.9213 C.ar    
   3 C3             0.3854     0.4857    -0.3718 C.ar    
   4 C4             1.5681     1.1576    -0.6111 C.ar    
   5 C5             2.4094     1.4784     0.4459 C.ar    
   6 C6             2.0596     1.1228     1.7418 C.ar    
   7 N7             3.6090     2.1595     0.2054 N.am    
   8 C8             3.6141     3.6210     0.1050 C.3     
   9 C9             3.8422     4.2176     1.4699 C.2     
  10 C10            3.8900     5.6776     1.6354 C.ar    
  11 C11            4.1017     6.2348     2.9015 C.ar    
  12 C12            4.1458     7.6036     3.0496 C.ar    
  13 C13            3.9805     8.4292     1.9472 C.ar    
  14 C14            3.7699     7.8834     0.6894 C.ar    
  15 C15            3.7298     6.5161     0.5266 C.ar    
  16 O16            3.9864     3.4933     2.4319 O.2     
  17 F17            4.0245     9.7709     2.0993 F       
  18 F18           -1.1188    -0.5255     1.1533 F       
  19 C19            4.7590     1.4705     0.0663 C.2     
  20 O20            5.7808     2.0504    -0.2348 O.2     
  21 C21            4.7752    -0.0205     0.2850 C.3     
  22 C22            6.1950    -0.5219     0.2224 C.2     
  23 O23            7.1007     0.2520     0.0208 O.2     
  24 O24            6.4533    -1.8284     0.3905 O.3     
  25 C25            7.8438    -2.2401     0.3173 C.3     
  26 C26            7.9400    -3.7519     0.5314 C.3     
  27 H27            0.6014     0.1783     2.9851 H       
  28 H28           -0.2691     0.2357    -1.1937 H       
  29 H29            1.8386     1.4329    -1.6198 H       
  30 H30            2.7124     1.3717     2.5653 H       
  31 H31            4.4121     3.9363    -0.5673 H       
  32 H32            2.6548     3.9617    -0.2848 H       
  33 H33            4.2298     5.5931     3.7607 H       
  34 H34            4.3091     8.0349     4.0262 H       
  35 H35            3.6416     8.5317    -0.1647 H       
  36 H36            3.5657     6.0924    -0.4532 H       
  37 H37            4.3521    -0.2488     1.2632 H       
  38 H38            4.1832    -0.5078    -0.4897 H       
  39 H39            8.2471    -1.9855    -0.6628 H       
  40 H40            8.4159    -1.7266     1.0901 H       
  41 H41            7.5368    -4.0065     1.5116 H       
  42 H42            7.3679    -4.2654    -0.2413 H       
  43 H43            8.9838    -4.0610     0.4765 H       
@<TRIPOS>BOND
   1    1    2 ar
   2    1    6 ar
   3    1   27 1
   4    2    3 ar
   5    2   18 1
   6    3    4 ar
   7    3   28 1
   8    4    5 ar
   9    4   29 1
  10    5    6 ar
  11    5    7 1
  12    6   30 1
  13    7    8 1
  14    7   19 am
  15    8    9 1
  16    8   31 1
  17    8   32 1
  18    9   10 1
  19    9   16 2
  20   10   11 ar
  21   10   15 ar
  22   11   12 ar
  23   11   33 1
  24   12   13 ar
  25   12   34 1
  26   13   14 ar
  27   13   17 1
  28   14   15 ar
  29   14   35 1
  30   15   36 1
  31   19   20 2
  32   19   21 1
  33   21   22 1
  34   21   37 1
  35   21   38 1
  36   22   23 2
  37   22   24 1
  38   24   25 1
  39   25   26 1
  40   25   39 1
  41   25   40 1
  42   26   41 1
  43   26   42 1
  44   26   43 1

#	End of record

