#	Name: ASD01202027
#	Creating user name:	WinNT
#	Creation time:	15. 06. 2019 19:09

#	Modifying user name:	WinNT
#	Modification time:	15. 06. 2019 19:09

#	Program:	/corina/corina34_cracker 3.40 0067  02.08.2006

@<TRIPOS>MOLECULE
ASD01202027
  50   53    0    0    0
SMALL
NO_CHARGES


@<TRIPOS>ATOM
   1 C1             0.6577     1.5806    -0.5010 C.2     
   2 C2             0.4830     0.2054    -0.3585 C.2     
   3 C3             1.9632     1.9705    -0.5702 C.2     
   4 C4            -0.4669     2.5279    -0.5763 C.2     
   5 C5             1.6381    -0.4835    -0.3157 C.2     
   6 S6             2.9983     0.6191    -0.4580 S.3     
   7 O7            -0.2518     3.7185    -0.7012 O.2     
   8 N8            -1.7347     2.0758    -0.5069 N.am    
   9 C9             1.7461    -1.9466    -0.1714 C.ar    
  10 C10           -2.7957     2.9696    -0.5780 C.2     
  11 S11           -2.6401     4.6616    -0.7602 S.3     
  12 N12           -4.0449     2.6422    -0.5216 N.2     
  13 C13           -4.3902     4.8353    -0.7412 C.2     
  14 C14           -4.9422     3.6173    -0.6046 C.2     
  15 H15           -1.9062     1.1263    -0.4073 H       
  16 C16            2.4738    -2.5037     0.9026 C.ar    
  17 C17            2.5652    -3.8945     1.0240 C.ar    
  18 C18            1.9479    -4.7077     0.0996 C.ar    
  19 C19            1.2336    -4.1591    -0.9553 C.ar    
  20 C20            1.1251    -2.7915    -1.0919 C.ar    
  21 C21            3.1289    -1.6314     1.8829 C.2     
  22 C22            4.0235    -2.2249     2.9405 C.3     
  23 O23            2.9508    -0.4320     1.8423 O.2     
  24 C24           -6.4468     3.3987    -0.5493 C.3     
  25 C25           -7.1260     4.7326    -0.2316 C.3     
  26 C26           -6.6164     5.8064    -1.1975 C.3     
  27 C27           -5.1577     6.1305    -0.8623 C.3     
  28 C28            2.4264     3.3962    -0.7248 C.3     
  29 C29            2.6160     4.0236     0.6578 C.3     
  30 H30           -0.4876    -0.2632    -0.2891 H       
  31 H31            3.1199    -4.3302     1.8419 H       
  32 H32            2.0207    -5.7809     0.1967 H       
  33 H33            0.7548    -4.8086    -1.6731 H       
  34 H34            0.5668    -2.3739    -1.9167 H       
  35 H35            4.0612    -3.3074     2.8188 H       
  36 H36            5.0276    -1.8127     2.8403 H       
  37 H37            3.6286    -1.9838     3.9275 H       
  38 H38           -6.7982     3.0300    -1.5130 H       
  39 H39           -6.6825     2.6738     0.2298 H       
  40 H40           -8.2051     4.6266    -0.3425 H       
  41 H41           -6.8926     5.0246     0.7923 H       
  42 H42           -6.6789     5.4359    -2.2207 H       
  43 H43           -7.2235     6.7060    -1.0961 H       
  44 H44           -5.1107     6.6683     0.0846 H       
  45 H45           -4.7272     6.7422    -1.6552 H       
  46 H46            3.3731     3.4141    -1.2648 H       
  47 H47            1.6797     3.9624    -1.2814 H       
  48 H48            2.9510     5.0548     0.5460 H       
  49 H49            1.6693     4.0056     1.1978 H       
  50 H50            3.3626     3.4573     1.2145 H       
@<TRIPOS>BOND
   1    1    2 1
   2    1    3 2
   3    1    4 1
   4    2    5 2
   5    2   30 1
   6    3   28 1
   7    3    6 1
   8    4    7 2
   9    4    8 am
  10    5    9 1
  11    5    6 1
  12    8   15 1
  13    8   10 1
  14    9   16 ar
  15    9   20 ar
  16   10   12 2
  17   10   11 1
  18   11   13 1
  19   12   14 1
  20   13   14 2
  21   13   27 1
  22   14   24 1
  23   16   17 ar
  24   16   21 1
  25   17   18 ar
  26   17   31 1
  27   18   19 ar
  28   18   32 1
  29   19   20 ar
  30   19   33 1
  31   20   34 1
  32   21   22 1
  33   21   23 2
  34   22   35 1
  35   22   36 1
  36   22   37 1
  37   24   25 1
  38   24   38 1
  39   24   39 1
  40   25   26 1
  41   25   40 1
  42   25   41 1
  43   26   27 1
  44   26   42 1
  45   26   43 1
  46   27   44 1
  47   27   45 1
  48   28   29 1
  49   28   46 1
  50   28   47 1
  51   29   48 1
  52   29   49 1
  53   29   50 1

#	End of record

