#	Name: ASD02560031
#	Creating user name:	WinNT
#	Creation time:	15. 06. 2019 20:24

#	Modifying user name:	WinNT
#	Modification time:	15. 06. 2019 20:24

#	Program:	/corina/corina34_cracker 3.40 0067  02.08.2006

@<TRIPOS>MOLECULE
ASD02560031
  37   40    0    0    0
SMALL
NO_CHARGES


@<TRIPOS>ATOM
   1 C1            -0.0167     1.3794     0.0096 C.ar    
   2 C2             0.0021    -0.0041     0.0020 C.ar    
   3 C3            -1.1808    -0.7180     0.0095 C.ar    
   4 C4            -2.3944    -0.0444     0.0251 C.ar    
   5 C5            -2.4044     1.3466     0.0332 C.ar    
   6 C6            -1.2261     2.0561     0.0306 C.ar    
   7 N7            -3.6000    -0.7478     0.0333 N.am    
   8 C8            -4.7954    -0.1444     0.0489 C.2     
   9 N9            -4.9427     1.1928     0.0580 N.am    
  10 C10           -3.7432     2.0474     0.0502 C.3     
  11 C11           -3.7899     2.9063     1.2448 C.1     
  12 C12           -3.8272     3.5913     2.1975 C.1     
  13 C13           -3.8727     4.4268     3.3596 C.ar    
  14 C14           -3.8178     2.9541    -1.1799 C.3     
  15 C15           -4.9515     3.9801    -1.2336 C.3     
  16 C16           -3.5144     4.4405    -0.9814 C.3     
  17 N17           -2.8946     5.2965     3.5845 N.ar    
  18 C18           -2.8996     6.0826     4.6416 C.ar    
  19 C19           -3.9305     6.0296     5.5615 C.ar    
  20 C20           -4.9736     5.1349     5.3653 C.ar    
  21 C21           -4.9472     4.3249     4.2439 C.ar    
  22 Cl22           1.4748     2.2676     0.0002 Cl      
  23 O23           -5.7943    -0.8374     0.0546 O.2     
  24 H24            0.9461    -0.5285    -0.0102 H       
  25 H25           -1.1612    -1.7978     0.0028 H       
  26 H26           -1.2433     3.1360     0.0369 H       
  27 H27           -3.5706    -1.7173     0.0272 H       
  28 H28           -5.8279     1.5892     0.0692 H       
  29 H29           -3.5070     2.4978    -2.1198 H       
  30 H30           -5.3863     4.1991    -2.2089 H       
  31 H31           -5.6443     4.0091    -0.3926 H       
  32 H32           -3.2617     4.7725     0.0256 H       
  33 H33           -3.0038     4.9625    -1.7907 H       
  34 H34           -2.0870     6.7779     4.7920 H       
  35 H35           -3.9242     6.6782     6.4250 H       
  36 H36           -5.7897     5.0754     6.0701 H       
  37 H37           -5.7427     3.6179     4.0602 H       
@<TRIPOS>BOND
   1    1    2 ar
   2    1   22 1
   3    1    6 ar
   4    2    3 ar
   5    2   24 1
   6    3    4 ar
   7    3   25 1
   8    4    5 ar
   9    4    7 1
  10    5    6 ar
  11    5   10 1
  12    6   26 1
  13    7    8 am
  14    7   27 1
  15    8    9 am
  16    8   23 2
  17    9   10 1
  18    9   28 1
  19   10   11 1
  20   10   14 1
  21   11   12 3
  22   12   13 1
  23   13   17 ar
  24   13   21 ar
  25   14   15 1
  26   14   16 1
  27   14   29 1
  28   15   16 1
  29   15   30 1
  30   15   31 1
  31   16   32 1
  32   16   33 1
  33   17   18 ar
  34   18   19 ar
  35   18   34 1
  36   19   20 ar
  37   19   35 1
  38   20   21 ar
  39   20   36 1
  40   21   37 1

#	End of record

