#	Name: ASD01915051
#	Creating user name:	WinNT
#	Creation time:	15. 06. 2019 20:04

#	Modifying user name:	WinNT
#	Modification time:	15. 06. 2019 20:04

#	Program:	/corina/corina34_cracker 3.40 0067  02.08.2006

@<TRIPOS>MOLECULE
ASD01915051
  29   31    0    0    0
SMALL
NO_CHARGES


@<TRIPOS>ATOM
   1 C1            -0.0180     1.4729     0.0101 C.2     
   2 C2             0.0021    -0.0041     0.0020 C.ar    
   3 C3             1.2199    -0.6897    -0.0133 C.ar    
   4 C4             1.2303    -2.0707    -0.0209 C.ar    
   5 C5             0.0394    -2.7741    -0.0133 C.ar    
   6 C6            -1.1696    -2.1009     0.0018 C.ar    
   7 C7            -1.1953    -0.7218     0.0154 C.ar    
   8 O8             1.0263     2.0949     0.0035 O.2     
   9 N9            -1.1942     2.1308     0.0193 N.am    
  10 Cl10           2.7152     0.1921    -0.0234 Cl      
  11 C11           -1.2129     3.5142     0.0269 C.2     
  12 N12           -0.1061     4.3133     0.0260 N.pl3   
  13 C13           -0.5471     5.6255     0.0347 C.ar    
  14 C14           -1.9509     5.5655     0.0407 C.ar    
  15 N15           -2.2945     4.2512     0.0303 N.2     
  16 C16           -2.6898     6.7510     0.0506 C.ar    
  17 C17           -2.0371     7.9635     0.0542 C.ar    
  18 C18           -0.6513     8.0171     0.0478 C.ar    
  19 C19            0.0931     6.8554     0.0381 C.ar    
  20 H20            2.1702    -2.6025    -0.0330 H       
  21 H21            0.0530    -3.8540    -0.0196 H       
  22 H22           -2.0955    -2.6568     0.0077 H       
  23 H23           -2.1399    -0.1984     0.0317 H       
  24 H24           -2.0276     1.6345     0.0205 H       
  25 H25            0.8175     4.0169     0.0208 H       
  26 H26           -3.7692     6.7167     0.0549 H       
  27 H27           -2.6088     8.8798     0.0618 H       
  28 H28           -0.1515     8.9744     0.0500 H       
  29 H29            1.1720     6.9040     0.0337 H       
@<TRIPOS>BOND
   1    1    2 1
   2    1    8 2
   3    1    9 am
   4    2    3 ar
   5    2    7 ar
   6    3    4 ar
   7    3   10 1
   8    4    5 ar
   9    4   20 1
  10    5    6 ar
  11    5   21 1
  12    6    7 ar
  13    6   22 1
  14    7   23 1
  15    9   11 1
  16    9   24 1
  17   11   12 1
  18   11   15 2
  19   12   13 1
  20   12   25 1
  21   13   14 ar
  22   13   19 ar
  23   14   15 1
  24   14   16 ar
  25   16   17 ar
  26   16   26 1
  27   17   18 ar
  28   17   27 1
  29   18   19 ar
  30   18   28 1
  31   19   29 1

#	End of record

