#	Name: ASD05720029
#	Creating user name:	WinNT
#	Creation time:	15. 06. 2019 21:01

#	Modifying user name:	WinNT
#	Modification time:	15. 06. 2019 21:01

#	Program:	/corina/corina34_cracker 3.40 0067  02.08.2006

@<TRIPOS>MOLECULE
ASD05720029
  77   82    0    0    0
SMALL
NO_CHARGES


@<TRIPOS>ATOM
   1 O1             0.7644     1.0211     1.6344 O.3     
   2 C2             0.8673    -0.3117     1.5855 C.2     
   3 N3             1.4524    -0.7696     0.4703 N.am    
   4 C4             1.8120     0.3737    -0.3824 C.3     
   5 C5             1.3361     1.5972     0.4244 C.3     
   6 O6             0.4673    -1.0405     2.4715 O.2     
   7 C7             3.0327    -3.7428    -0.7408 C.2     
   8 N8             2.7959    -2.4614    -0.4431 N.2     
   9 C9             1.6823    -2.1056     0.1691 C.2     
  10 C10            0.7261    -3.0810     0.5179 C.2     
  11 C11            0.9627    -4.3785     0.2186 C.2     
  12 N12            2.1254    -4.7163    -0.4165 N.pl3   
  13 N13            2.6394    -5.9446    -0.8471 N.2     
  14 C14            3.8063    -5.7516    -1.4112 C.2     
  15 C15            4.1035    -4.3837    -1.3783 C.2     
  16 C16            5.3215    -3.7361    -1.9147 C.ar    
  17 C17            6.5780    -4.0978    -1.4253 C.ar    
  18 C18            7.7107    -3.4949    -1.9247 C.ar    
  19 C19            7.6031    -2.5231    -2.9194 C.ar    
  20 C20            6.3481    -2.1613    -3.4089 C.ar    
  21 C21            5.2149    -2.7675    -2.9144 C.ar    
  22 N22           10.2020    -0.6180    -4.5910 N.pl3   
  23 N23            8.8518    -0.9484    -4.3908 N.2     
  24 C24            8.8235    -1.8739    -3.4565 C.2     
  25 N25           10.0804    -2.1322    -3.0699 N.2     
  26 C26           10.9130    -1.3842    -3.7444 C.2     
  27 C27           10.7324     0.3638    -5.5402 C.3     
  28 O28           12.1572     0.4042    -5.4374 O.3     
  29 C29           12.7778     1.3355    -6.3259 C.3     
  30 C30           14.2947     1.2940    -6.1301 C.3     
  31 Si31          15.1039     2.5082    -7.2884 Si      
  32 C32           14.4776     4.2248    -6.9253 C.3     
  33 C33           16.9509     2.4576    -7.0500 C.3     
  34 C34           14.6923     2.0564    -9.0483 C.3     
  35 C35            1.0789     0.2958    -1.7231 C.3     
  36 C36            1.3079     1.5905    -2.5056 C.3     
  37 C37            0.5748     1.5125    -3.8462 C.3     
  38 C38            1.1107     0.3278    -4.6525 C.3     
  39 C39            0.8817    -0.9669    -3.8700 C.3     
  40 C40            1.6148    -0.8890    -2.5293 C.3     
  41 H41            2.8904     0.4124    -0.5363 H       
  42 H42            0.5782     2.1498    -0.1308 H       
  43 H43            2.1784     2.2439     0.6702 H       
  44 H44           -0.1865    -2.7949     1.0196 H       
  45 H45            0.2415    -5.1392     0.4786 H       
  46 H46            4.4342    -6.5211    -1.8353 H       
  47 H47            6.6614    -4.8500    -0.6548 H       
  48 H48            8.6827    -3.7744    -1.5459 H       
  49 H49            6.2654    -1.4087    -4.1791 H       
  50 H50            4.2436    -2.4907    -3.2969 H       
  51 H51           11.9880    -1.3819    -3.6403 H       
  52 H52           10.4492     0.0793    -6.5536 H       
  53 H53           10.3236     1.3480    -5.3114 H       
  54 H54           12.5370     1.0712    -7.3556 H       
  55 H55           12.4114     2.3399    -6.1134 H       
  56 H56           14.5355     1.5583    -5.1004 H       
  57 H57           14.6611     0.2897    -6.3425 H       
  58 H58           14.7184     4.4891    -5.8956 H       
  59 H59           14.9511     4.9352    -7.6030 H       
  60 H60           13.3970     4.2544    -7.0648 H       
  61 H61           17.3173     1.4533    -7.2624 H       
  62 H62           17.4243     3.1680    -7.7277 H       
  63 H63           17.1917     2.7220    -6.0203 H       
  64 H64           13.6117     2.0860    -9.1878 H       
  65 H65           15.1657     2.7668    -9.7260 H       
  66 H66           15.0587     1.0520    -9.2608 H       
  67 H67            0.0117     0.1620    -1.5464 H       
  68 H68            0.9261     2.4345    -1.9312 H       
  69 H69            2.3751     1.7242    -2.6823 H       
  70 H70           -0.4925     1.3787    -3.6695 H       
  71 H71            0.7379     2.4349    -4.4037 H       
  72 H72            0.5884     0.2722    -5.6076 H       
  73 H73            2.1779     0.4616    -4.8292 H       
  74 H74           -0.1855    -1.1007    -3.6932 H       
  75 H75            1.2635    -1.8110    -4.4443 H       
  76 H76            2.6820    -0.7552    -2.7060 H       
  77 H77            1.4517    -1.8113    -1.9718 H       
@<TRIPOS>BOND
   1    1    2 1
   2    1    5 1
   3    2    3 am
   4    2    6 2
   5    3    4 1
   6    3    9 1
   7    4    5 1
   8    4   35 1
   9    4   41 1
  10    5   42 1
  11    5   43 1
  12    7    8 1
  13    7   12 1
  14    7   15 2
  15    8    9 2
  16    9   10 1
  17   10   11 2
  18   10   44 1
  19   11   12 1
  20   11   45 1
  21   12   13 1
  22   13   14 2
  23   14   15 1
  24   14   46 1
  25   15   16 1
  26   16   17 ar
  27   16   21 ar
  28   17   18 ar
  29   17   47 1
  30   18   19 ar
  31   18   48 1
  32   19   20 ar
  33   19   24 1
  34   20   21 ar
  35   20   49 1
  36   21   50 1
  37   22   23 1
  38   22   26 1
  39   22   27 1
  40   23   24 2
  41   24   25 1
  42   25   26 2
  43   26   51 1
  44   27   28 1
  45   27   52 1
  46   27   53 1
  47   28   29 1
  48   29   30 1
  49   29   54 1
  50   29   55 1
  51   30   31 1
  52   30   56 1
  53   30   57 1
  54   31   32 1
  55   31   33 1
  56   31   34 1
  57   32   58 1
  58   32   59 1
  59   32   60 1
  60   33   61 1
  61   33   62 1
  62   33   63 1
  63   34   64 1
  64   34   65 1
  65   34   66 1
  66   35   36 1
  67   35   40 1
  68   35   67 1
  69   36   37 1
  70   36   68 1
  71   36   69 1
  72   37   38 1
  73   37   70 1
  74   37   71 1
  75   38   39 1
  76   38   72 1
  77   38   73 1
  78   39   40 1
  79   39   74 1
  80   39   75 1
  81   40   76 1
  82   40   77 1

#	End of record

