#	Name: ASD03090304
#	Creating user name:	WinNT
#	Creation time:	15. 06. 2019 20:28

#	Modifying user name:	WinNT
#	Modification time:	15. 06. 2019 20:28

#	Program:	/corina/corina34_cracker 3.40 0067  02.08.2006

@<TRIPOS>MOLECULE
ASD03090304
  58   60    0    0    0
SMALL
NO_CHARGES


@<TRIPOS>ATOM
   1 C1            -0.3050     1.4332    -1.4436 C.ar    
   2 C2            -0.2781     0.0401    -1.4561 C.ar    
   3 C3            -1.4226    -0.6758    -1.1595 C.ar    
   4 C4            -2.6038    -0.0000    -0.8479 C.ar    
   5 C5            -2.6242     1.3949    -0.8371 C.ar    
   6 C6            -1.4771     2.1040    -1.1284 C.ar    
   7 C7            -3.8312    -0.7614    -0.5303 C.2     
   8 N8            -5.5888    -3.6390     0.4652 N.pl3   
   9 C9            -4.6555    -4.6186     0.8141 C.ar    
  10 C10           -3.4567    -4.2548     1.4150 C.ar    
  11 C11           -2.5343    -5.2237     1.7603 C.ar    
  12 C12           -2.8009    -6.5560     1.5090 C.ar    
  13 C13           -3.9967    -6.9255     0.9085 C.ar    
  14 C14           -4.9272    -5.9575     0.5662 C.ar    
  15 N15           -3.8848    -2.0212    -0.1453 N.2     
  16 C16           -5.1555    -2.3771     0.0532 C.2     
  17 N17           -5.9328    -1.3503    -0.2019 N.2     
  18 N18           -5.0965    -0.2868    -0.5778 N.pl3   
  19 C19           -5.5128     1.0662    -0.9552 C.3     
  20 C20           -5.6171     1.9227     0.2803 C.2     
  21 N21           -5.9870     3.2145     0.1754 N.am    
  22 O22           -4.2568    -8.2362     0.6613 O.3     
  23 O23           -5.3681     1.4497     1.3689 O.2     
  24 C24           -6.0884     4.0472     1.3765 C.3     
  25 C25           -5.9016     5.5171     0.9953 C.3     
  26 O26            0.8212     2.1360    -1.7355 O.3     
  27 C27            0.7229     3.5612    -1.7042 C.3     
  28 O28            0.8741    -0.6152    -1.7605 O.3     
  29 C29            0.8292    -2.0435    -1.7543 C.3     
  30 C30           -7.4660     3.8568     2.0143 C.3     
  31 C31           -3.2550    -9.1801     1.0454 C.3     
  32 F32           -3.0374    -9.0937     2.4247 F       
  33 F33           -3.6826   -10.4720     0.7208 F       
  34 F34           -2.0644    -8.8986     0.3669 F       
  35 H35           -1.4033    -1.7555    -1.1691 H       
  36 H36           -3.5370     1.9198    -0.5967 H       
  37 H37           -1.4943     3.1838    -1.1197 H       
  38 H38           -6.5376    -3.8355     0.5091 H       
  39 H39           -3.2456    -3.2141     1.6118 H       
  40 H40           -1.6030    -4.9391     2.2272 H       
  41 H41           -2.0776    -7.3110     1.7798 H       
  42 H42           -5.8581    -6.2431     0.0989 H       
  43 H43           -4.7771     1.4965    -1.6347 H       
  44 H44           -6.4830     1.0229    -1.4503 H       
  45 H45           -6.1862     3.5928    -0.6952 H       
  46 H46           -5.3154     3.7551     2.0874 H       
  47 H47           -6.6745     5.8091     0.2844 H       
  48 H48           -5.9770     6.1366     1.8889 H       
  49 H49           -4.9201     5.6527     0.5409 H       
  50 H50            0.4273     3.8832    -0.7057 H       
  51 H51            1.6896     3.9977    -1.9553 H       
  52 H52           -0.0232     3.8899    -2.4277 H       
  53 H53            1.8114    -2.4390    -2.0131 H       
  54 H54            0.5466    -2.3938    -0.7615 H       
  55 H55            0.0955    -2.3871    -2.4834 H       
  56 H56           -7.5991     2.8097     2.2859 H       
  57 H57           -7.5415     4.4764     2.9079 H       
  58 H58           -8.2390     4.1489     1.3034 H       
@<TRIPOS>BOND
   1    1    2 ar
   2    1   26 1
   3    1    6 ar
   4    2    3 ar
   5    2   28 1
   6    3    4 ar
   7    3   35 1
   8    4    5 ar
   9    4    7 1
  10    5    6 ar
  11    5   36 1
  12    6   37 1
  13    7   15 2
  14    7   18 1
  15    8    9 1
  16    8   16 1
  17    8   38 1
  18    9   10 ar
  19    9   14 ar
  20   10   11 ar
  21   10   39 1
  22   11   12 ar
  23   11   40 1
  24   12   13 ar
  25   12   41 1
  26   13   14 ar
  27   13   22 1
  28   14   42 1
  29   15   16 1
  30   16   17 2
  31   17   18 1
  32   18   19 1
  33   19   20 1
  34   19   43 1
  35   19   44 1
  36   20   21 am
  37   20   23 2
  38   21   24 1
  39   21   45 1
  40   22   31 1
  41   24   25 1
  42   24   30 1
  43   24   46 1
  44   25   47 1
  45   25   48 1
  46   25   49 1
  47   26   27 1
  48   27   50 1
  49   27   51 1
  50   27   52 1
  51   28   29 1
  52   29   53 1
  53   29   54 1
  54   29   55 1
  55   30   56 1
  56   30   57 1
  57   30   58 1
  58   31   32 1
  59   31   33 1
  60   31   34 1

#	End of record

