#	Name: ASD01510098
#	Creating user name:	WinNT
#	Creation time:	15. 06. 2019 19:21

#	Modifying user name:	WinNT
#	Modification time:	15. 06. 2019 19:21

#	Program:	/corina/corina34_cracker 3.40 0067  02.08.2006

@<TRIPOS>MOLECULE
ASD01510098
  32   33    0    0    0
SMALL
NO_CHARGES


@<TRIPOS>ATOM
   1 C1            -0.0173     1.4248     0.0099 C.3     
   2 O2             0.0021    -0.0041     0.0020 O.3     
   3 C3            -1.1983    -0.6364     0.0101 C.ar    
   4 C4            -1.2433    -2.0230     0.0031 C.ar    
   5 C5            -2.4739    -2.6614     0.0114 C.ar    
   6 C6            -3.6215    -1.8870     0.0265 C.ar    
   7 C7            -3.5053    -0.5016     0.0328 C.ar    
   8 N8            -2.3133     0.0763     0.0300 N.ar    
   9 N9            -4.6512     0.2849     0.0480 N.3     
  10 C10           -4.3090     1.7140     0.0524 C.3     
  11 C11           -5.5936     2.5436    -0.0112 C.3     
  12 N12           -6.4488     2.2063     1.1353 N.3     
  13 C13           -6.7910     0.7771     1.1309 C.3     
  14 C14           -5.5064    -0.0525     1.1945 C.3     
  15 C15           -7.6599     3.0375     1.1513 C.3     
  16 H16            1.0053     1.8021     0.0021 H       
  17 H17           -0.5445     1.7859    -0.8732 H       
  18 H18           -0.5275     1.7763     0.9067 H       
  19 H19           -0.3297    -2.5988    -0.0091 H       
  20 H20           -2.5360    -3.7396     0.0058 H       
  21 H21           -4.5954    -2.3536     0.0329 H       
  22 H22           -3.7654     1.9550     0.9659 H       
  23 H23           -3.6860     1.9415    -0.8126 H       
  24 H24           -5.3436     3.6041     0.0212 H       
  25 H25           -6.1237     2.3228    -0.9377 H       
  26 H26           -7.4139     0.5496     1.9959 H       
  27 H27           -7.3346     0.5361     0.2174 H       
  28 H28           -5.7563    -1.1129     1.1621 H       
  29 H29           -4.9763     0.1684     2.1210 H       
  30 H30           -8.2250     2.8740     0.2337 H       
  31 H31           -8.2748     2.7672     2.0098 H       
  32 H32           -7.3785     4.0882     1.2224 H       
@<TRIPOS>BOND
   1    1    2 1
   2    1   16 1
   3    1   17 1
   4    1   18 1
   5    2    3 1
   6    3    4 ar
   7    3    8 ar
   8    4    5 ar
   9    4   19 1
  10    5    6 ar
  11    5   20 1
  12    6    7 ar
  13    6   21 1
  14    7    8 ar
  15    7    9 1
  16    9   10 1
  17    9   14 1
  18   10   11 1
  19   10   22 1
  20   10   23 1
  21   11   12 1
  22   11   24 1
  23   11   25 1
  24   12   13 1
  25   12   15 1
  26   13   14 1
  27   13   26 1
  28   13   27 1
  29   14   28 1
  30   14   29 1
  31   15   30 1
  32   15   31 1
  33   15   32 1

#	End of record

