#	Name: ASD02039478
#	Creating user name:	WinNT
#	Creation time:	15. 06. 2019 20:18

#	Modifying user name:	WinNT
#	Modification time:	15. 06. 2019 20:18

#	Program:	/corina/corina34_cracker 3.40 0067  02.08.2006

@<TRIPOS>MOLECULE
ASD02039478
  52   54    0    0    0
SMALL
NO_CHARGES


@<TRIPOS>ATOM
   1 C1             0.1044     1.2090     0.1081 C.ar    
   2 C2             0.2871    -0.1658     0.1477 C.ar    
   3 C3             1.2868     2.1432     0.0961 C.3     
   4 N4             1.7678     2.3046    -1.2783 N.am    
   5 C5             1.3586     3.3555    -2.0164 C.2     
   6 C6             0.3393     4.2767    -1.4848 C.2     
   7 C7            -0.2371     5.3155    -2.1554 C.2     
   8 N8            -0.2020     4.2429    -0.2402 N.2     
   9 C9            -1.0670     5.2096    -0.1310 C.2     
  10 N10           -1.1137     5.8958    -1.3025 N.pl3   
  11 O11            1.8310     3.5432    -3.1213 O.2     
  12 C12           -1.9602     7.0562    -1.5908 C.3     
  13 C13            2.6934     1.3237    -1.8503 C.3     
  14 C14           -0.8183    -0.9967     0.1572 C.ar    
  15 N15           -2.0381    -0.5001     0.1293 N.ar    
  16 C16           -2.2557     0.8082     0.0911 C.ar    
  17 C17           -1.1884     1.7032     0.0740 C.ar    
  18 C18           -3.6470     1.3220     0.0606 C.ar    
  19 C19           -4.7209     0.4339     0.0721 C.ar    
  20 C20           -6.0132     0.9174     0.0442 C.ar    
  21 C21           -6.2436     2.2808     0.0043 C.ar    
  22 C22           -5.1815     3.1669    -0.0073 C.ar    
  23 C23           -3.8851     2.6947     0.0263 C.ar    
  24 S24           -7.9411     2.9076    -0.0334 Du      
  25 C25            2.0919     0.7411    -3.1308 C.3     
  26 C26            4.0230     2.0069    -2.1764 C.3     
  27 F27           -7.5603     4.0061     1.0803 F       
  28 F28           -8.3220     1.8092    -1.1472 F       
  29 F29           -7.5325     3.9443    -1.1955 F       
  30 F30           -8.3497     1.8710     1.1287 F       
  31 F31           -9.4511     3.4652    -0.0670 F       
  32 H32            1.2830    -0.5830     0.1705 H       
  33 H33            0.9874     3.1134     0.4925 H       
  34 H34            2.0837     1.7287     0.7136 H       
  35 H35           -0.0328     5.6174    -3.1721 H       
  36 H36           -1.6549     5.4287     0.7481 H       
  37 H37           -1.4277     7.9694    -1.3251 H       
  38 H38           -2.2035     7.0735    -2.6531 H       
  39 H39           -2.8792     6.9891    -1.0086 H       
  40 H40            2.8635     0.5223    -1.1314 H       
  41 H41           -0.6797    -2.0674     0.1877 H       
  42 H42           -1.3669     2.7679     0.0433 H       
  43 H43           -4.5422    -0.6308     0.1025 H       
  44 H44           -6.8462     0.2301     0.0530 H       
  45 H45           -5.3671     4.2304    -0.0384 H       
  46 H46           -3.0565     3.3874     0.0172 H       
  47 H47            1.8487     1.5506    -3.8190 H       
  48 H48            2.8129     0.0708    -3.5986 H       
  49 H49            1.1855     0.1869    -2.8870 H       
  50 H50            4.4927     2.3471    -1.2535 H       
  51 H51            4.6815     1.2990    -2.6796 H       
  52 H52            3.8421     2.8615    -2.8284 H       
@<TRIPOS>BOND
   1    1    2 ar
   2    1    3 1
   3    1   17 ar
   4    2   14 ar
   5    2   32 1
   6    3    4 1
   7    3   33 1
   8    3   34 1
   9    4    5 am
  10    4   13 1
  11    5    6 1
  12    5   11 2
  13    6    7 2
  14    6    8 1
  15    7   10 1
  16    7   35 1
  17    8    9 2
  18    9   10 1
  19    9   36 1
  20   10   12 1
  21   12   37 1
  22   12   38 1
  23   12   39 1
  24   13   25 1
  25   13   26 1
  26   13   40 1
  27   14   15 ar
  28   14   41 1
  29   15   16 ar
  30   16   17 ar
  31   16   18 1
  32   17   42 1
  33   18   19 ar
  34   18   23 ar
  35   19   20 ar
  36   19   43 1
  37   20   21 ar
  38   20   44 1
  39   21   22 ar
  40   21   24 1
  41   22   23 ar
  42   22   45 1
  43   23   46 1
  44   24   27 1
  45   24   28 1
  46   24   29 1
  47   24   30 1
  48   24   31 1
  49   25   47 1
  50   25   48 1
  51   25   49 1
  52   26   50 1
  53   26   51 1
  54   26   52 1

#	End of record

