#	Name: ASD01940260
#	Creating user name:	WinNT
#	Creation time:	15. 06. 2019 20:12

#	Modifying user name:	WinNT
#	Modification time:	15. 06. 2019 20:12

#	Program:	/corina/corina34_cracker 3.40 0067  02.08.2006

@<TRIPOS>MOLECULE
ASD01940260
  59   60    0    0    0
SMALL
NO_CHARGES


@<TRIPOS>ATOM
   1 C1            -0.8469    -0.1683     0.7303 C.ar    
   2 C2            -1.0138    -0.7552     1.9749 C.ar    
   3 C3            -2.0934    -0.4060     2.7690 C.ar    
   4 C4            -3.0109     0.5308     2.3231 C.ar    
   5 C5            -2.8499     1.1232     1.0764 C.ar    
   6 C6            -1.7619     0.7773     0.2797 C.ar    
   7 N7            -1.5949     1.3733    -0.9811 N.am    
   8 S8            -0.2265     1.0731    -1.8641 S.o2    
   9 O9            -0.2019    -0.3409    -2.0026 O.2     
  10 O10           -0.3499     1.9184    -2.9997 O.2     
  11 F11           -2.2523    -0.9809     3.9812 F       
  12 F12           -4.0631     0.8686     3.1003 F       
  13 N13           -3.7785     2.0708     0.6239 N.pl3   
  14 C14           -5.1111     1.7009     0.4184 C.ar    
  15 C15           -6.1395     2.5561     0.8023 C.ar    
  16 C16           -5.4115     0.4821    -0.1744 C.ar    
  17 C17           -6.7295     0.1196    -0.3766 C.ar    
  18 C18           -7.7495     0.9688     0.0100 C.ar    
  19 C19           -7.4555     2.1866     0.5967 C.ar    
  20 F20           -5.8522     3.7454     1.3753 F       
  21 C21           -9.1853     0.5693    -0.2136 C.3     
  22 C22            1.1313     1.6321    -0.7990 C.3     
  23 C23            2.4508     1.5494    -1.5690 C.3     
  24 C24            0.8807     3.0794    -0.3705 C.3     
  25 O25            0.2146    -0.5130    -0.0479 O.3     
  26 C26            1.1698    -1.4120     0.5191 C.3     
  27 C27            2.7372     0.0917    -1.9350 C.3     
  28 C28            3.9886     0.0227    -2.8126 C.3     
  29 C29            4.2750    -1.4351    -3.1785 C.3     
  30 O30            3.2141    -1.9392    -3.9924 O.3     
  31 C31            5.5934    -1.5175    -3.9506 C.3     
  32 O32            5.9198    -2.8878    -4.1909 O.3     
  33 H33           -0.3007    -1.4863     2.3260 H       
  34 H34           -2.2811     1.9607    -1.3345 H       
  35 H35           -3.4966     2.9831     0.4535 H       
  36 H36           -4.6157    -0.1821    -0.4776 H       
  37 H37           -6.9631    -0.8287    -0.8377 H       
  38 H38           -8.2549     2.8474     0.8979 H       
  39 H39           -9.5517     0.0274     0.6583 H       
  40 H40           -9.7912     1.4623    -0.3673 H       
  41 H41           -9.2517    -0.0706    -1.0935 H       
  42 H42            1.1856     0.9959     0.0844 H       
  43 H43            2.3783     2.1450    -2.4791 H       
  44 H44            3.2592     1.9335    -0.9469 H       
  45 H45            1.7378     3.4443     0.1954 H       
  46 H46            0.7379     3.7005    -1.2547 H       
  47 H47           -0.0122     3.1242     0.2531 H       
  48 H48            2.0042    -1.5381    -0.1709 H       
  49 H49            1.5362    -1.0056     1.4618 H       
  50 H50            0.6977    -2.3779     0.6988 H       
  51 H51            2.8993    -0.4862    -1.0251 H       
  52 H52            1.8878    -0.3197    -2.4803 H       
  53 H53            3.8265     0.6006    -3.7225 H       
  54 H54            4.8380     0.4340    -2.2673 H       
  55 H55            4.3491    -2.0303    -2.2684 H       
  56 H56            3.0903    -1.4561    -4.8209 H       
  57 H57            5.4903    -0.9962    -4.9022 H       
  58 H58            6.3867    -1.0523    -3.3655 H       
  59 H59            6.7456    -3.0159    -4.6774 H       
@<TRIPOS>BOND
   1    1    2 ar
   2    1   25 1
   3    1    6 ar
   4    2    3 ar
   5    2   33 1
   6    3    4 ar
   7    3   11 1
   8    4    5 ar
   9    4   12 1
  10    5    6 ar
  11    5   13 1
  12    6    7 1
  13    7    8 am
  14    7   34 1
  15    8    9 2
  16    8   10 2
  17    8   22 1
  18   13   14 1
  19   13   35 1
  20   14   15 ar
  21   14   16 ar
  22   15   20 1
  23   15   19 ar
  24   16   17 ar
  25   16   36 1
  26   17   18 ar
  27   17   37 1
  28   18   19 ar
  29   18   21 1
  30   19   38 1
  31   21   39 1
  32   21   40 1
  33   21   41 1
  34   22   23 1
  35   22   24 1
  36   22   42 1
  37   23   27 1
  38   23   43 1
  39   23   44 1
  40   24   45 1
  41   24   46 1
  42   24   47 1
  43   25   26 1
  44   26   48 1
  45   26   49 1
  46   26   50 1
  47   27   28 1
  48   27   51 1
  49   27   52 1
  50   28   29 1
  51   28   53 1
  52   28   54 1
  53   29   30 1
  54   29   31 1
  55   29   55 1
  56   30   56 1
  57   31   32 1
  58   31   57 1
  59   31   58 1
  60   32   59 1

#	End of record

