#	Name: ASD02408098
#	Creating user name:	WinNT
#	Creation time:	15. 06. 2019 20:21

#	Modifying user name:	WinNT
#	Modification time:	15. 06. 2019 20:21

#	Program:	/corina/corina34_cracker 3.40 0067  02.08.2006

@<TRIPOS>MOLECULE
ASD02408098
  40   42    0    0    0
SMALL
NO_CHARGES


@<TRIPOS>ATOM
   1 C1            -0.2628     1.8508    -0.0069 C.ar    
   2 C2            -0.3964     0.4812    -0.1363 C.ar    
   3 C3             1.1075     2.4778    -0.0096 C.3     
   4 C4             1.5796     2.6594     1.4100 C.2     
   5 N5             2.7904     3.2081     1.6284 N.am    
   6 N6             0.7995     2.2847     2.3872 N.2     
   7 C7             1.1662     2.4222     3.6678 C.2     
   8 C8             2.4190     2.9824     3.9675 C.2     
   9 C9             3.2446     3.3858     2.8868 C.2     
  10 N10            0.3263     2.0202     4.6772 N.pl3   
  11 C11           -0.5997     0.8797     4.6184 C.3     
  12 O12            4.3412     3.8778     3.0900 O.2     
  13 C13           -1.6536    -0.0940    -0.1338 C.ar    
  14 C14           -2.7768     0.7004    -0.0014 C.ar    
  15 C15           -2.6432     2.0703     0.1289 C.ar    
  16 C16           -1.3867     2.6461     0.1193 C.ar    
  17 C17           -1.2410     4.1393     0.2613 C.3     
  18 C18           -1.3505     0.8291     5.9657 C.3     
  19 C19           -1.2138     2.2813     6.4945 C.3     
  20 C20            0.2084     2.6569     6.0017 C.3     
  21 C21            2.8477     3.1464     5.3239 C.1     
  22 N22            3.1878     3.2764     6.4000 N.1     
  23 H23            0.4813    -0.1395    -0.2397 H       
  24 H24            1.8025     1.8298    -0.5436 H       
  25 H25            1.0622     3.4480    -0.5043 H       
  26 H26            3.3399     3.4770     0.8757 H       
  27 H27           -1.3097     1.0204     3.8034 H       
  28 H28           -0.0408    -0.0443     4.4705 H       
  29 H29           -1.7580    -1.1642    -0.2356 H       
  30 H30           -3.7589     0.2511    -0.0002 H       
  31 H31           -3.5209     2.6911     0.2319 H       
  32 H32           -1.1511     4.3968     1.3166 H       
  33 H33           -0.3488     4.4695    -0.2706 H       
  34 H34           -2.1178     4.6315    -0.1594 H       
  35 H35           -2.3985     0.5710     5.8137 H       
  36 H36           -0.8735     0.1242     6.6467 H       
  37 H37           -1.9686     2.9310     6.0517 H       
  38 H38           -1.2678     2.3075     7.5828 H       
  39 H39            0.9623     2.2658     6.6849 H       
  40 H40            0.3042     3.7387     5.9086 H       
@<TRIPOS>BOND
   1    1    2 ar
   2    1    3 1
   3    1   16 ar
   4    2   13 ar
   5    2   23 1
   6    3    4 1
   7    3   24 1
   8    3   25 1
   9    4    5 1
  10    4    6 2
  11    5    9 am
  12    5   26 1
  13    6    7 1
  14    7    8 2
  15    7   10 1
  16    8    9 1
  17    8   21 1
  18    9   12 2
  19   10   11 1
  20   10   20 1
  21   11   18 1
  22   11   27 1
  23   11   28 1
  24   13   14 ar
  25   13   29 1
  26   14   15 ar
  27   14   30 1
  28   15   16 ar
  29   15   31 1
  30   16   17 1
  31   17   32 1
  32   17   33 1
  33   17   34 1
  34   18   19 1
  35   18   35 1
  36   18   36 1
  37   19   20 1
  38   19   37 1
  39   19   38 1
  40   20   39 1
  41   20   40 1
  42   21   22 3

#	End of record

