#	Name: ASD01901553
#	Creating user name:	WinNT
#	Creation time:	15. 06. 2019 19:53

#	Modifying user name:	WinNT
#	Modification time:	15. 06. 2019 19:53

#	Program:	/corina/corina34_cracker 3.40 0067  02.08.2006

@<TRIPOS>MOLECULE
ASD01901553
  47   52    0    0    0
SMALL
NO_CHARGES


@<TRIPOS>ATOM
   1 C1             1.6789     2.3282    -0.4153 C.3     
   2 N2             1.3844     0.8931    -0.4166 N.pl3   
   3 N3             1.3087     0.0813    -1.5531 N.2     
   4 C4             1.0302    -1.1439    -1.2101 C.2     
   5 C5             0.9062    -1.1826     0.2434 C.ar    
   6 C6             0.6248    -2.1935     1.1688 C.ar    
   7 C7             0.5791    -1.8960     2.5003 C.ar    
   8 C8             0.2766    -2.9841     3.4981 C.3     
   9 C9             1.5634    -3.6308     3.9418 C.2     
  10 N10            2.1427    -4.6500     3.3846 N.2     
  11 O11            3.3297    -4.9661     4.0839 O.3     
  12 C12            3.4846    -4.1062     5.1112 C.ar    
  13 C13            4.4507    -3.9626     6.0962 C.ar    
  14 C14            4.3278    -2.9529     7.0380 C.ar    
  15 N15            5.2983    -2.8077     8.0285 N.pl3   
  16 C16            4.9499    -2.2838     9.2774 C.2     
  17 N17            3.7420    -1.9899     9.6797 N.2     
  18 N18            3.7806    -1.4888    10.9850 N.pl3   
  19 H19            3.0105    -1.2016    11.5002 H       
  20 C20            5.0795    -1.4689    11.4199 C.ar    
  21 C21            5.6961    -1.0792    12.6083 C.ar    
  22 C22            7.0686    -1.1997    12.7023 C.ar    
  23 C23            7.7896    -1.6991    11.6255 C.ar    
  24 N24            7.1932    -2.0618    10.5127 N.ar    
  25 C25            5.8729    -1.9720    10.3712 C.ar    
  26 C26            3.2396    -2.0810     7.0010 C.ar    
  27 C27            2.2819    -2.2113     6.0378 C.ar    
  28 C28            2.3931    -3.2205     5.0769 C.ar    
  29 C29            0.8093    -0.6000     2.9443 C.ar    
  30 C30            1.0860     0.4041     2.0599 C.ar    
  31 C31            1.1447     0.1297     0.6960 C.ar    
  32 H32            2.7559     2.4780    -0.3401 H       
  33 H33            1.3136     2.7749    -1.3400 H       
  34 H34            1.1863     2.7995     0.4352 H       
  35 H35            0.9121    -1.9815    -1.8815 H       
  36 H36            0.4444    -3.2035     0.8316 H       
  37 H37           -0.2307    -2.5542     4.3618 H       
  38 H38           -0.3658    -3.7332     3.0352 H       
  39 H39            5.2952    -4.6350     6.1293 H       
  40 H40            6.2152    -3.0701     7.8513 H       
  41 H41            5.1157    -0.6930    13.4332 H       
  42 H42            7.5785    -0.9068    13.6082 H       
  43 H43            8.8628    -1.7907    11.7046 H       
  44 H44            3.1543    -1.2978     7.7397 H       
  45 H45            1.4418    -1.5330     6.0151 H       
  46 H46            0.7686    -0.3833     4.0015 H       
  47 H47            1.2630     1.4074     2.4182 H       
@<TRIPOS>BOND
   1    1    2 1
   2    1   32 1
   3    1   33 1
   4    1   34 1
   5    2   31 1
   6    2    3 1
   7    3    4 2
   8    4    5 1
   9    4   35 1
  10    5   31 ar
  11    5    6 ar
  12    6    7 ar
  13    6   36 1
  14    7    8 1
  15    7   29 ar
  16    8    9 1
  17    8   37 1
  18    8   38 1
  19    9   28 1
  20    9   10 2
  21   10   11 1
  22   11   12 1
  23   12   28 ar
  24   12   13 ar
  25   13   14 ar
  26   13   39 1
  27   14   15 1
  28   14   26 ar
  29   15   16 1
  30   15   40 1
  31   16   25 1
  32   16   17 2
  33   17   18 1
  34   18   19 1
  35   18   20 1
  36   20   25 ar
  37   20   21 ar
  38   21   22 ar
  39   21   41 1
  40   22   23 ar
  41   22   42 1
  42   23   24 ar
  43   23   43 1
  44   24   25 ar
  45   26   27 ar
  46   26   44 1
  47   27   28 ar
  48   27   45 1
  49   29   30 ar
  50   29   46 1
  51   30   31 ar
  52   30   47 1

#	End of record

