#	Name: ASD01901045
#	Creating user name:	WinNT
#	Creation time:	15. 06. 2019 19:53

#	Modifying user name:	WinNT
#	Modification time:	15. 06. 2019 19:53

#	Program:	/corina/corina34_cracker 3.40 0067  02.08.2006

@<TRIPOS>MOLECULE
ASD01901045
  40   42    0    0    0
SMALL
NO_CHARGES


@<TRIPOS>ATOM
   1 C1             0.8141     2.4980    -0.1111 C.ar    
   2 C2             1.9652     2.8197     0.6049 C.ar    
   3 C3             3.1023     2.0464     0.4340 C.ar    
   4 C4             3.0489     0.9776    -0.4474 C.ar    
   5 C5             1.8699     0.7155    -1.1265 C.ar    
   6 N6             0.8050     1.4659    -0.9455 N.ar    
   7 C7            -0.4116     3.3110     0.0649 C.2     
   8 O8            -0.4104     4.2541     0.8314 O.2     
   9 N9            -1.5282     3.0048    -0.6249 N.am    
  10 C10           -2.7120     3.7104    -0.3881 C.ar    
  11 C11           -2.6659     5.0650    -0.0843 C.ar    
  12 C12           -3.8370     5.7590     0.1486 C.ar    
  13 C13           -5.0544     5.1068     0.0802 C.ar    
  14 C14           -5.1038     3.7582    -0.2220 C.ar    
  15 C15           -3.9368     3.0596    -0.4617 C.ar    
  16 S16           -6.5460     5.9958     0.3792 S.o2    
  17 O17           -7.5372     5.0249     0.6859 O.2     
  18 O18           -6.2080     7.0643     1.2529 O.2     
  19 N19           -6.9990     6.6896    -1.0546 N.am    
  20 C20           -6.1628     7.6231    -1.6745 C.ar    
  21 C21           -5.9059     7.5303    -3.0362 C.ar    
  22 C22           -5.0795     8.4545    -3.6468 C.ar    
  23 C23           -4.5072     9.4728    -2.9007 C.ar    
  24 C24           -4.7622     9.5661    -1.5435 C.ar    
  25 C25           -5.5928     8.6477    -0.9306 C.ar    
  26 F26           -3.6992    10.3752    -3.4989 F       
  27 Cl27          -4.7575     8.3396    -5.3488 Cl      
  28 H28            1.9713     3.6601     1.2833 H       
  29 H29            4.0096     2.2713     0.9749 H       
  30 H30            3.9178     0.3556    -0.6034 H       
  31 H31            1.8249    -0.1160    -1.8141 H       
  32 H32           -1.5107     2.2949    -1.2857 H       
  33 H33           -1.7154     5.5748    -0.0300 H       
  34 H34           -3.8019     6.8123     0.3849 H       
  35 H35           -6.0562     3.2517    -0.2744 H       
  36 H36           -3.9763     2.0073    -0.7016 H       
  37 H37           -7.8444     6.4483    -1.4645 H       
  38 H38           -6.3513     6.7364    -3.6174 H       
  39 H39           -4.3147    10.3599    -0.9638 H       
  40 H40           -5.7947     8.7239     0.1277 H       
@<TRIPOS>BOND
   1    1    2 ar
   2    1    6 ar
   3    1    7 1
   4    2    3 ar
   5    2   28 1
   6    3    4 ar
   7    3   29 1
   8    4    5 ar
   9    4   30 1
  10    5    6 ar
  11    5   31 1
  12    7    8 2
  13    7    9 am
  14    9   10 1
  15    9   32 1
  16   10   11 ar
  17   10   15 ar
  18   11   12 ar
  19   11   33 1
  20   12   13 ar
  21   12   34 1
  22   13   14 ar
  23   13   16 1
  24   14   15 ar
  25   14   35 1
  26   15   36 1
  27   16   17 2
  28   16   18 2
  29   16   19 am
  30   19   20 1
  31   19   37 1
  32   20   21 ar
  33   20   25 ar
  34   21   22 ar
  35   21   38 1
  36   22   23 ar
  37   22   27 1
  38   23   24 ar
  39   23   26 1
  40   24   25 ar
  41   24   39 1
  42   25   40 1

#	End of record

