#	Name: ASD01708010
#	Creating user name:	WinNT
#	Creation time:	15. 06. 2019 19:22

#	Modifying user name:	WinNT
#	Modification time:	15. 06. 2019 19:22

#	Program:	/corina/corina34_cracker 3.40 0067  02.08.2006

@<TRIPOS>MOLECULE
ASD01708010
  63   66    0    0    0
SMALL
NO_CHARGES


@<TRIPOS>ATOM
   1 C1            -0.0138     1.3866     0.0755 C.ar    
   2 C2             0.0707     0.1526    -0.5546 C.ar    
   3 C3             1.2784    -0.5242    -0.5940 C.ar    
   4 C4             2.4077     0.0381     0.0010 C.ar    
   5 C5             2.3129     1.2796     0.6324 C.ar    
   6 C6             1.1050     1.9452     0.6659 C.ar    
   7 O7            -1.0322    -0.3918    -1.1328 O.3     
   8 C8             3.7005    -0.6784    -0.0364 C.2     
   9 N9             4.8518     0.0138    -0.1453 N.am    
  10 O10            3.7250    -1.8918     0.0312 O.2     
  11 C11            4.8524     1.4649    -0.3588 C.3     
  12 C12            5.8609     1.8220    -1.4225 C.ar    
  13 C13            6.7854     0.9153    -1.8943 C.ar    
  14 C14            6.8568    -0.5081    -1.4064 C.3     
  15 C15            6.1599    -0.6551    -0.0489 C.3     
  16 C16            5.8355     3.1173    -1.9256 C.ar    
  17 C17            6.7326     3.5152    -2.8928 C.ar    
  18 C18            7.6786     2.6046    -3.3717 C.ar    
  19 C19            7.6975     1.3057    -2.8658 C.ar    
  20 Cl20           8.8696     0.1685    -3.4544 Cl      
  21 C21            8.6504     3.0151    -4.4054 C.2     
  22 Cl22           6.6877     5.1362    -3.5127 Cl      
  23 N23            8.3488     2.8669    -5.7106 N.am    
  24 O24            9.7223     3.4867    -4.0789 O.2     
  25 C25            9.3127     3.2741    -6.7359 C.3     
  26 C26            9.1565     4.7466    -7.0157 C.2     
  27 O27            8.3254     5.3900    -6.4197 O.2     
  28 O28            9.9408     5.3435    -7.9269 O.3     
  29 C29            9.0575     2.4813    -8.0194 C.3     
  30 C30            9.3331     1.0207    -7.7708 C.ar    
  31 C31            8.3187     0.1911    -7.3312 C.ar    
  32 C32            8.5715    -1.1489    -7.1031 C.ar    
  33 C33            9.8385    -1.6589    -7.3150 C.ar    
  34 C34           10.8529    -0.8293    -7.7555 C.ar    
  35 C35           10.5992     0.5093    -7.9877 C.ar    
  36 S36            7.2787    -2.2062    -6.5417 S.o2    
  37 C37            6.5210    -2.8416    -8.0625 C.3     
  38 O38            7.9533    -3.2469    -5.8482 O.2     
  39 O39            6.3829    -1.3354    -5.8645 O.2     
  40 H40           -0.9558     1.9143     0.1009 H       
  41 H41            1.3454    -1.4844    -1.0837 H       
  42 H42            3.1847     1.7185     1.0948 H       
  43 H43            1.0329     2.9056     1.1546 H       
  44 H44           -1.1512    -0.1472    -2.0607 H       
  45 H45            3.8604     1.7849    -0.6775 H       
  46 H46            5.1134     1.9682     0.5721 H       
  47 H47            6.3724    -1.1607    -2.1328 H       
  48 H48            7.9020    -0.8000    -1.3045 H       
  49 H49            6.7634    -0.1861     0.7282 H       
  50 H50            6.0179    -1.7112     0.1804 H       
  51 H51            5.1046     3.8201    -1.5539 H       
  52 H52            7.4935     2.4906    -5.9711 H       
  53 H53           10.3246     3.0768    -6.3821 H       
  54 H54            9.8036     6.2897    -8.0719 H       
  55 H55            8.0188     2.6083    -8.3244 H       
  56 H56            9.7151     2.8459    -8.8085 H       
  57 H57            7.3287     0.5897    -7.1657 H       
  58 H58           10.0362    -2.7055    -7.1361 H       
  59 H59           11.8430    -1.2278    -7.9208 H       
  60 H60           11.3916     1.1574    -8.3319 H       
  61 H61            7.2682    -3.3845    -8.6413 H       
  62 H62            5.7012    -3.5129    -7.8069 H       
  63 H63            6.1383    -2.0091    -8.6530 H       
@<TRIPOS>BOND
   1    1    2 ar
   2    1    6 ar
   3    1   40 1
   4    2    3 ar
   5    2    7 1
   6    3    4 ar
   7    3   41 1
   8    4    5 ar
   9    4    8 1
  10    5    6 ar
  11    5   42 1
  12    6   43 1
  13    7   44 1
  14    8    9 am
  15    8   10 2
  16    9   11 1
  17    9   15 1
  18   11   12 1
  19   11   45 1
  20   11   46 1
  21   12   13 ar
  22   12   16 ar
  23   13   14 1
  24   13   19 ar
  25   14   15 1
  26   14   47 1
  27   14   48 1
  28   15   49 1
  29   15   50 1
  30   16   17 ar
  31   16   51 1
  32   17   18 ar
  33   17   22 1
  34   18   19 ar
  35   18   21 1
  36   19   20 1
  37   21   23 am
  38   21   24 2
  39   23   25 1
  40   23   52 1
  41   25   26 1
  42   25   29 1
  43   25   53 1
  44   26   27 2
  45   26   28 1
  46   28   54 1
  47   29   30 1
  48   29   55 1
  49   29   56 1
  50   30   31 ar
  51   30   35 ar
  52   31   32 ar
  53   31   57 1
  54   32   33 ar
  55   32   36 1
  56   33   34 ar
  57   33   58 1
  58   34   35 ar
  59   34   59 1
  60   35   60 1
  61   36   37 1
  62   36   38 2
  63   36   39 2
  64   37   61 1
  65   37   62 1
  66   37   63 1

#	End of record

