#	Name: ASD03451023
#	Creating user name:	WinNT
#	Creation time:	15. 06. 2019 20:42

#	Modifying user name:	WinNT
#	Modification time:	15. 06. 2019 20:42

#	Program:	/corina/corina34_cracker 3.40 0067  02.08.2006

@<TRIPOS>MOLECULE
ASD03451023
  36   39    0    0    0
SMALL
NO_CHARGES


@<TRIPOS>ATOM
   1 C1            -0.0010     1.6203     0.0525 C.ar    
   2 C2            -0.0348     0.2386    -0.0136 C.ar    
   3 C3             1.1546    -0.4647    -0.0591 C.ar    
   4 C4             2.3636     0.2464    -0.0369 C.ar    
   5 C5             2.3226     1.6452     0.0242 C.ar    
   6 N6             1.1405     2.2708     0.0695 N.ar    
   7 C7             3.6162    -0.5233    -0.0739 C.2     
   8 N8             4.6681    -0.2322     0.6220 N.2     
   9 C9             4.6937     0.9305     1.5098 C.3     
  10 C10            4.5159     2.1749     0.6854 C.2     
  11 N11            3.4347     2.4216     0.0346 N.2     
  12 C12            3.6773    -1.6992    -0.9576 C.2     
  13 C13            3.5737     0.8248     2.5125 C.2     
  14 C14            4.7501    -2.5250    -1.1182 C.2     
  15 C15            4.3688    -3.5069    -2.0492 C.2     
  16 C16            3.0959    -3.2384    -2.4097 C.2     
  17 O17            2.6804    -2.1507    -1.7447 O.3     
  18 S18            2.6613     2.1698     3.1931 S.3     
  19 C19            1.7297     1.0784     4.1228 C.2     
  20 N20            2.1112    -0.1339     3.9001 N.2     
  21 C21            3.0932    -0.3060     3.0383 C.2     
  22 N22            5.5384     3.0751     0.6258 N.pl3   
  23 C23            5.3935     4.2967    -0.1697 C.3     
  24 H24           -0.9281     2.1734     0.0862 H       
  25 H25           -0.9795    -0.2845    -0.0291 H       
  26 H26            1.1529    -1.5434    -0.1105 H       
  27 H27            5.6503     0.9711     2.0308 H       
  28 H28            5.7077    -2.4408    -0.6260 H       
  29 H29            4.9793    -4.3221    -2.4085 H       
  30 H30            2.5078    -3.8083    -3.1138 H       
  31 H31            0.9370     1.3627     4.7990 H       
  32 H32            3.4834    -1.2804     2.7841 H       
  33 H33            6.3618     2.9066     1.1102 H       
  34 H34            4.5523     4.8783     0.2075 H       
  35 H35            6.3060     4.8883    -0.0966 H       
  36 H36            5.2143     4.0325    -1.2119 H       
@<TRIPOS>BOND
   1    1    2 ar
   2    1    6 ar
   3    1   24 1
   4    2    3 ar
   5    2   25 1
   6    3    4 ar
   7    3   26 1
   8    4    5 ar
   9    4    7 1
  10    5    6 ar
  11    5   11 1
  12    7    8 2
  13    7   12 1
  14    8    9 1
  15    9   10 1
  16    9   13 1
  17    9   27 1
  18   10   11 2
  19   10   22 1
  20   12   14 2
  21   12   17 1
  22   13   18 1
  23   13   21 2
  24   14   15 1
  25   14   28 1
  26   15   16 2
  27   15   29 1
  28   16   17 1
  29   16   30 1
  30   18   19 1
  31   19   20 2
  32   19   31 1
  33   20   21 1
  34   21   32 1
  35   22   23 1
  36   22   33 1
  37   23   34 1
  38   23   35 1
  39   23   36 1

#	End of record

