#	Name: ASD01230085
#	Creating user name:	WinNT
#	Creation time:	15. 06. 2019 19:11

#	Modifying user name:	WinNT
#	Modification time:	15. 06. 2019 19:11

#	Program:	/corina/corina34_cracker 3.40 0067  02.08.2006

@<TRIPOS>MOLECULE
ASD01230085
  51   55    0    0    0
SMALL
NO_CHARGES


@<TRIPOS>ATOM
   1 C1            -0.0168     1.3907     0.0097 C.ar    
   2 C2             0.0021    -0.0041     0.0020 C.ar    
   3 C3            -1.2686    -0.7650     0.0096 C.2     
   4 N4            -2.4247    -0.1224     0.0236 N.2     
   5 C5            -3.5768    -0.7918     0.0306 C.2     
   6 N6            -3.5933    -2.1624     0.0234 N.pl3   
   7 C7            -2.4159    -2.8576     0.0092 C.2     
   8 C8            -1.2466    -2.1770    -0.0040 C.2     
   9 C9            -2.4206    -4.3645     0.0017 C.3     
  10 C10            1.2225    -0.6793    -0.0133 C.ar    
  11 C11            2.4029     0.0352    -0.0207 C.ar    
  12 C12            2.3776     1.4185    -0.0130 C.ar    
  13 C13            1.1702     2.0939     0.0021 C.ar    
  14 C14           -4.9194    -0.3714     0.0444 C.2     
  15 C15           -5.7127    -1.5293     0.0450 C.2     
  16 N16           -4.9293    -2.5785     0.0327 N.2     
  17 C17           -5.3878     0.9818     0.0564 C.1     
  18 C18           -3.0907    -5.0748     1.1796 C.3     
  19 C19           -3.7665    -5.0658    -0.1930 C.3     
  20 C20           -5.7718     2.0911     0.0663 C.1     
  21 C21           -6.2403     3.4443     0.0783 C.ar    
  22 C22           -7.6121     3.7127     0.0914 C.ar    
  23 C23           -5.3277     4.5037     0.0827 C.ar    
  24 C24           -5.7864     5.8039     0.0942 C.ar    
  25 C25           -7.1463     6.0618     0.1014 C.ar    
  26 C26           -8.0555     5.0186     0.1029 C.ar    
  27 S27           -9.7842     5.3596     0.1121 S.o2    
  28 N28          -10.2726     5.4588    -1.4671 N.am    
  29 O29          -10.4171     4.2097     0.6564 O.2     
  30 O30           -9.9334     6.6619     0.6608 O.2     
  31 C31            3.6705     2.1927    -0.0212 C.3     
  32 F32            4.0580     2.4394    -1.3427 F       
  33 F33            3.4901     3.4087     0.6466 F       
  34 F34            4.6636     1.4487     0.6248 F       
  35 H35           -0.9587     1.9190     0.0170 H       
  36 H36           -0.3063    -2.7080    -0.0154 H       
  37 H37           -1.5397    -4.8353    -0.4348 H       
  38 H38            1.2436    -1.7590    -0.0189 H       
  39 H39            3.3485    -0.4864    -0.0322 H       
  40 H40            1.1569     3.1738     0.0077 H       
  41 H41           -6.7925    -1.5512     0.0542 H       
  42 H42           -2.6508    -6.0129     1.5179 H       
  43 H43           -3.5280    -4.4520     1.9600 H       
  44 H44           -4.6484    -4.4371    -0.3157 H       
  45 H45           -3.7711    -5.9980    -0.7578 H       
  46 H46           -8.3228     2.8996     0.0923 H       
  47 H47           -4.2664     4.3041     0.0775 H       
  48 H48           -5.0828     6.6233     0.0980 H       
  49 H49           -7.4996     7.0823     0.1108 H       
  50 H50          -11.1777     5.2096    -1.7114 H       
  51 H51           -9.6537     5.7660    -2.1479 H       
@<TRIPOS>BOND
   1    1    2 ar
   2    1   13 ar
   3    1   35 1
   4    2    3 1
   5    2   10 ar
   6    3    4 2
   7    3    8 1
   8    4    5 1
   9    5    6 1
  10    5   14 2
  11    6    7 1
  12    6   16 1
  13    7    8 2
  14    7    9 1
  15    8   36 1
  16    9   18 1
  17    9   19 1
  18    9   37 1
  19   10   11 ar
  20   10   38 1
  21   11   12 ar
  22   11   39 1
  23   12   31 1
  24   12   13 ar
  25   13   40 1
  26   14   15 1
  27   14   17 1
  28   15   16 2
  29   15   41 1
  30   17   20 3
  31   18   19 1
  32   18   42 1
  33   18   43 1
  34   19   44 1
  35   19   45 1
  36   20   21 1
  37   21   22 ar
  38   21   23 ar
  39   22   26 ar
  40   22   46 1
  41   23   24 ar
  42   23   47 1
  43   24   25 ar
  44   24   48 1
  45   25   26 ar
  46   25   49 1
  47   26   27 1
  48   27   28 am
  49   27   29 2
  50   27   30 2
  51   28   50 1
  52   28   51 1
  53   31   32 1
  54   31   33 1
  55   31   34 1

#	End of record

