#	Name: ASD01310034
#	Creating user name:	WinNT
#	Creation time:	15. 06. 2019 19:15

#	Modifying user name:	WinNT
#	Modification time:	15. 06. 2019 19:15

#	Program:	/corina/corina34_cracker 3.40 0067  02.08.2006

@<TRIPOS>MOLECULE
ASD01310034
  42   43    0    0    0
SMALL
NO_CHARGES


@<TRIPOS>ATOM
   1 C1            -0.7825     1.0816    -0.4929 C.2     
   2 S2             0.8375    -0.9816    -1.3643 S.o2    
   3 O3             1.7678     0.0522    -1.6559 O.2     
   4 O4             0.4795    -1.9912    -2.2981 O.2     
   5 C5             1.4522    -1.8169     0.0602 C.ar    
   6 C6             0.9911    -3.0822     0.3721 C.ar    
   7 C7            -0.6618    -0.1839    -0.8948 C.2     
   8 S8            -2.2623    -0.9197    -0.8741 S.3     
   9 C9            -2.9424     0.5497    -0.3252 C.2     
  10 N10           -2.0155     1.4465    -0.1891 N.2     
  11 C11            0.3933     2.0182    -0.3875 C.3     
  12 N12           -4.2876     0.7516    -0.0592 N.pl3   
  13 C13           -4.7537     2.0595     0.4082 C.3     
  14 C14           -6.2676     2.0138     0.6248 C.3     
  15 F15            0.9019     2.2739    -1.6654 F       
  16 F16           -0.0185     3.2195     0.1995 F       
  17 F17            1.3882     1.4308     0.4014 F       
  18 C18            2.3996    -1.2091     0.8627 C.ar    
  19 C19            1.4733    -3.7374     1.4897 C.ar    
  20 C20            2.4169    -3.1275     2.2951 C.ar    
  21 C21            2.8818    -1.8644     1.9802 C.ar    
  22 C22            2.9422    -3.8417     3.5138 C.3     
  23 C23            2.4650    -3.1178     4.7744 C.3     
  24 O24            2.4574    -5.1859     3.5241 O.3     
  25 C25            4.4718    -3.8514     3.4794 C.3     
  26 F26            1.0664    -3.1161     4.8100 F       
  27 F27            2.9595    -3.7759     5.9055 F       
  28 F28            2.9327    -1.7993     4.7603 F       
  29 H29            0.2540    -3.5587    -0.2571 H       
  30 H30           -4.9205     0.0269    -0.1825 H       
  31 H31           -4.2595     2.3068     1.3477 H       
  32 H32           -4.5162     2.8177    -0.3380 H       
  33 H33           -6.6144     2.9869     0.9726 H       
  34 H34           -6.7618     1.7664    -0.3147 H       
  35 H35           -6.5052     1.2555     1.3710 H       
  36 H36            2.7632    -0.2225     0.6163 H       
  37 H37            1.1126    -4.7257     1.7339 H       
  38 H38            3.6220    -1.3895     2.6072 H       
  39 H39            1.4932    -5.2561     3.5457 H       
  40 H40            4.8415    -2.8261     3.4716 H       
  41 H41            4.8517    -4.3679     4.3609 H       
  42 H42            4.8117    -4.3671     2.5813 H       
@<TRIPOS>BOND
   1    1    7 2
   2    1   11 1
   3    1   10 1
   4    2    3 2
   5    2    4 2
   6    2    5 1
   7    2    7 1
   8    5    6 ar
   9    5   18 ar
  10    6   19 ar
  11    6   29 1
  12    7    8 1
  13    8    9 1
  14    9   10 2
  15    9   12 1
  16   11   15 1
  17   11   16 1
  18   11   17 1
  19   12   13 1
  20   12   30 1
  21   13   14 1
  22   13   31 1
  23   13   32 1
  24   14   33 1
  25   14   34 1
  26   14   35 1
  27   18   21 ar
  28   18   36 1
  29   19   20 ar
  30   19   37 1
  31   20   21 ar
  32   20   22 1
  33   21   38 1
  34   22   23 1
  35   22   24 1
  36   22   25 1
  37   23   26 1
  38   23   27 1
  39   23   28 1
  40   24   39 1
  41   25   40 1
  42   25   41 1
  43   25   42 1

#	End of record

