#	Name: ASD03331839
#	Creating user name:	WinNT
#	Creation time:	15. 06. 2019 20:39

#	Modifying user name:	WinNT
#	Modification time:	15. 06. 2019 20:39

#	Program:	/corina/corina34_cracker 3.40 0067  02.08.2006

@<TRIPOS>MOLECULE
ASD03331839
  57   59    0    0    0
SMALL
NO_CHARGES


@<TRIPOS>ATOM
   1 C1             0.2787     1.4943     0.1344 C.3     
   2 N2             0.2006     0.0277     0.0803 N.3     
   3 C3             0.6016    -0.4781    -1.2450 C.3     
   4 C4             1.9175     0.1601    -1.6085 C.2     
   5 N5             2.4257     1.2514    -0.9781 N.pl3   
   6 C6             1.7475     1.9369     0.1257 C.3     
   7 C7             2.8037    -0.1976    -2.5710 C.2     
   8 N8             3.8395     0.6709    -2.5184 N.2     
   9 C9             3.6176     1.5440    -1.5614 C.2     
  10 C10            4.5149     2.6578    -1.1827 C.ar    
  11 C11            5.5455     3.0487    -2.0376 C.ar    
  12 C12            6.3790     4.0882    -1.6785 C.ar    
  13 C13            6.1942     4.7422    -0.4737 C.ar    
  14 C14            5.1741     4.3589     0.3789 C.ar    
  15 C15            4.3302     3.3253     0.0287 C.ar    
  16 C16            2.6636    -1.3286    -3.5053 C.2     
  17 O17            1.6801    -2.0422    -3.4531 O.2     
  18 N18            3.6253    -1.5721    -4.4176 N.am    
  19 C19            3.4860    -2.6965    -5.3464 C.3     
  20 C20            2.6551    -2.2600    -6.5547 C.3     
  21 C21            4.8507    -3.1384    -5.8084 C.2     
  22 N22            5.0525    -4.4156    -6.1885 N.am    
  23 O23            5.7672    -2.3448    -5.8382 O.2     
  24 C24            6.4005    -4.8721    -6.5361 C.3     
  25 C25            3.2894    -1.0204    -7.1888 C.3     
  26 C26            2.6136    -3.3935    -7.5815 C.3     
  27 C27            1.2314    -1.9294    -6.1021 C.3     
  28 C28            7.4932     4.5116    -2.6007 C.3     
  29 F29            7.0251     5.4979    -3.4755 F       
  30 F30            8.5543     5.0231    -1.8460 F       
  31 F31            7.9344     3.4067    -3.3368 F       
  32 H32           -0.2322     1.9165    -0.7309 H       
  33 H33           -0.2014     1.8493     1.0463 H       
  34 H34            0.7566    -0.3913     0.8106 H       
  35 H35            0.7157    -1.5615    -1.2068 H       
  36 H36           -0.1535    -0.2124    -1.9847 H       
  37 H37            1.8056     3.0155    -0.0202 H       
  38 H38            2.2185     1.6671     1.0709 H       
  39 H39            5.6909     2.5387    -2.9784 H       
  40 H40            6.8492     5.5552    -0.1972 H       
  41 H41            5.0354     4.8729     1.3186 H       
  42 H42            3.5341     3.0272     0.6949 H       
  43 H43            4.4096    -1.0030    -4.4592 H       
  44 H44            2.9873    -3.5244    -4.8425 H       
  45 H45            4.3053    -5.0326    -6.2318 H       
  46 H46            6.3667    -5.9249    -6.8162 H       
  47 H47            6.7781    -4.2853    -7.3736 H       
  48 H48            7.0597    -4.7455    -5.6773 H       
  49 H49            4.3036    -1.2559    -7.5113 H       
  50 H50            2.6974    -0.7094    -8.0496 H       
  51 H51            3.3189    -0.2129    -6.4573 H       
  52 H52            2.2577    -4.3053    -7.1019 H       
  53 H53            1.9391    -3.1233    -8.3939 H       
  54 H54            3.6144    -3.5594    -7.9801 H       
  55 H55            1.2610    -1.1219    -5.3706 H       
  56 H56            0.6395    -1.6184    -6.9629 H       
  57 H57            0.7796    -2.8125    -5.6503 H       
@<TRIPOS>BOND
   1    1    2 1
   2    1    6 1
   3    1   32 1
   4    1   33 1
   5    2    3 1
   6    2   34 1
   7    3    4 1
   8    3   35 1
   9    3   36 1
  10    4    5 1
  11    4    7 2
  12    5    6 1
  13    5    9 1
  14    6   37 1
  15    6   38 1
  16    7    8 1
  17    7   16 1
  18    8    9 2
  19    9   10 1
  20   10   11 ar
  21   10   15 ar
  22   11   12 ar
  23   11   39 1
  24   12   13 ar
  25   12   28 1
  26   13   14 ar
  27   13   40 1
  28   14   15 ar
  29   14   41 1
  30   15   42 1
  31   16   17 2
  32   16   18 am
  33   18   19 1
  34   18   43 1
  35   19   20 1
  36   19   21 1
  37   19   44 1
  38   20   25 1
  39   20   26 1
  40   20   27 1
  41   21   22 am
  42   21   23 2
  43   22   24 1
  44   22   45 1
  45   24   46 1
  46   24   47 1
  47   24   48 1
  48   25   49 1
  49   25   50 1
  50   25   51 1
  51   26   52 1
  52   26   53 1
  53   26   54 1
  54   27   55 1
  55   27   56 1
  56   27   57 1
  57   28   29 1
  58   28   30 1
  59   28   31 1

#	End of record

