#	Name: ASD03331355
#	Creating user name:	WinNT
#	Creation time:	15. 06. 2019 20:39

#	Modifying user name:	WinNT
#	Modification time:	15. 06. 2019 20:39

#	Program:	/corina/corina34_cracker 3.40 0067  02.08.2006

@<TRIPOS>MOLECULE
ASD03331355
  57   59    0    0    0
SMALL
NO_CHARGES


@<TRIPOS>ATOM
   1 N1            -0.2569     1.5587    -0.6101 N.2     
   2 N2            -0.1326     0.1796    -0.3781 N.am    
   3 C3             1.1842    -0.1002    -0.2404 C.2     
   4 C4             1.8745     1.0586    -0.3776 C.2     
   5 C5             0.9502     2.0880    -0.6101 C.2     
   6 C6             3.3773     1.1392    -0.2806 C.3     
   7 C7             1.8544    -1.4273     0.0175 C.3     
   8 C8             3.3471    -1.2677    -0.3069 C.3     
   9 O9             3.8486    -0.0793     0.3113 O.3     
  10 C10           -1.1446    -0.7075    -0.3051 C.2     
  11 O11           -0.9096    -1.8815    -0.0981 O.2     
  12 N12           -2.4173    -0.2924    -0.4616 N.am    
  13 C13           -4.6989    -0.7360    -1.1593 C.2     
  14 C14           -3.5173    -1.2567    -0.3822 C.3     
  15 C15           -3.9168    -1.4553     1.0813 C.3     
  16 C16           -4.3192    -0.1093     1.6872 C.3     
  17 O17           -4.7619     0.4393    -1.4519 O.2     
  18 C18           -5.0985    -2.4239     1.1604 C.3     
  19 C19           -2.7322    -2.0313     1.8597 C.3     
  20 N20           -5.6855    -1.5764    -1.5290 N.am    
  21 C21           -6.8712    -1.0572    -2.2151 C.3     
  22 C22           -7.8294    -2.2102    -2.5209 C.3     
  23 O23           -8.3138    -2.7645    -1.2961 O.3     
  24 C24            1.2745     3.5206    -0.8196 C.ar    
  25 C25            0.5495     4.5081    -0.1508 C.ar    
  26 C26            0.8564     5.8410    -0.3503 C.ar    
  27 C27            1.8791     6.1962    -1.2108 C.ar    
  28 C28            2.6008     5.2206    -1.8767 C.ar    
  29 C29            2.3074     3.8850    -1.6801 C.ar    
  30 F30           -0.4503     4.1619     0.6893 F       
  31 Cl31           3.8825     5.6761    -2.9553 Cl      
  32 H32            3.8053     1.2548    -1.2764 H       
  33 H33            3.6614     1.9862     0.3439 H       
  34 H34            1.7315    -1.7060     1.0641 H       
  35 H35            1.4169    -2.1928    -0.6233 H       
  36 H36            3.8947    -2.1315     0.0702 H       
  37 H37            3.4784    -1.1986    -1.3867 H       
  38 H38           -2.6049     0.6448    -0.6268 H       
  39 H39           -3.1965    -2.2094    -0.8038 H       
  40 H40           -5.1632     0.3010     1.1327 H       
  41 H41           -4.6039    -0.2508     2.7299 H       
  42 H42           -3.4774     0.5808     1.6308 H       
  43 H43           -4.7967    -3.3976     0.7744 H       
  44 H44           -5.4151    -2.5268     2.1983 H       
  45 H45           -5.9256    -2.0375     0.5649 H       
  46 H46           -1.8904    -1.3412     1.8033 H       
  47 H47           -3.0169    -2.1728     2.9023 H       
  48 H48           -2.4455    -2.9902     1.4280 H       
  49 H49           -5.6106    -2.5250    -1.3409 H       
  50 H50           -7.3711    -0.3291    -1.5762 H       
  51 H51           -6.5710    -0.5774    -3.1467 H       
  52 H52           -8.6688    -1.8388    -3.1087 H       
  53 H53           -7.3030    -2.9800    -3.0851 H       
  54 H54           -8.9280    -3.5021    -1.4140 H       
  55 H55            0.2964     6.6064     0.1664 H       
  56 H56            2.1155     7.2388    -1.3640 H       
  57 H57            2.8746     3.1248    -2.1968 H       
@<TRIPOS>BOND
   1    1    2 1
   2    1    5 2
   3    2    3 1
   4    2   10 am
   5    3    4 2
   6    3    7 1
   7    4    5 1
   8    4    6 1
   9    5   24 1
  10    6    9 1
  11    6   32 1
  12    6   33 1
  13    7    8 1
  14    7   34 1
  15    7   35 1
  16    8    9 1
  17    8   36 1
  18    8   37 1
  19   10   11 2
  20   10   12 am
  21   12   14 1
  22   12   38 1
  23   13   17 2
  24   13   20 am
  25   13   14 1
  26   14   15 1
  27   14   39 1
  28   15   16 1
  29   15   18 1
  30   15   19 1
  31   16   40 1
  32   16   41 1
  33   16   42 1
  34   18   43 1
  35   18   44 1
  36   18   45 1
  37   19   46 1
  38   19   47 1
  39   19   48 1
  40   20   21 1
  41   20   49 1
  42   21   22 1
  43   21   50 1
  44   21   51 1
  45   22   23 1
  46   22   52 1
  47   22   53 1
  48   23   54 1
  49   24   25 ar
  50   24   29 ar
  51   25   26 ar
  52   25   30 1
  53   26   27 ar
  54   26   55 1
  55   27   28 ar
  56   27   56 1
  57   28   29 ar
  58   28   31 1
  59   29   57 1

#	End of record

