#	Name: ASD01840347
#	Creating user name:	WinNT
#	Creation time:	15. 06. 2019 19:37

#	Modifying user name:	WinNT
#	Modification time:	15. 06. 2019 19:37

#	Program:	/corina/corina34_cracker 3.40 0067  02.08.2006

@<TRIPOS>MOLECULE
ASD01840347
  45   49    0    0    0
SMALL
NO_CHARGES


@<TRIPOS>ATOM
   1 C1            -0.1720     1.4997     0.0285 C.3     
   2 C2            -0.1351    -0.0068     0.0183 C.2     
   3 C3            -0.2858    -0.6816    -1.1423 C.2     
   4 C4            -0.2503    -2.0928    -1.1451 C.2     
   5 N5            -0.3664    -2.9920    -2.1093 N.2     
   6 N6            -0.2640    -4.1733    -1.6106 N.2     
   7 C7            -0.0793    -4.1051    -0.3185 C.2     
   8 N8            -0.0642    -2.7842     0.0208 N.pl3   
   9 C9             0.0939    -2.1359     1.2281 C.2     
  10 S10            0.3443    -2.7964     2.8400 S.3     
  11 C11            0.4086    -1.2016     3.5640 C.2     
  12 C12            0.6029    -0.9514     4.9430 C.2     
  13 O13            0.6339     0.1942     5.3556 O.2     
  14 N14            0.7535    -1.9807     5.7999 N.am    
  15 C15            0.9546    -1.7216     7.2277 C.3     
  16 C16           -0.2621    -2.0803     8.0999 C.3     
  17 N17            0.3517    -3.4201     8.2312 N.3     
  18 C18            1.6924    -2.8538     7.9649 C.3     
  19 C19            0.2574    -3.8879     9.5457 C.ar    
  20 C20            0.8387    -3.1707    10.5826 C.ar    
  21 C21            0.7445    -3.6343    11.8810 C.ar    
  22 C22            0.0723    -4.8117    12.1503 C.ar    
  23 C23           -0.5097    -5.5315    11.1197 C.ar    
  24 F24           -1.1665    -6.6817    11.3861 F       
  25 C25           -0.4237    -5.0692     9.8176 C.ar    
  26 F26           -0.9961    -5.7672     8.8124 F       
  27 C27            0.2471    -0.2376     2.6186 C.2     
  28 N28            0.2554     1.1195     2.9140 N.pl3   
  29 C29            0.0715    -0.7513     1.2739 C.2     
  30 H30            0.7896     1.8844     0.3683 H       
  31 H31           -0.3742     1.8651    -0.9783 H       
  32 H32           -0.9581     1.8394     0.7029 H       
  33 H33           -0.4334    -0.1424    -2.0663 H       
  34 H34            0.0395    -4.9404     0.3558 H       
  35 H35            0.7288    -2.8930     5.4713 H       
  36 H36            1.3620    -0.7303     7.4264 H       
  37 H37           -0.3097    -1.5252     9.0368 H       
  38 H38           -1.2069    -2.0814     7.5564 H       
  39 H39            2.3093    -3.4730     7.3136 H       
  40 H40            2.2165    -2.5250     8.8623 H       
  41 H41            1.3647    -2.2507    10.3745 H       
  42 H42            1.1974    -3.0759    12.6868 H       
  43 H43            0.0010    -5.1713    13.1661 H       
  44 H44            0.2629     1.4148     3.8380 H       
  45 H45            0.2537     1.7721     2.1964 H       
@<TRIPOS>BOND
   1    1    2 1
   2    1   30 1
   3    1   31 1
   4    1   32 1
   5    2   29 1
   6    2    3 2
   7    3    4 1
   8    3   33 1
   9    4    8 1
  10    4    5 2
  11    5    6 1
  12    6    7 2
  13    7    8 1
  14    7   34 1
  15    8    9 1
  16    9   29 2
  17    9   10 1
  18   10   11 1
  19   11   12 1
  20   11   27 2
  21   12   13 2
  22   12   14 am
  23   14   15 1
  24   14   35 1
  25   15   18 1
  26   15   16 1
  27   15   36 1
  28   16   17 1
  29   16   37 1
  30   16   38 1
  31   17   18 1
  32   17   19 1
  33   18   39 1
  34   18   40 1
  35   19   25 ar
  36   19   20 ar
  37   20   21 ar
  38   20   41 1
  39   21   22 ar
  40   21   42 1
  41   22   23 ar
  42   22   43 1
  43   23   24 1
  44   23   25 ar
  45   25   26 1
  46   27   28 1
  47   27   29 1
  48   28   44 1
  49   28   45 1

#	End of record

