#	Name: ASD01910497
#	Creating user name:	WinNT
#	Creation time:	15. 06. 2019 19:55

#	Modifying user name:	WinNT
#	Modification time:	15. 06. 2019 19:55

#	Program:	/corina/corina34_cracker 3.40 0067  02.08.2006

@<TRIPOS>MOLECULE
ASD01910497
  42   45    0    0    0
SMALL
NO_CHARGES


@<TRIPOS>ATOM
   1 C1            -0.8907     1.6497    -0.1981 C.2     
   2 C2            -0.7206     0.1816    -0.1904 C.2     
   3 N3            -1.7078    -0.7420    -0.1197 N.2     
   4 C4            -1.1045    -1.9039    -0.1418 C.2     
   5 O5             0.2084    -1.6657    -0.2237 O.3     
   6 N6             0.4136    -0.4708    -0.2564 N.2     
   7 C7            -1.7663    -3.2565    -0.0850 C.3     
   8 C8            -1.4195    -4.0484    -1.3478 C.3     
   9 C9            -2.1177    -5.4096    -1.3064 C.3     
  10 C10           -1.6205    -6.1972    -0.0901 C.3     
  11 N11           -1.8183    -5.3805     1.1152 N.am    
  12 C12           -1.2651    -4.0197     1.1452 C.3     
  13 C13           -2.4944    -5.8704     2.1732 C.2     
  14 C14           -2.5741    -5.0896     3.4247 C.ar    
  15 O15           -3.0386    -6.9549     2.0977 O.2     
  16 C16           -3.7679    -5.0227     4.1435 C.ar    
  17 N17           -3.8405    -4.3270     5.2593 N.ar    
  18 C18           -2.7993    -3.6709     5.7407 C.ar    
  19 C19           -1.5770    -3.6888     5.0842 C.ar    
  20 C20           -1.4500    -4.4089     3.9120 C.ar    
  21 F21           -2.9270    -2.9717     6.8896 F       
  22 C22            0.0999     2.5655    -0.2689 C.2     
  23 N23           -0.3158     3.8113    -0.2592 N.2     
  24 C24           -1.5902     4.0101    -0.1849 C.2     
  25 S25           -2.4223     2.5179    -0.1244 S.3     
  26 C26           -2.2500     5.3648    -0.1619 C.3     
  27 H27           -2.8470    -3.1303    -0.0200 H       
  28 H28           -1.7532    -3.4957    -2.2261 H       
  29 H29           -0.3406    -4.1950    -1.3996 H       
  30 H30           -3.1952    -5.2636    -1.2296 H       
  31 H31           -1.8891    -5.9636    -2.2168 H       
  32 H32           -2.1855    -7.1249     0.0003 H       
  33 H33           -0.5607    -6.4224    -0.2090 H       
  34 H34           -0.1763    -4.0674     1.1270 H       
  35 H35           -1.5956    -3.5108     2.0506 H       
  36 H36           -4.6406    -5.5459     3.7814 H       
  37 H37           -0.7330    -3.1487     5.4872 H       
  38 H38           -0.5103    -4.4404     3.3807 H       
  39 H39            1.1442     2.2963    -0.3279 H       
  40 H40           -2.4712     5.6786    -1.1820 H       
  41 H41           -3.1764     5.3080     0.4097 H       
  42 H42           -1.5797     6.0875     0.3034 H       
@<TRIPOS>BOND
   1    1    2 1
   2    1   22 2
   3    1   25 1
   4    2    3 1
   5    2    6 2
   6    3    4 2
   7    4    5 1
   8    4    7 1
   9    5    6 1
  10    7    8 1
  11    7   12 1
  12    7   27 1
  13    8    9 1
  14    8   28 1
  15    8   29 1
  16    9   10 1
  17    9   30 1
  18    9   31 1
  19   10   11 1
  20   10   32 1
  21   10   33 1
  22   11   12 1
  23   11   13 am
  24   12   34 1
  25   12   35 1
  26   13   14 1
  27   13   15 2
  28   14   16 ar
  29   14   20 ar
  30   16   17 ar
  31   16   36 1
  32   17   18 ar
  33   18   19 ar
  34   18   21 1
  35   19   20 ar
  36   19   37 1
  37   20   38 1
  38   22   23 1
  39   22   39 1
  40   23   24 2
  41   24   25 1
  42   24   26 1
  43   26   40 1
  44   26   41 1
  45   26   42 1

#	End of record

