#	Name: ASD01882492
#	Creating user name:	WinNT
#	Creation time:	15. 06. 2019 19:44

#	Modifying user name:	WinNT
#	Modification time:	15. 06. 2019 19:44

#	Program:	/corina/corina34_cracker 3.40 0067  02.08.2006

@<TRIPOS>MOLECULE
ASD01882492
  59   63    0    0    0
SMALL
NO_CHARGES


@<TRIPOS>ATOM
   1 C1             0.8767     0.5770     1.9098 C.2     
   2 C2             0.7482    -0.8179     1.7668 C.2     
   3 C3             1.8373    -1.5526     1.4142 C.2     
   4 C4             3.0700    -0.9128     1.1986 C.2     
   5 C5             3.1782     0.4250     1.3398 C.2     
   6 N6             2.0944     1.1739     1.6924 N.pl3   
   7 N7             0.6431     2.6719     2.2244 N.2     
   8 N8             0.0285     1.5414     2.2278 N.2     
   9 C9             1.9003     2.5038     1.9047 C.2     
  10 C10           -0.5804    -1.4892     2.0021 C.3     
  11 F11           -0.5509    -2.1653     3.2265 F       
  12 F12           -1.5927    -0.5238     2.0267 F       
  13 F13           -0.8309    -2.4015     0.9715 F       
  14 C14            1.7228    -3.0469     1.2560 C.3     
  15 N15            1.9510    -3.4094    -0.1492 N.3     
  16 C16            2.2038    -4.8494    -0.2868 C.3     
  17 C17            2.5796    -5.1664    -1.7360 C.3     
  18 C18            1.4356    -4.7395    -2.6599 C.3     
  19 C19            1.1602    -3.2463    -2.4619 C.3     
  20 C20            0.8256    -2.9849    -0.9916 C.3     
  21 C21            1.8242    -4.9941    -4.0935 C.ar    
  22 C22            0.8953    -5.5037    -4.9814 C.ar    
  23 C23            1.2519    -5.7373    -6.2964 C.ar    
  24 C24            2.5372    -5.4609    -6.7236 C.ar    
  25 C25            3.4658    -4.9506    -5.8359 C.ar    
  26 C26            3.1081    -4.7129    -4.5220 C.ar    
  27 O27            0.2605    -5.4880    -2.3423 O.3     
  28 C28            0.4496    -6.9043    -2.3653 C.3     
  29 C29            2.9428     3.5860     1.7898 C.3     
  30 C30            2.9620     4.1257     0.3583 C.3     
  31 C31            3.8760     5.3171     0.0647 C.3     
  32 C32            4.2423     3.9255    -0.4551 C.3     
  33 H33            3.9355    -1.4950     0.9186 H       
  34 H34            4.1304     0.9062     1.1719 H       
  35 H35            2.4676    -3.5368     1.8832 H       
  36 H36            0.7259    -3.3688     1.5570 H       
  37 H37            3.0222    -5.1391     0.3723 H       
  38 H38            1.3053    -5.4034    -0.0150 H       
  39 H39            3.4858    -4.6234    -2.0041 H       
  40 H40            2.7519    -6.2376    -1.8413 H       
  41 H41            2.0442    -2.6731    -2.7414 H       
  42 H42            0.3185    -2.9456    -3.0857 H       
  43 H43           -0.0664    -3.5477    -0.7165 H       
  44 H44            0.6430    -1.9205    -0.8444 H       
  45 H45           -0.1089    -5.7196    -4.6477 H       
  46 H46            0.5263    -6.1360    -6.9899 H       
  47 H47            2.8159    -5.6441    -7.7508 H       
  48 H48            4.4701    -4.7350    -6.1696 H       
  49 H49            3.8326    -4.3107    -3.8293 H       
  50 H50            0.8060    -7.2073    -3.3499 H       
  51 H51            1.1843    -7.1851    -1.6107 H       
  52 H52           -0.4973    -7.4008    -2.1530 H       
  53 H53            2.7042     4.3951     2.4800 H       
  54 H54            3.9218     3.1749     2.0363 H       
  55 H55            2.0131     4.0758    -0.1757 H       
  56 H56            3.5286     6.0507    -0.6627 H       
  57 H57            4.4636     5.7163     0.8914 H       
  58 H58            5.0710     3.4093     0.0296 H       
  59 H59            4.1359     3.7437    -1.5245 H       
@<TRIPOS>BOND
   1    1    2 1
   2    1    6 1
   3    1    8 2
   4    2    3 2
   5    2   10 1
   6    3    4 1
   7    3   14 1
   8    4    5 2
   9    4   33 1
  10    5    6 1
  11    5   34 1
  12    6    9 1
  13    7    8 1
  14    7    9 2
  15    9   29 1
  16   10   11 1
  17   10   12 1
  18   10   13 1
  19   14   15 1
  20   14   35 1
  21   14   36 1
  22   15   16 1
  23   15   20 1
  24   16   17 1
  25   16   37 1
  26   16   38 1
  27   17   18 1
  28   17   39 1
  29   17   40 1
  30   18   19 1
  31   18   21 1
  32   18   27 1
  33   19   20 1
  34   19   41 1
  35   19   42 1
  36   20   43 1
  37   20   44 1
  38   21   22 ar
  39   21   26 ar
  40   22   23 ar
  41   22   45 1
  42   23   24 ar
  43   23   46 1
  44   24   25 ar
  45   24   47 1
  46   25   26 ar
  47   25   48 1
  48   26   49 1
  49   27   28 1
  50   28   50 1
  51   28   51 1
  52   28   52 1
  53   29   30 1
  54   29   53 1
  55   29   54 1
  56   30   31 1
  57   30   32 1
  58   30   55 1
  59   31   32 1
  60   31   56 1
  61   31   57 1
  62   32   58 1
  63   32   59 1

#	End of record

