#	Name: ASD01910571
#	Creating user name:	WinNT
#	Creation time:	15. 06. 2019 19:56

#	Modifying user name:	WinNT
#	Modification time:	15. 06. 2019 19:56

#	Program:	/corina/corina34_cracker 3.40 0067  02.08.2006

@<TRIPOS>MOLECULE
ASD01910571
  41   44    0    0    0
SMALL
NO_CHARGES


@<TRIPOS>ATOM
   1 N1            -0.0252     1.3585     0.0351 N.2     
   2 C2            -0.0207     0.0482     0.0344 C.2     
   3 N3             1.2746    -0.3455     0.0166 N.2     
   4 C4             1.9776     0.7590     0.0076 C.2     
   5 O5             1.1126     1.7782     0.0199 O.3     
   6 C6            -1.2061    -0.8339     0.0508 C.2     
   7 C7            -2.5077    -0.4285     0.0690 C.2     
   8 C8            -3.3058    -1.5834     0.0799 C.2     
   9 C9            -2.4793    -2.6541     0.0682 C.2     
  10 N10           -1.1919    -2.2057     0.0443 N.pl3   
  11 C11            3.9586     1.6167     1.2319 C.3     
  12 C12            3.4810     0.8621    -0.0128 C.3     
  13 C13            3.9240     1.6208    -1.2658 C.3     
  14 C14            5.4520     1.6975    -1.3042 C.3     
  15 C15            5.9520     2.4616    -0.0743 C.3     
  16 N16            5.4101     1.8220     1.1324 N.am    
  17 C17            6.2288     1.4307     2.1288 C.2     
  18 C18            7.6953     1.5577     1.9746 C.ar    
  19 O19            5.7630     0.9736     3.1540 O.2     
  20 F20           -4.6562    -1.6190     0.0988 F       
  21 C21            8.2809     2.7863     1.6529 C.ar    
  22 C22            9.6532     2.8601     1.5190 C.ar    
  23 N23           10.4099     1.7940     1.6893 N.ar    
  24 C24            9.9024     0.6167     1.9930 C.ar    
  25 C25            8.5366     0.4518     2.1525 C.ar    
  26 F26            8.0231    -0.7582     2.4644 F       
  27 H27           -2.8597     0.5926     0.0744 H       
  28 H28           -2.7872    -3.6893     0.0729 H       
  29 H29           -0.3984    -2.7634     0.0316 H       
  30 H30            3.4561     2.5823     1.2890 H       
  31 H31            3.7326     1.0315     2.1232 H       
  32 H32            3.9146    -0.1379    -0.0206 H       
  33 H33            3.5642     1.0989    -2.1526 H       
  34 H34            3.5102     2.6290    -1.2452 H       
  35 H35            5.8671     0.6896    -1.2999 H       
  36 H36            5.7676     2.2175    -2.2087 H       
  37 H37            7.0413     2.4338    -0.0447 H       
  38 H38            5.6120     3.4961    -0.1236 H       
  39 H39            7.6686     3.6646     1.5108 H       
  40 H40           10.1135     3.8050     1.2707 H       
  41 H41           10.5604    -0.2297     2.1234 H       
@<TRIPOS>BOND
   1    1    2 2
   2    1    5 1
   3    2    3 1
   4    2    6 1
   5    3    4 2
   6    4    5 1
   7    4   12 1
   8    6    7 2
   9    6   10 1
  10    7    8 1
  11    7   27 1
  12    8    9 2
  13    8   20 1
  14    9   10 1
  15    9   28 1
  16   10   29 1
  17   11   12 1
  18   11   16 1
  19   11   30 1
  20   11   31 1
  21   12   13 1
  22   12   32 1
  23   13   14 1
  24   13   33 1
  25   13   34 1
  26   14   15 1
  27   14   35 1
  28   14   36 1
  29   15   16 1
  30   15   37 1
  31   15   38 1
  32   16   17 am
  33   17   18 1
  34   17   19 2
  35   18   21 ar
  36   18   25 ar
  37   21   22 ar
  38   21   39 1
  39   22   23 ar
  40   22   40 1
  41   23   24 ar
  42   24   25 ar
  43   24   41 1
  44   25   26 1

#	End of record

