#	Name: ASD01810979
#	Creating user name:	WinNT
#	Creation time:	15. 06. 2019 19:25

#	Modifying user name:	WinNT
#	Modification time:	15. 06. 2019 19:25

#	Program:	/corina/corina34_cracker 3.40 0067  02.08.2006

@<TRIPOS>MOLECULE
ASD01810979
  62   65    0    0    0
SMALL
NO_CHARGES


@<TRIPOS>ATOM
   1 C1             6.2500    12.1386    -2.0322 C.1     
   2 C2             5.1208    11.3623    -1.6164 C.ar    
   3 C3             5.2973    10.0516    -1.1686 C.ar    
   4 C4             4.2051     9.3095    -0.7696 C.ar    
   5 C5             2.9369     9.8609    -0.8129 C.ar    
   6 C6             2.7547    11.1589    -1.2560 C.ar    
   7 C7             3.8388    11.9146    -1.6516 C.ar    
   8 N8             7.1459    12.7544    -2.3620 N.1     
   9 N9            -1.0077     8.6299     0.1066 N.am    
  10 C10           -0.1343     8.8914     1.2588 C.3     
  11 C11            1.0525     9.7419     0.7948 C.3     
  12 C12            1.7484     9.0438    -0.3758 C.3     
  13 C13            0.7691     8.9034    -1.5434 C.3     
  14 C14           -0.4209     8.0435    -1.1060 C.3     
  15 C15           -2.3233     8.9172     0.1630 C.2     
  16 C16           -2.9241     9.3855     1.4304 C.ar    
  17 C17           -3.8736    10.4054     1.4183 C.ar    
  18 C18           -4.4349    10.8401     2.6162 C.ar    
  19 C19           -4.0436    10.2525     3.8210 C.ar    
  20 C20           -3.1023     9.2424     3.8264 C.ar    
  21 C21           -2.5455     8.8027     2.6416 C.ar    
  22 O22           -3.0158     8.7915    -0.8279 O.2     
  23 N23           -6.9228    13.2974     3.2772 N.2     
  24 N24           -6.1429    12.3433     3.6429 N.2     
  25 C25           -5.4433    11.9228     2.6126 C.2     
  26 N26           -5.8246    12.6768     1.5360 N.pl3   
  27 C27           -6.7678    13.5393     2.0031 C.2     
  28 C28           -7.4999    14.5817     1.1978 C.3     
  29 O29           -7.0529    14.5363    -0.1587 O.3     
  30 C30           -7.6881    15.4903    -1.0122 C.3     
  31 C31           -4.6497    10.7222     5.1183 C.3     
  32 C32           -5.2289     9.5244     5.8737 C.3     
  33 C33           -3.5708    11.3908     5.9727 C.3     
  34 H34            6.2867     9.6197    -1.1350 H       
  35 H35            4.3402     8.2956    -0.4230 H       
  36 H36            1.7620    11.5831    -1.2875 H       
  37 H37            3.6958    12.9293    -1.9926 H       
  38 H38           -0.6919     9.4295     2.0253 H       
  39 H39            0.2292     7.9469     1.6636 H       
  40 H40            0.6955    10.7207     0.4746 H       
  41 H41            1.7573     9.8625     1.6175 H       
  42 H42            2.0831     8.0551    -0.0620 H       
  43 H43            0.4147     9.8901    -1.8417 H       
  44 H44            1.2722     8.4273    -2.3850 H       
  45 H45           -0.0808     7.0298    -0.8940 H       
  46 H46           -1.1676     8.0221    -1.8997 H       
  47 H47           -4.1727    10.8570     0.4839 H       
  48 H48           -2.8029     8.7915     4.7610 H       
  49 H49           -1.8128     8.0094     2.6522 H       
  50 H50           -5.4908    12.6106     0.6276 H       
  51 H51           -8.5710    14.3830     1.2343 H       
  52 H52           -7.2992    15.5691     1.6137 H       
  53 H53           -8.7632    15.3104    -1.0216 H       
  54 H54           -7.4914    16.4966    -0.6422 H       
  55 H55           -7.2944    15.3917    -2.0238 H       
  56 H56           -5.4440    11.4389     4.9097 H       
  57 H57           -4.4346     8.8077     6.0823 H       
  58 H58           -5.6673     9.8642     6.8121 H       
  59 H59           -5.9975     9.0481     5.2651 H       
  60 H60           -3.1582    12.2441     5.4344 H       
  61 H61           -4.0092    11.7306     6.9110 H       
  62 H62           -2.7765    10.6741     6.1812 H       
@<TRIPOS>BOND
   1    1    2 1
   2    1    8 3
   3    2    3 ar
   4    2    7 ar
   5    3    4 ar
   6    3   34 1
   7    4    5 ar
   8    4   35 1
   9    5    6 ar
  10    5   12 1
  11    6    7 ar
  12    6   36 1
  13    7   37 1
  14    9   10 1
  15    9   14 1
  16    9   15 am
  17   10   11 1
  18   10   38 1
  19   10   39 1
  20   11   12 1
  21   11   40 1
  22   11   41 1
  23   12   13 1
  24   12   42 1
  25   13   14 1
  26   13   43 1
  27   13   44 1
  28   14   45 1
  29   14   46 1
  30   15   16 1
  31   15   22 2
  32   16   17 ar
  33   16   21 ar
  34   17   18 ar
  35   17   47 1
  36   18   19 ar
  37   18   25 1
  38   19   20 ar
  39   19   31 1
  40   20   21 ar
  41   20   48 1
  42   21   49 1
  43   23   24 1
  44   23   27 2
  45   24   25 2
  46   25   26 1
  47   26   27 1
  48   26   50 1
  49   27   28 1
  50   28   29 1
  51   28   51 1
  52   28   52 1
  53   29   30 1
  54   30   53 1
  55   30   54 1
  56   30   55 1
  57   31   32 1
  58   31   33 1
  59   31   56 1
  60   32   57 1
  61   32   58 1
  62   32   59 1
  63   33   60 1
  64   33   61 1
  65   33   62 1

#	End of record

