#	Name: ASD01882231
#	Creating user name:	WinNT
#	Creation time:	15. 06. 2019 19:44

#	Modifying user name:	WinNT
#	Modification time:	15. 06. 2019 19:44

#	Program:	/corina/corina34_cracker 3.40 0067  02.08.2006

@<TRIPOS>MOLECULE
ASD01882231
  45   49    0    0    0
SMALL
NO_CHARGES


@<TRIPOS>ATOM
   1 C1            -0.0159     1.3220     0.0093 C.2     
   2 N2             0.0021    -0.0041     0.0020 N.2     
   3 C3             1.1523    -0.6857    -0.0126 C.2     
   4 C4             2.3835     0.0173    -0.0206 C.2     
   5 C5             2.3523     1.3664    -0.0131 C.2     
   6 N6             1.1484     2.0132     0.0019 N.pl3   
   7 O7            -1.0993     2.1290     0.0184 O.3     
   8 C8             0.8540     3.4562     0.0125 C.3     
   9 C9            -0.6831     3.5211     0.0242 C.3     
  10 O10            1.1423    -1.9071    -0.0187 O.2     
  11 C11           -1.1944     4.2379    -1.2270 C.3     
  12 O12           -2.6209     4.3119    -1.1842 O.3     
  13 O13           -6.5986     5.8765    -3.5305 O.3     
  14 C14           -5.2582     5.6514    -3.3110 C.ar    
  15 C15           -4.4873     6.1596    -4.3665 C.ar    
  16 C16           -5.4760     6.7265    -5.3384 C.3     
  17 C17           -6.6670     7.0121    -4.3760 C.3     
  18 C18           -3.1163     6.0569    -4.3373 C.ar    
  19 C19           -2.4848     5.4408    -3.2726 C.ar    
  20 C20           -3.2386     4.9234    -2.2289 C.ar    
  21 C21           -4.6197     5.0294    -2.2496 C.ar    
  22 C22           -7.8864     7.2266    -5.2428 C.3     
  23 C23           -7.6376     8.5048    -6.0630 C.3     
  24 C24           -6.3544     8.4125    -6.8822 C.3     
  25 C25           -5.1432     8.0493    -6.0019 C.3     
  26 H26            3.3237    -0.5140    -0.0321 H       
  27 H27            3.2727     1.9314    -0.0185 H       
  28 H28            1.2651     3.9237     0.9072 H       
  29 H29            1.2480     3.9334    -0.8848 H       
  30 H30           -1.0396     4.0220     0.9243 H       
  31 H31           -0.7793     5.2451    -1.2639 H       
  32 H32           -0.8857     3.6850    -2.1142 H       
  33 H33           -5.7538     5.9767    -6.0792 H       
  34 H34           -6.4650     7.9139    -3.7980 H       
  35 H35           -2.5299     6.4594    -5.1500 H       
  36 H36           -1.4079     5.3616    -3.2540 H       
  37 H37           -5.2019     4.6251    -1.4348 H       
  38 H38           -8.0215     6.3764    -5.9113 H       
  39 H39           -8.7699     7.3527    -4.6170 H       
  40 H40           -8.4789     8.6629    -6.7378 H       
  41 H41           -7.5648     9.3540    -5.3836 H       
  42 H42           -6.4771     7.6495    -7.6508 H       
  43 H43           -6.1694     9.3732    -7.3628 H       
  44 H44           -4.9871     8.8181    -5.2453 H       
  45 H45           -4.2509     7.9438    -6.6190 H       
@<TRIPOS>BOND
   1    1    2 2
   2    1    6 1
   3    1    7 1
   4    2    3 1
   5    3    4 1
   6    3   10 2
   7    4    5 2
   8    4   26 1
   9    5    6 1
  10    5   27 1
  11    6    8 1
  12    7    9 1
  13    8    9 1
  14    8   28 1
  15    8   29 1
  16    9   11 1
  17    9   30 1
  18   11   12 1
  19   11   31 1
  20   11   32 1
  21   12   20 1
  22   13   14 1
  23   13   17 1
  24   14   15 ar
  25   14   21 ar
  26   15   16 1
  27   15   18 ar
  28   16   17 1
  29   16   25 1
  30   16   33 1
  31   17   22 1
  32   17   34 1
  33   18   19 ar
  34   18   35 1
  35   19   20 ar
  36   19   36 1
  37   20   21 ar
  38   21   37 1
  39   22   23 1
  40   22   38 1
  41   22   39 1
  42   23   24 1
  43   23   40 1
  44   23   41 1
  45   24   25 1
  46   24   42 1
  47   24   43 1
  48   25   44 1
  49   25   45 1

#	End of record

