#	Name: ASD01230160
#	Creating user name:	WinNT
#	Creation time:	15. 06. 2019 19:11

#	Modifying user name:	WinNT
#	Modification time:	15. 06. 2019 19:11

#	Program:	/corina/corina34_cracker 3.40 0067  02.08.2006

@<TRIPOS>MOLECULE
ASD01230160
  50   53    0    0    0
SMALL
NO_CHARGES


@<TRIPOS>ATOM
   1 N1            -0.0165     1.3666     0.0096 N.pl3   
   2 C2             0.0021    -0.0041     0.0020 C.2     
   3 C3            -1.1194    -0.7470    -0.0283 C.2     
   4 C4            -2.3805    -0.1403    -0.0514 C.2     
   5 C5            -2.4599     1.2380    -0.0314 C.2     
   6 C6            -1.2114     2.0297     0.0174 C.2     
   7 N7            -1.3596     3.3299     0.0779 N.am    
   8 S8            -0.0698     4.3633     0.1567 S.o2    
   9 C9             1.2462     3.3099     0.8448 C.3     
  10 C10            1.2886     2.0328     0.0007 C.3     
  11 C11           -3.7741     1.9129    -0.0595 C.ar    
  12 C12           -4.6619     1.7595     1.0094 C.ar    
  13 C13           -5.8762     2.3840     0.9830 C.ar    
  14 C14           -6.2311     3.1757    -0.1115 C.ar    
  15 C15           -5.3447     3.3289    -1.1800 C.ar    
  16 C16           -4.1278     2.7097    -1.1523 C.ar    
  17 O17           -8.1549     4.7373    -1.1743 O.3     
  18 B18           -7.6272     3.8932    -0.1411 Du      
  19 O19           -8.6550     3.8481     0.8589 O.3     
  20 C20           -9.8877     3.7716     0.1125 C.3     
  21 C21           -9.5487     4.3745    -1.2660 C.3     
  22 C22          -10.4058     5.6138    -1.5313 C.3     
  23 C23           -9.7575     3.3345    -2.3686 C.3     
  24 C24          -10.3309     2.3149    -0.0371 C.3     
  25 C25          -10.9792     4.5942     0.8002 C.3     
  26 O26            0.2058     4.6950    -1.1973 O.2     
  27 O27           -0.4635     5.3557     1.0944 O.2     
  28 H28            0.9567    -0.5087     0.0208 H       
  29 H29           -1.0455    -1.8245    -0.0353 H       
  30 H30           -3.2775    -0.7409    -0.0846 H       
  31 H31            2.2043     3.8263     0.7857 H       
  32 H32            1.0198     3.0624     1.8819 H       
  33 H33            2.0400     1.3569     0.4087 H       
  34 H34            1.5548     2.2884    -1.0250 H       
  35 H35           -4.3878     1.1471     1.8557 H       
  36 H36           -6.5623     2.2654     1.8085 H       
  37 H37           -5.6199     3.9409    -2.0262 H       
  38 H38           -3.4406     2.8322    -1.9764 H       
  39 H39          -10.1141     6.0607    -2.4817 H       
  40 H40          -11.4566     5.3269    -1.5720 H       
  41 H41          -10.2574     6.3367    -0.7291 H       
  42 H42           -9.1527     2.4530    -2.1558 H       
  43 H43          -10.8096     3.0525    -2.4075 H       
  44 H44           -9.4588     3.7571    -3.3279 H       
  45 H45          -10.5107     1.8867     0.9490 H       
  46 H46          -11.2482     2.2726    -0.6243 H       
  47 H47           -9.5494     1.7475    -0.5426 H       
  48 H48          -10.6541     5.6312     0.8841 H       
  49 H49          -11.8952     4.5471     0.2112 H       
  50 H50          -11.1660     4.1903     1.7953 H       
@<TRIPOS>BOND
   1    1    2 1
   2    1   10 1
   3    1    6 1
   4    2    3 2
   5    2   28 1
   6    3    4 1
   7    3   29 1
   8    4    5 2
   9    4   30 1
  10    5    6 1
  11    5   11 1
  12    6    7 2
  13    7    8 am
  14    8    9 1
  15    8   26 2
  16    8   27 2
  17    9   10 1
  18    9   31 1
  19    9   32 1
  20   10   33 1
  21   10   34 1
  22   11   12 ar
  23   11   16 ar
  24   12   13 ar
  25   12   35 1
  26   13   14 ar
  27   13   36 1
  28   14   15 ar
  29   14   18 1
  30   15   16 ar
  31   15   37 1
  32   16   38 1
  33   17   18 1
  34   17   21 1
  35   18   19 1
  36   19   20 1
  37   20   21 1
  38   20   24 1
  39   20   25 1
  40   21   22 1
  41   21   23 1
  42   22   39 1
  43   22   40 1
  44   22   41 1
  45   23   42 1
  46   23   43 1
  47   23   44 1
  48   24   45 1
  49   24   46 1
  50   24   47 1
  51   25   48 1
  52   25   49 1
  53   25   50 1

#	End of record

