#	Name: ASD03330253
#	Creating user name:	WinNT
#	Creation time:	15. 06. 2019 20:36

#	Modifying user name:	WinNT
#	Modification time:	15. 06. 2019 20:36

#	Program:	/corina/corina34_cracker 3.40 0067  02.08.2006

@<TRIPOS>MOLECULE
ASD03330253
  42   45    0    0    0
SMALL
NO_CHARGES


@<TRIPOS>ATOM
   1 C1            -0.1728     1.6382    -0.2446 C.3     
   2 N2            -0.2293     0.1698    -0.2608 N.3     
   3 C3             0.2812    -0.3693    -1.5343 C.3     
   4 C4             1.6149     0.2753    -1.8108 C.2     
   5 N5             2.0601     1.3953    -1.1716 N.pl3   
   6 C6             1.2864     2.1018    -0.1468 C.3     
   7 C7             2.5808    -0.0960    -2.6877 C.2     
   8 N8             3.5984     0.7883    -2.5766 N.2     
   9 C9             3.2915     1.6857    -1.6668 C.2     
  10 C10            4.1436     2.8219    -1.2520 C.ar    
  11 C11            5.2345     3.2016    -2.0345 C.ar    
  12 C12            2.5307    -1.2541    -3.5972 C.2     
  13 O13            1.5549    -1.9801    -3.6043 O.2     
  14 C14            3.5687    -2.6684    -5.2033 C.ar    
  15 N15            3.5663    -1.5089    -4.4213 N.am    
  16 C16            6.0253     4.2620    -1.6422 C.ar    
  17 C17            5.7384     4.9483    -0.4757 C.ar    
  18 C18            4.6581     4.5767     0.3046 C.ar    
  19 C19            3.8562     3.5217    -0.0798 C.ar    
  20 C20            4.1274    -2.6492    -6.4747 C.ar    
  21 C21            3.0176    -3.8431    -4.7079 C.ar    
  22 C22            3.0220    -4.9865    -5.4825 C.ar    
  23 C23            3.5744    -4.9627    -6.7500 C.ar    
  24 C24            4.1286    -3.7961    -7.2442 C.ar    
  25 H25           -0.6161     2.0279    -1.1610 H       
  26 H26           -0.7302     2.0127     0.6140 H       
  27 H27            0.2717    -0.2200     0.5235 H       
  28 H28            0.4034    -1.4495    -1.4547 H       
  29 H29           -0.4153    -0.1349    -2.3393 H       
  30 H30            1.3432     3.1766    -0.3189 H       
  31 H31            1.6821     1.8654     0.8409 H       
  32 H32            5.4596     2.6664    -2.9451 H       
  33 H33            4.3099    -0.8881    -4.4721 H       
  34 H34            6.8702     4.5567    -2.2469 H       
  35 H35            6.3607     5.7774    -0.1728 H       
  36 H36            4.4394     5.1164     1.2141 H       
  37 H37            3.0132     3.2325     0.5302 H       
  38 H38            4.5601    -1.7384    -6.8614 H       
  39 H39            2.5864    -3.8624    -3.7179 H       
  40 H40            2.5940    -5.9003    -5.0977 H       
  41 H41            3.5769    -5.8583    -7.3535 H       
  42 H42            4.5589    -3.7807    -8.2346 H       
@<TRIPOS>BOND
   1    1    2 1
   2    1    6 1
   3    1   25 1
   4    1   26 1
   5    2    3 1
   6    2   27 1
   7    3    4 1
   8    3   28 1
   9    3   29 1
  10    4    5 1
  11    4    7 2
  12    5    6 1
  13    5    9 1
  14    6   30 1
  15    6   31 1
  16    7    8 1
  17    7   12 1
  18    8    9 2
  19    9   10 1
  20   10   11 ar
  21   10   19 ar
  22   11   16 ar
  23   11   32 1
  24   12   13 2
  25   12   15 am
  26   14   15 1
  27   14   20 ar
  28   14   21 ar
  29   15   33 1
  30   16   17 ar
  31   16   34 1
  32   17   18 ar
  33   17   35 1
  34   18   19 ar
  35   18   36 1
  36   19   37 1
  37   20   24 ar
  38   20   38 1
  39   21   22 ar
  40   21   39 1
  41   22   23 ar
  42   22   40 1
  43   23   24 ar
  44   23   41 1
  45   24   42 1

#	End of record

