#	Name: ASD00844742
#	Creating user name:	WinNT
#	Creation time:	15. 06. 2019 18:50

#	Modifying user name:	WinNT
#	Modification time:	15. 06. 2019 18:50

#	Program:	/corina/corina34_cracker 3.40 0067  02.08.2006

@<TRIPOS>MOLECULE
ASD00844742
  96  101    0    0    0
SMALL
NO_CHARGES


@<TRIPOS>ATOM
   1 C1             0.7711     1.2497    -0.4652 C.ar    
   2 C2             1.0111    -0.0942    -0.7112 C.ar    
   3 C3             0.9026    -1.0160     0.3202 C.ar    
   4 C4             0.5561    -0.5937     1.5888 C.ar    
   5 C5             0.3169     0.7466     1.8313 C.ar    
   6 C6             0.4247     1.6671     0.8055 C.ar    
   7 C7             1.1622    -2.4769     0.0563 C.3     
   8 C8             0.8488    -3.3021     1.2862 C.2     
   9 C9             0.3369    -2.9597    -1.1381 C.3     
  10 C10           -1.1201    -2.6602    -0.8958 C.2     
  11 N11           -2.0507    -3.0875    -1.7721 N.am    
  12 O12           -1.4552    -2.0346     0.0876 O.2     
  13 C13           -3.4605    -2.7061    -1.6123 C.3     
  14 C14           -4.3175    -3.9758    -1.6088 C.3     
  15 C15           -4.0253    -4.7872    -2.8731 C.3     
  16 C16           -2.5515    -5.1992    -2.8877 C.3     
  17 C17           -1.6736    -3.9387    -2.9088 C.3     
  18 C18           -4.9047    -6.0391    -2.8900 C.3     
  19 C19           -6.3798    -5.6284    -2.8772 C.3     
  20 C20           -7.2540    -6.8821    -2.9557 C.3     
  21 N21           -6.9436    -7.6205    -4.1864 N.3     
  22 C22           -5.5444    -8.0662    -4.1997 C.3     
  23 C23           -4.6192    -6.8479    -4.1584 C.3     
  24 C24           -7.8593    -8.7553    -4.3646 C.3     
  25 O25           -0.2301    -3.4013     1.8310 O.2     
  26 N26            1.9897    -3.9046     1.6605 N.am    
  27 C27            2.6355    -2.7188    -0.1814 C.ar    
  28 C28            3.0560    -3.5859     0.8243 C.ar    
  29 C29            3.5121    -2.2607    -1.1320 C.ar    
  30 C30            4.8510    -2.6664    -1.0974 C.ar    
  31 C31            5.2808    -3.5379    -0.0894 C.ar    
  32 C32            4.3900    -3.9922     0.8593 C.ar    
  33 F33            6.5713    -3.9354    -0.0473 F       
  34 C34            1.7788    -6.5464     2.4025 C.ar    
  35 C35            2.8124    -7.3448     1.9486 C.ar    
  36 C36            0.4838    -7.0305     2.4181 C.ar    
  37 C37            0.2195    -8.3137     1.9798 C.ar    
  38 C38            1.2548    -9.1167     1.5238 C.ar    
  39 C39            2.5533    -8.6284     1.5088 C.ar    
  40 O40            0.9975   -10.3795     1.0925 O.3     
  41 H41            3.8231    -6.9643     1.9375 H       
  42 C42            2.1119   -11.1492     0.6370 C.3     
  43 C43           -7.5870    -9.4234    -5.7138 C.3     
  44 C44           -7.6398    -9.7692    -3.2399 C.3     
  45 O45            1.3514    -0.5073    -1.9604 O.3     
  46 C46            1.3746     0.4853    -2.9881 C.3     
  47 C47            1.8550    -0.1463    -4.2963 C.3     
  48 F48            3.1045    -0.7424    -4.0951 F       
  49 F49            0.9365    -1.1168    -4.7104 F       
  50 C50            5.7739    -2.1943    -2.0853 C.1     
  51 N51            6.5061    -1.8199    -2.8690 N.1     
  52 S52            2.1136    -4.9119     2.9690 S.o2    
  53 O53            3.4795    -4.8948     3.3606 O.2     
  54 O54            1.0496    -4.5649     3.8447 O.2     
  55 H55            0.8592     1.9697    -1.2654 H       
  56 H56            0.4716    -1.3108     2.3919 H       
  57 H57            0.0454     1.0747     2.8238 H       
  58 H58            0.2374     2.7132     0.9975 H       
  59 H59            0.6683    -2.4457    -2.0403 H       
  60 H60            0.4712    -4.0342    -1.2620 H       
  61 H61           -3.5907    -2.1748    -0.6695 H       
  62 H62           -3.7616    -2.0643    -2.4403 H       
  63 H63           -4.0782    -4.5738    -0.7294 H       
  64 H64           -5.3725    -3.7027    -1.5875 H       
  65 H65           -4.2413    -4.1800    -3.7522 H       
  66 H66           -2.3289    -5.7856    -1.9962 H       
  67 H67           -2.3495    -5.7967    -3.7766 H       
  68 H68           -1.8302    -3.3999    -3.8433 H       
  69 H69           -0.6249    -4.2222    -2.8194 H       
  70 H70           -4.6885    -6.6480    -2.0122 H       
  71 H71           -6.5993    -5.0888    -1.9560 H       
  72 H72           -6.5863    -4.9866    -3.7337 H       
  73 H73           -7.0569    -7.5169    -2.0918 H       
  74 H74           -8.3047    -6.5924    -2.9612 H       
  75 H75           -5.3554    -8.6954    -3.3300 H       
  76 H76           -5.3536    -8.6365    -5.1088 H       
  77 H77           -4.7980    -6.2252    -5.0350 H       
  78 H78           -3.5809    -7.1795    -4.1525 H       
  79 H79           -8.8890    -8.3991    -4.3368 H       
  80 H80            3.1697    -1.5890    -1.9053 H       
  81 H81            4.7269    -4.6645     1.6346 H       
  82 H82           -0.3218    -6.4051     2.7735 H       
  83 H83           -0.7922    -8.6915     1.9924 H       
  84 H84            3.3610    -9.2518     1.1547 H       
  85 H85            2.5835   -10.6426    -0.2050 H       
  86 H86            2.8338   -11.2576     1.4464 H       
  87 H87            1.7685   -12.1346     0.3221 H       
  88 H88           -6.5572    -9.7797    -5.7416 H       
  89 H89           -8.2664   -10.2655    -5.8460 H       
  90 H90           -7.7433    -8.7012    -6.5150 H       
  91 H91           -7.8338    -9.2932    -2.2787 H       
  92 H92           -8.3192   -10.6112    -3.3721 H       
  93 H93           -6.6100   -10.1254    -3.2677 H       
  94 H94            0.3715     0.8887    -3.1263 H       
  95 H95            2.0532     1.2888    -2.7019 H       
  96 H96            1.9393     0.6245    -5.0624 H       
@<TRIPOS>BOND
   1    1    2 ar
   2    1    6 ar
   3    1   55 1
   4    2    3 ar
   5    2   45 1
   6    3    4 ar
   7    3    7 1
   8    4    5 ar
   9    4   56 1
  10    5    6 ar
  11    5   57 1
  12    6   58 1
  13    7    8 1
  14    7    9 1
  15    7   27 1
  16    8   25 2
  17    8   26 am
  18    9   10 1
  19    9   59 1
  20    9   60 1
  21   10   11 am
  22   10   12 2
  23   11   13 1
  24   11   17 1
  25   13   14 1
  26   13   61 1
  27   13   62 1
  28   14   15 1
  29   14   63 1
  30   14   64 1
  31   15   16 1
  32   15   18 1
  33   15   65 1
  34   16   17 1
  35   16   66 1
  36   16   67 1
  37   17   68 1
  38   17   69 1
  39   18   19 1
  40   18   23 1
  41   18   70 1
  42   19   20 1
  43   19   71 1
  44   19   72 1
  45   20   21 1
  46   20   73 1
  47   20   74 1
  48   21   22 1
  49   21   24 1
  50   22   23 1
  51   22   75 1
  52   22   76 1
  53   23   77 1
  54   23   78 1
  55   24   43 1
  56   24   44 1
  57   24   79 1
  58   26   52 am
  59   26   28 1
  60   27   28 ar
  61   27   29 ar
  62   28   32 ar
  63   29   30 ar
  64   29   80 1
  65   30   31 ar
  66   30   50 1
  67   31   32 ar
  68   31   33 1
  69   32   81 1
  70   34   35 ar
  71   34   36 ar
  72   34   52 1
  73   35   41 1
  74   35   39 ar
  75   36   37 ar
  76   36   82 1
  77   37   38 ar
  78   37   83 1
  79   38   39 ar
  80   38   40 1
  81   39   84 1
  82   40   42 1
  83   42   85 1
  84   42   86 1
  85   42   87 1
  86   43   88 1
  87   43   89 1
  88   43   90 1
  89   44   91 1
  90   44   92 1
  91   44   93 1
  92   45   46 1
  93   46   47 1
  94   46   94 1
  95   46   95 1
  96   47   48 1
  97   47   49 1
  98   47   96 1
  99   50   51 3
 100   52   53 2
 101   52   54 2

#	End of record

