#	Name: ASD05143093
#	Creating user name:	WinNT
#	Creation time:	15. 06. 2019 20:57

#	Modifying user name:	WinNT
#	Modification time:	15. 06. 2019 20:57

#	Program:	/corina/corina34_cracker 3.40 0067  02.08.2006

@<TRIPOS>MOLECULE
ASD05143093
 148  151    0    0    0
SMALL
NO_CHARGES


@<TRIPOS>ATOM
   1 C1            -1.5947     3.5271    -0.4297 C.2     
   2 C2            -1.8009     2.0959    -0.0053 C.3     
   3 N3            -0.3902     4.1104    -0.2704 N.am    
   4 O4            -2.5113     4.1525    -0.9192 O.2     
   5 C5            -0.1897     5.5017    -0.6829 C.3     
   6 C6            -1.1451     6.4075     0.0967 C.3     
   7 C7            -0.4653     5.6328    -2.1587 C.2     
   8 C8            -0.7843     6.3701     1.5831 C.3     
   9 C9            -1.7397     7.2759     2.3627 C.3     
  10 N10           -1.3943     7.2400     3.7859 N.pl3   
  11 C11           -2.1200     7.9812     4.6883 C.2     
  12 N12           -1.7958     7.9475     6.0240 N.pl3   
  13 N13           -3.1153     8.7157     4.2775 N.2     
  14 O14           -1.1283     4.7923    -2.7288 O.2     
  15 N15            0.0250     6.6839    -2.8451 N.am    
  16 C16           -0.2429     6.8113    -4.2797 C.3     
  17 C17           -0.1555     8.2836    -4.6858 C.3     
  18 C18           -0.9361     8.5024    -5.9560 C.2     
  19 N19           -1.6004     9.6778    -6.1304 N.am    
  20 C20           -2.3420     9.8356    -7.3973 C.3     
  21 C21           -2.0801    11.2375    -7.9518 C.3     
  22 C22           -1.5379    11.1286    -9.3784 C.3     
  23 C23           -0.1803    11.8289    -9.4632 C.3     
  24 C24            0.2017    12.0241   -10.9318 C.3     
  25 N25            1.6542    12.2744   -11.0182 N.am    
  26 C26           -0.5481    13.2033   -11.4960 C.2     
  27 N27           -1.8310    13.0629   -11.8846 N.am    
  28 O28            0.0028    14.2787   -11.6004 O.2     
  29 C29            2.4218    11.2497   -11.4809 C.2     
  30 O30            1.9129    10.1958   -11.7992 O.2     
  31 C31            3.9122    11.4427   -11.5928 C.3     
  32 N32            4.5616    10.1118   -11.6021 N.am    
  33 C33            4.2382    12.1823   -12.8919 C.3     
  34 C34            5.3306     9.8286   -10.5091 C.2     
  35 O35            5.4530    10.6379    -9.6141 O.2     
  36 C36            6.0237     8.4925   -10.4351 C.3     
  37 N37            6.2194     8.1363    -9.0154 N.am    
  38 C38            5.1607     7.4286   -11.1166 C.3     
  39 C39            5.8075     6.8954    -8.6368 C.2     
  40 O40            5.3173     6.1368    -9.4462 O.2     
  41 C41            5.9696     6.4770    -7.1980 C.3     
  42 C42            5.7142    12.4821   -12.9424 C.2     
  43 C43            6.7700    11.5842   -13.4168 C.ar    
  44 C44            7.9764    12.2936   -13.2751 C.ar    
  45 N45            7.6626    13.5283   -12.7527 N.pl3   
  46 C46            6.3104    13.6246   -12.5667 C.2     
  47 C47            6.7815    10.2855   -13.9298 C.ar    
  48 C48            7.9665     9.7099   -14.2920 C.ar    
  49 C49            9.1598    10.4057   -14.1536 C.ar    
  50 C50            9.1713    11.6880   -13.6506 C.ar    
  51 N51            4.8604     5.5616    -6.8451 N.am    
  52 C52            5.9236     7.7117    -6.2957 C.3     
  53 C53            7.0954     8.6063    -6.6083 C.ar    
  54 C54            6.8769     9.8776    -7.1088 C.ar    
  55 C55            7.9448    10.7019    -7.3967 C.ar    
  56 C56            9.2487    10.2506    -7.1819 C.ar    
  57 C57            9.4619     8.9665    -6.6766 C.ar    
  58 C58            8.3845     8.1546    -6.3881 C.ar    
  59 C59            0.7753     6.0142    -5.0533 C.2     
  60 O60            0.4866     5.5229    -6.1239 O.2     
  61 C61            3.7725     7.4095   -10.4737 C.3     
  62 C62            2.8848     6.4019   -11.2070 C.3     
  63 N63            1.5555     6.3836   -10.5914 N.pl3   
  64 C64            0.5810     5.5486   -11.0847 C.2     
  65 N65           -0.6665     5.5314   -10.5070 N.pl3   
  66 N66            0.8398     4.7733   -12.1000 N.2     
  67 N67            2.0236     5.8532    -4.5346 N.am    
  68 C68            2.9717     5.0511    -5.3332 C.3     
  69 C69            4.1192     5.9307    -5.7582 C.2     
  70 O70            4.3798     6.9456    -5.1475 O.2     
  71 C71            2.2612     4.5017    -6.5718 C.3     
  72 C72            1.2066     3.4794    -6.1435 C.3     
  73 C73            0.4136     3.0411    -7.3477 C.2     
  74 O74           -0.9718     7.6433    -6.8113 O.2     
  75 O75            0.6670     3.5011    -8.4409 O.2     
  76 N76           -0.5772     2.1379    -7.2098 N.am    
  77 C77           10.3621    11.1007    -7.4789 C.1     
  78 N78           11.2454    11.7751    -7.7146 N.1     
  79 H79           -2.1285     2.0686     1.0339 H       
  80 H80           -2.5598     1.6351    -0.6377 H       
  81 H81           -0.8635     1.5486    -0.1053 H       
  82 H82            0.3440     3.6089     0.1175 H       
  83 H83            0.8393     5.7968    -0.4779 H       
  84 H84           -1.0592     7.4295    -0.2724 H       
  85 H85           -2.1685     6.0575    -0.0377 H       
  86 H86           -0.8702     5.3481     1.9522 H       
  87 H87            0.2391     6.7201     1.7175 H       
  88 H88           -1.6538     8.2979     1.9936 H       
  89 H89           -2.7631     6.9258     2.2283 H       
  90 H90           -0.6535     6.6934     4.0917 H       
  91 H91           -1.0551     7.4009     6.3297 H       
  92 H92           -2.3078     8.4704     6.6606 H       
  93 H93           -3.6273     9.2386     4.9142 H       
  94 H94            0.5552     7.3562    -2.3891 H       
  95 H95           -1.2417     6.4332    -4.4976 H       
  96 H96           -0.5713     8.9046    -3.8923 H       
  97 H97            0.8877     8.5539    -4.8494 H       
  98 H98           -1.5869    10.3758    -5.4570 H       
  99 H99           -2.0015     9.0894    -8.1152 H       
 100 H100          -3.4090     9.7088    -7.2141 H       
 101 H101          -3.0107    11.8050    -7.9592 H       
 102 H102          -1.3493    11.7462    -7.3232 H       
 103 H103          -1.4218    10.0777    -9.6436 H       
 104 H104          -2.2351    11.6027   -10.0692 H       
 105 H105          -0.2409    12.7998    -8.9714 H       
 106 H106           0.5753    11.2179    -8.9693 H       
 107 H107          -0.0483    11.1260   -11.4966 H       
 108 H108           2.0416    13.1251   -10.7590 H       
 109 H109          -2.2716    12.2028   -11.8011 H       
 110 H110          -2.3136    13.8219   -12.2478 H       
 111 H111           4.2715    12.0192   -10.7404 H       
 112 H112           4.4485     9.4846   -12.3333 H       
 113 H113           3.9647    11.5591   -13.7433 H       
 114 H114           3.6765    13.1157   -12.9294 H       
 115 H115           6.9914     8.5548   -10.9329 H       
 116 H116           6.6210     8.7547    -8.3852 H       
 117 H117           5.0668     7.6617   -12.1772 H       
 118 H118           5.6289     6.4513   -10.9994 H       
 119 H119           6.9225     5.9632    -7.0714 H       
 120 H120           8.3041    14.2271   -12.5504 H       
 121 H121           5.7993    14.4890   -12.1691 H       
 122 H122           5.8571     9.7380   -14.0395 H       
 123 H123           7.9749     8.7054   -14.6887 H       
 124 H124          10.0886     9.9371   -14.4440 H       
 125 H125          10.1048    12.2211   -13.5472 H       
 126 H126           4.6727     4.7555    -7.3510 H       
 127 H127           4.9949     8.2550    -6.4703 H       
 128 H128           5.9720     7.4010    -5.2520 H       
 129 H129           5.8679    10.2252    -7.2747 H       
 130 H130           7.7729    11.6939    -7.7876 H       
 131 H131          10.4678     8.6111    -6.5085 H       
 132 H132           8.5480     7.1612    -5.9972 H       
 133 H133           3.8610     7.1210    -9.4263 H       
 134 H134           3.3273     8.4022   -10.5407 H       
 135 H135           2.7962     6.6904   -12.2543 H       
 136 H136           3.3299     5.4092   -11.1399 H       
 137 H137           1.3629     6.9606    -9.8358 H       
 138 H138          -0.8591     6.1083    -9.7514 H       
 139 H139          -1.3541     4.9422   -10.8550 H       
 140 H140           0.1522     4.1841   -12.4480 H       
 141 H141           2.2773     6.2454    -3.6845 H       
 142 H142           3.3489     4.2250    -4.7303 H       
 143 H143           1.7783     5.3197    -7.1064 H       
 144 H144           2.9894     4.0206    -7.2249 H       
 145 H145           1.6986     2.6147    -5.6981 H       
 146 H146           0.5369     3.9327    -5.4127 H       
 147 H147          -0.7799     1.7700    -6.3354 H       
 148 H148          -1.0877     1.8558    -7.9849 H       
@<TRIPOS>BOND
   1    1    2 1
   2    1    3 am
   3    1    4 2
   4    2   79 1
   5    2   80 1
   6    2   81 1
   7    3    5 1
   8    3   82 1
   9    5    6 1
  10    5    7 1
  11    5   83 1
  12    6    8 1
  13    6   84 1
  14    6   85 1
  15    7   14 2
  16    7   15 am
  17    8    9 1
  18    8   86 1
  19    8   87 1
  20    9   10 1
  21    9   88 1
  22    9   89 1
  23   10   11 1
  24   10   90 1
  25   11   12 1
  26   11   13 2
  27   12   91 1
  28   12   92 1
  29   13   93 1
  30   15   16 1
  31   15   94 1
  32   16   17 1
  33   16   59 1
  34   16   95 1
  35   17   18 1
  36   17   96 1
  37   17   97 1
  38   18   19 am
  39   18   74 2
  40   19   20 1
  41   19   98 1
  42   20   21 1
  43   20   99 1
  44   20  100 1
  45   21   22 1
  46   21  101 1
  47   21  102 1
  48   22   23 1
  49   22  103 1
  50   22  104 1
  51   23   24 1
  52   23  105 1
  53   23  106 1
  54   24   25 1
  55   24   26 1
  56   24  107 1
  57   25   29 am
  58   25  108 1
  59   26   27 am
  60   26   28 2
  61   27  109 1
  62   27  110 1
  63   29   30 2
  64   29   31 1
  65   31   32 1
  66   31   33 1
  67   31  111 1
  68   32   34 am
  69   32  112 1
  70   33   42 1
  71   33  113 1
  72   33  114 1
  73   34   35 2
  74   34   36 1
  75   36   37 1
  76   36   38 1
  77   36  115 1
  78   37   39 am
  79   37  116 1
  80   38   61 1
  81   38  117 1
  82   38  118 1
  83   39   40 2
  84   39   41 1
  85   41   51 1
  86   41   52 1
  87   41  119 1
  88   42   43 1
  89   42   46 2
  90   43   44 ar
  91   43   47 ar
  92   44   45 1
  93   44   50 ar
  94   45   46 1
  95   45  120 1
  96   46  121 1
  97   47   48 ar
  98   47  122 1
  99   48   49 ar
 100   48  123 1
 101   49   50 ar
 102   49  124 1
 103   50  125 1
 104   51   69 am
 105   51  126 1
 106   52   53 1
 107   52  127 1
 108   52  128 1
 109   53   54 ar
 110   53   58 ar
 111   54   55 ar
 112   54  129 1
 113   55   56 ar
 114   55  130 1
 115   56   57 ar
 116   56   77 1
 117   57   58 ar
 118   57  131 1
 119   58  132 1
 120   59   60 2
 121   59   67 am
 122   61   62 1
 123   61  133 1
 124   61  134 1
 125   62   63 1
 126   62  135 1
 127   62  136 1
 128   63   64 1
 129   63  137 1
 130   64   65 1
 131   64   66 2
 132   65  138 1
 133   65  139 1
 134   66  140 1
 135   67   68 1
 136   67  141 1
 137   68   69 1
 138   68   71 1
 139   68  142 1
 140   69   70 2
 141   71   72 1
 142   71  143 1
 143   71  144 1
 144   72   73 1
 145   72  145 1
 146   72  146 1
 147   73   75 2
 148   73   76 am
 149   76  147 1
 150   76  148 1
 151   77   78 3

#	End of record

