#	Name: ASD01810164
#	Creating user name:	WinNT
#	Creation time:	15. 06. 2019 19:23

#	Modifying user name:	WinNT
#	Modification time:	15. 06. 2019 19:23

#	Program:	/corina/corina34_cracker 3.40 0067  02.08.2006

@<TRIPOS>MOLECULE
ASD01810164
  38   40    0    0    0
SMALL
NO_CHARGES


@<TRIPOS>ATOM
   1 C1             0.1039     1.4767     0.3862 C.ar    
   2 C2             0.0848     0.0904     0.3779 C.ar    
   3 C3             1.2533    -0.6304     0.2378 C.ar    
   4 C4             2.4704     0.0349     0.1021 C.ar    
   5 C5             2.4882     1.4401     0.1102 C.ar    
   6 C6             1.2976     2.1572     0.2533 C.ar    
   7 N7             3.6447    -0.6745    -0.0381 N.pl3   
   8 C8             4.8383    -0.0823    -0.1707 C.2     
   9 C9             4.9814     1.2905    -0.1773 C.2     
  10 C10            3.7816     2.1314    -0.0341 C.2     
  11 O11            3.8550     3.3478    -0.0338 O.2     
  12 C12            6.3093     1.9025    -0.3248 C.2     
  13 O13            6.4362     3.2445    -0.3297 O.3     
  14 O14            7.2934     1.1984    -0.4423 O.2     
  15 C15            3.5837    -2.1382    -0.0416 C.3     
  16 C16            3.4399    -2.6316    -1.4583 C.ar    
  17 C17            4.5600    -2.7756    -2.2559 C.ar    
  18 C18            4.4309    -3.2277    -3.5549 C.ar    
  19 C19            3.1759    -3.5373    -4.0589 C.ar    
  20 C20            2.0536    -3.3919    -3.2565 C.ar    
  21 C21            2.1887    -2.9448    -1.9563 C.ar    
  22 O22            3.0462    -3.9818    -5.3365 O.3     
  23 C23            1.7240    -4.2813    -5.7882 C.3     
  24 F24            1.3144     3.5081     0.2607 F       
  25 F25            1.2175    -1.9809     0.2326 F       
  26 H26           -0.8195     2.0265     0.4926 H       
  27 H27           -0.8550    -0.4313     0.4826 H       
  28 H28            5.7183    -0.6995    -0.2757 H       
  29 H29            7.3297     3.6007    -0.4293 H       
  30 H30            4.4988    -2.5410     0.3923 H       
  31 H31            2.7271    -2.4675     0.5465 H       
  32 H32            5.5367    -2.5342    -1.8633 H       
  33 H33            5.3061    -3.3397    -4.1777 H       
  34 H34            1.0756    -3.6323    -3.6465 H       
  35 H35            1.3153    -2.8315    -1.3313 H       
  36 H36            1.7622    -4.6249    -6.8219 H       
  37 H37            1.2941    -5.0625    -5.1612 H       
  38 H38            1.1070    -3.3848    -5.7259 H       
@<TRIPOS>BOND
   1    1    2 ar
   2    1    6 ar
   3    1   26 1
   4    2    3 ar
   5    2   27 1
   6    3    4 ar
   7    3   25 1
   8    4    5 ar
   9    4    7 1
  10    5    6 ar
  11    5   10 1
  12    6   24 1
  13    7    8 1
  14    7   15 1
  15    8    9 2
  16    8   28 1
  17    9   10 1
  18    9   12 1
  19   10   11 2
  20   12   13 1
  21   12   14 2
  22   13   29 1
  23   15   16 1
  24   15   30 1
  25   15   31 1
  26   16   17 ar
  27   16   21 ar
  28   17   18 ar
  29   17   32 1
  30   18   19 ar
  31   18   33 1
  32   19   20 ar
  33   19   22 1
  34   20   21 ar
  35   20   34 1
  36   21   35 1
  37   22   23 1
  38   23   36 1
  39   23   37 1
  40   23   38 1

#	End of record

