#	Name: ASD00840109
#	Creating user name:	WinNT
#	Creation time:	15. 06. 2019 18:37

#	Modifying user name:	WinNT
#	Modification time:	15. 06. 2019 18:37

#	Program:	/corina/corina34_cracker 3.40 0067  02.08.2006

@<TRIPOS>MOLECULE
ASD00840109
  95  100    0    0    0
SMALL
NO_CHARGES


@<TRIPOS>ATOM
   1 N1             0.0290     1.3130     0.1256 N.3     
   2 C2            -0.5282     1.6752    -1.1852 C.3     
   3 C3             0.3627     1.1037    -2.2907 C.3     
   4 N4             0.4472    -0.3559    -2.1427 N.3     
   5 C5             1.0044    -0.7181    -0.8320 C.3     
   6 C6             0.1135    -0.1466     0.2736 C.3     
   7 N7            -2.2003     5.0695     3.0947 N.am    
   8 C8            -2.2038     3.7685     2.7602 C.2     
   9 C9            -0.8857     3.1850     3.2227 C.3     
  10 C10           -0.1687     4.3562     3.8552 C.ar    
  11 C11            1.0584     4.4814     4.4565 C.ar    
  12 C12            1.4627     5.7221     4.9611 C.ar    
  13 C13            0.6069     6.8247     4.8460 C.ar    
  14 C14           -0.6231     6.6859     4.2404 C.ar    
  15 C15           -1.0248     5.4480     3.7372 C.ar    
  16 O16           -3.0958     3.1729     2.1941 O.2     
  17 F17            0.9880     8.0270     5.3300 F       
  18 C18           -1.1174     2.0963     4.2386 C.ar    
  19 C19           -1.9407     1.0228     3.9304 C.ar    
  20 C20           -2.1521     0.0223     4.8677 C.ar    
  21 C21           -1.5426     0.0970     6.1054 C.ar    
  22 C22           -0.7231     1.1678     6.4102 C.ar    
  23 C23           -0.5059     2.1634     5.4753 C.ar    
  24 O24           -2.5394     0.9519     2.7125 O.3     
  25 C25           -3.3735    -0.1816     2.4646 C.3     
  26 C26           -3.9554    -0.0876     1.0527 C.3     
  27 S27           -3.4500     6.1072     2.7728 S.o2    
  28 O28           -2.8914     7.4137     2.7515 O.2     
  29 O29           -4.1633     5.5490     1.6779 O.2     
  30 C30           -4.5407     6.0550     4.1557 C.ar    
  31 C31           -5.2204     4.8834     4.4589 C.ar    
  32 C32           -6.0783     4.8429     5.5469 C.ar    
  33 C33           -6.2551     5.9735     6.3299 C.ar    
  34 C34           -5.5733     7.1423     6.0227 C.ar    
  35 C35           -4.7142     7.1785     4.9408 C.ar    
  36 O36           -7.0958     5.9370     7.3970 O.3     
  37 C37           -7.2294     7.1385     8.1590 C.3     
  38 O38           -5.0454     3.7771     3.6893 O.3     
  39 C39           -5.7768     2.6067     4.0599 C.3     
  40 C40            2.7411     5.8633     5.5907 C.1     
  41 N41            3.7552     5.9753     6.0902 N.1     
  42 C42           -0.1013     2.6564     2.0496 C.2     
  43 O43            1.0709     2.9421     1.9257 O.2     
  44 N44           -0.7023     1.8662     1.1381 N.am    
  45 N45            1.4325    -2.8539    -5.3943 N.3     
  46 C46            2.1726    -3.0761    -4.1456 C.3     
  47 C47            1.4054    -2.4511    -2.9782 C.3     
  48 C48            1.2336    -0.9508    -3.2316 C.3     
  49 C49            0.5028    -0.7462    -4.5615 C.3     
  50 C50            1.2962    -1.4206    -5.6830 C.3     
  51 C51            2.0682    -3.5586    -6.5156 C.3     
  52 C52            1.1456    -3.5135    -7.7352 C.3     
  53 H53           -1.5333     1.2641    -1.2792 H       
  54 H54           -0.5690     2.7606    -1.2757 H       
  55 H55           -0.0644     1.3464    -3.2638 H       
  56 H56            1.3605     1.5355    -2.2133 H       
  57 H57            1.0452    -1.8035    -0.7415 H       
  58 H58            2.0095    -0.3070    -0.7379 H       
  59 H59            0.5406    -0.3893     1.2466 H       
  60 H60           -0.8843    -0.5784     0.1961 H       
  61 H61            1.7103     3.6244     4.5402 H       
  62 H62           -1.2793     7.5394     4.1546 H       
  63 H63           -2.7927    -0.8141     4.6303 H       
  64 H64           -1.7068    -0.6818     6.8355 H       
  65 H65           -0.2481     1.2247     7.3785 H       
  66 H66            0.1385     2.9965     5.7141 H       
  67 H67           -2.7833    -1.0936     2.5543 H       
  68 H68           -4.1854    -0.2012     3.1916 H       
  69 H69           -3.1436    -0.0680     0.3257 H       
  70 H70           -4.5917    -0.9522     0.8636 H       
  71 H71           -4.5457     0.8244     0.9629 H       
  72 H72           -6.6083     3.9324     5.7842 H       
  73 H73           -5.7107     8.0232     6.6323 H       
  74 H74           -4.1811     8.0878     4.7059 H       
  75 H75           -7.9279     6.9728     8.9792 H       
  76 H76           -6.2573     7.4234     8.5615 H       
  77 H77           -7.6048     7.9358     7.5175 H       
  78 H78           -6.8452     2.8204     4.0269 H       
  79 H79           -5.5462     1.7991     3.3652 H       
  80 H80           -5.4970     2.3081     5.0701 H       
  81 H81           -1.6541     1.6903     1.2011 H       
  82 H82            2.2842    -4.1468    -3.9751 H       
  83 H83            3.1579    -2.6158    -4.2206 H       
  84 H84            0.4253    -2.9205    -2.8940 H       
  85 H85            1.9627    -2.6025    -2.0538 H       
  86 H86            2.2130    -0.4744    -3.2760 H       
  87 H87           -0.4915    -1.1887    -4.5022 H       
  88 H88            0.4153     0.3205    -4.7683 H       
  89 H89            2.2856    -0.9681    -5.7508 H       
  90 H90            0.7713    -1.2890    -6.6291 H       
  91 H91            3.0150    -3.0761    -6.7581 H       
  92 H92            2.2504    -4.5963    -6.2361 H       
  93 H93            1.6173    -4.0364    -8.5672 H       
  94 H94            0.1988    -3.9960    -7.4927 H       
  95 H95            0.9633    -2.4758    -8.0147 H       
@<TRIPOS>BOND
   1    1    2 1
   2    1    6 1
   3    1   44 1
   4    2    3 1
   5    2   53 1
   6    2   54 1
   7    3    4 1
   8    3   55 1
   9    3   56 1
  10    4    5 1
  11    4   48 1
  12    5    6 1
  13    5   57 1
  14    5   58 1
  15    6   59 1
  16    6   60 1
  17    7    8 am
  18    7   15 1
  19    7   27 am
  20    8    9 1
  21    8   16 2
  22    9   10 1
  23    9   18 1
  24    9   42 1
  25   10   11 ar
  26   10   15 ar
  27   11   12 ar
  28   11   61 1
  29   12   13 ar
  30   12   40 1
  31   13   14 ar
  32   13   17 1
  33   14   15 ar
  34   14   62 1
  35   18   19 ar
  36   18   23 ar
  37   19   20 ar
  38   19   24 1
  39   20   21 ar
  40   20   63 1
  41   21   22 ar
  42   21   64 1
  43   22   23 ar
  44   22   65 1
  45   23   66 1
  46   24   25 1
  47   25   26 1
  48   25   67 1
  49   25   68 1
  50   26   69 1
  51   26   70 1
  52   26   71 1
  53   27   28 2
  54   27   29 2
  55   27   30 1
  56   30   31 ar
  57   30   35 ar
  58   31   32 ar
  59   31   38 1
  60   32   33 ar
  61   32   72 1
  62   33   34 ar
  63   33   36 1
  64   34   35 ar
  65   34   73 1
  66   35   74 1
  67   36   37 1
  68   37   75 1
  69   37   76 1
  70   37   77 1
  71   38   39 1
  72   39   78 1
  73   39   79 1
  74   39   80 1
  75   40   41 3
  76   42   43 2
  77   42   44 am
  78   44   81 1
  79   45   46 1
  80   45   50 1
  81   45   51 1
  82   46   47 1
  83   46   82 1
  84   46   83 1
  85   47   48 1
  86   47   84 1
  87   47   85 1
  88   48   49 1
  89   48   86 1
  90   49   50 1
  91   49   87 1
  92   49   88 1
  93   50   89 1
  94   50   90 1
  95   51   52 1
  96   51   91 1
  97   51   92 1
  98   52   93 1
  99   52   94 1
 100   52   95 1

#	End of record

