#	Name: ASD01810179
#	Creating user name:	WinNT
#	Creation time:	15. 06. 2019 19:24

#	Modifying user name:	WinNT
#	Modification time:	15. 06. 2019 19:24

#	Program:	/corina/corina34_cracker 3.40 0067  02.08.2006

@<TRIPOS>MOLECULE
ASD01810179
  37   39    0    0    0
SMALL
NO_CHARGES


@<TRIPOS>ATOM
   1 C1             0.0532     1.3574     0.2755 C.ar    
   2 C2             0.0826    -0.0285     0.2664 C.ar    
   3 C3             1.2774    -0.7078     0.1597 C.ar    
   4 C4             2.4732    -0.0030     0.0594 C.ar    
   5 C5             2.4438     1.4024     0.0681 C.ar    
   6 C6             1.2264     2.0789     0.1769 C.ar    
   7 N7             3.6735    -0.6722    -0.0468 N.pl3   
   8 C8             4.8503    -0.0404    -0.1449 C.2     
   9 C9             4.9479     1.3362    -0.1468 C.2     
  10 C10            3.7170     2.1366    -0.0387 C.2     
  11 O11            3.7497     3.3548    -0.0362 O.2     
  12 C12            6.2585     1.9922    -0.2558 C.2     
  13 O13            6.3408     3.3377    -0.2565 O.3     
  14 O14            7.2684     1.3214    -0.3453 O.2     
  15 C15            3.6615    -2.1372    -0.0522 C.3     
  16 C16            3.4737    -2.6328    -1.4629 C.ar    
  17 C17            3.2838    -1.7308    -2.4928 C.ar    
  18 C18            3.1114    -2.1855    -3.7870 C.ar    
  19 C19            3.1294    -3.5420    -4.0511 C.ar    
  20 C20            3.3203    -4.4443    -3.0210 C.ar    
  21 C21            3.4969    -3.9895    -1.7278 C.ar    
  22 F22            1.1971     3.4296     0.1854 F       
  23 C23            3.7050    -4.9730    -0.6051 C.3     
  24 F24            3.6105    -6.2767    -1.1036 F       
  25 F25            4.9718    -4.7790    -0.0440 F       
  26 F26            2.7259    -4.7763     0.3746 F       
  27 H27           -0.8914     1.8748     0.3557 H       
  28 H28           -0.8412    -0.5825     0.3442 H       
  29 H29            1.2855    -1.7878     0.1542 H       
  30 H30            5.7531    -0.6278    -0.2248 H       
  31 H31            7.2245     3.7235    -0.3303 H       
  32 H32            4.6074    -2.5097     0.3408 H       
  33 H33            2.8425    -2.4961     0.5711 H       
  34 H34            3.2697    -0.6708    -2.2865 H       
  35 H35            2.9623    -1.4807    -4.5916 H       
  36 H36            2.9940    -3.8973    -5.0619 H       
  37 H37            3.3340    -5.5043    -3.2273 H       
@<TRIPOS>BOND
   1    1    2 ar
   2    1    6 ar
   3    1   27 1
   4    2    3 ar
   5    2   28 1
   6    3    4 ar
   7    3   29 1
   8    4    5 ar
   9    4    7 1
  10    5    6 ar
  11    5   10 1
  12    6   22 1
  13    7    8 1
  14    7   15 1
  15    8    9 2
  16    8   30 1
  17    9   10 1
  18    9   12 1
  19   10   11 2
  20   12   13 1
  21   12   14 2
  22   13   31 1
  23   15   16 1
  24   15   32 1
  25   15   33 1
  26   16   17 ar
  27   16   21 ar
  28   17   18 ar
  29   17   34 1
  30   18   19 ar
  31   18   35 1
  32   19   20 ar
  33   19   36 1
  34   20   21 ar
  35   20   37 1
  36   21   23 1
  37   23   24 1
  38   23   25 1
  39   23   26 1

#	End of record

