#	Name: ASD00069080
#	Creating user name:	WinNT
#	Creation time:	15. 06. 2019 18:29

#	Modifying user name:	WinNT
#	Modification time:	15. 06. 2019 18:29

#	Program:	/corina/corina34_cracker 3.40 0067  02.08.2006

@<TRIPOS>MOLECULE
ASD00069080
  58   63    0    0    0
SMALL
NO_CHARGES


@<TRIPOS>ATOM
   1 C1            -0.0169     1.3952     0.0097 C.ar    
   2 C2             0.0021    -0.0041     0.0020 C.ar    
   3 C3             1.2106    -0.6848    -0.0131 C.ar    
   4 C4             2.4040     0.0366    -0.0206 C.ar    
   5 C5             2.3727     1.4435    -0.0128 C.ar    
   6 C6             1.1467     2.1065     0.0024 C.ar    
   7 C7             3.8222    -0.3442    -0.0362 C.2     
   8 N8             4.5280     0.7631    -0.0370 N.2     
   9 N9             3.6761     1.8718    -0.0229 N.pl3   
  10 C10            4.3567    -1.7201    -0.0487 C.2     
  11 N11            3.6299    -2.8121    -0.0481 N.2     
  12 N12            5.6861    -2.0490    -0.0686 N.pl3   
  13 C13           -1.2738    -0.7615     0.0106 C.ar    
  14 C14            4.1077     3.2717    -0.0199 C.3     
  15 O15            5.1674     3.4417     0.9236 O.3     
  16 C16            5.6482     4.7835     1.0256 C.3     
  17 C17            6.2057     5.2287    -0.3289 C.3     
  18 C18            5.1086     5.1019    -1.3904 C.3     
  19 C19            4.6033     3.6561    -1.4165 C.3     
  20 C20            4.4402    -3.8984    -0.0623 C.ar    
  21 C21            5.7655    -3.4284    -0.0755 C.ar    
  22 C22            4.1996    -5.2763    -0.0680 C.ar    
  23 C23            5.2490    -6.1505    -0.0833 C.ar    
  24 C24            6.5569    -5.6866    -0.0932 C.ar    
  25 C25            6.8184    -4.3324    -0.0912 C.ar    
  26 C26           -2.4901    -0.0821     0.0263 C.ar    
  27 C27           -3.6741    -0.7918     0.0343 C.ar    
  28 C28           -3.6544    -2.1747     0.0272 C.ar    
  29 C29           -2.4495    -2.8544     0.0116 C.ar    
  30 C30           -1.2600    -2.1550    -0.0028 C.ar    
  31 S31           -5.2132     0.0656     0.0541 S.o2    
  32 C32           -5.6260     0.2953    -1.6973 C.3     
  33 O33           -6.1153    -0.8476     0.6635 O.2     
  34 O34           -4.9113     1.3136     0.6630 O.2     
  35 H35           -0.9624     1.9171     0.0170 H       
  36 H36            1.2272    -1.7647    -0.0188 H       
  37 H37            1.1182     3.1861     0.0085 H       
  38 H38            6.4324    -1.4294    -0.0767 H       
  39 H39            3.2687     3.9102     0.2567 H       
  40 H40            4.8294     5.4420     1.3158 H       
  41 H41            6.4368     4.8310     1.7766 H       
  42 H42            6.5325     6.2666    -0.2650 H       
  43 H43            7.0505     4.5959    -0.6009 H       
  44 H44            4.2846     5.7718    -1.1449 H       
  45 H45            5.5146     5.3640    -2.3675 H       
  46 H46            5.4158     2.9916    -1.7104 H       
  47 H47            3.7842     3.5694    -2.1304 H       
  48 H48            3.1857    -5.6484    -0.0601 H       
  49 H49            5.0590    -7.2137    -0.0873 H       
  50 H50            7.3756    -6.3908    -0.1052 H       
  51 H51            7.8382    -3.9771    -0.0994 H       
  52 H52           -2.5066     0.9977     0.0326 H       
  53 H53           -4.5831    -2.7260     0.0341 H       
  54 H54           -2.4399    -3.9343     0.0064 H       
  55 H55           -0.3200    -2.6866    -0.0153 H       
  56 H56           -5.7085    -0.6776    -2.1818 H       
  57 H57           -6.5755     0.8242    -1.7805 H       
  58 H58           -4.8422     0.8773    -2.1821 H       
@<TRIPOS>BOND
   1    1    2 ar
   2    1    6 ar
   3    1   35 1
   4    2    3 ar
   5    2   13 1
   6    3    4 ar
   7    3   36 1
   8    4    5 ar
   9    4    7 1
  10    5    6 ar
  11    5    9 1
  12    6   37 1
  13    7    8 2
  14    7   10 1
  15    8    9 1
  16    9   14 1
  17   10   11 2
  18   10   12 1
  19   11   20 1
  20   12   21 1
  21   12   38 1
  22   13   26 ar
  23   13   30 ar
  24   14   15 1
  25   14   19 1
  26   14   39 1
  27   15   16 1
  28   16   17 1
  29   16   40 1
  30   16   41 1
  31   17   18 1
  32   17   42 1
  33   17   43 1
  34   18   19 1
  35   18   44 1
  36   18   45 1
  37   19   46 1
  38   19   47 1
  39   20   21 ar
  40   20   22 ar
  41   21   25 ar
  42   22   23 ar
  43   22   48 1
  44   23   24 ar
  45   23   49 1
  46   24   25 ar
  47   24   50 1
  48   25   51 1
  49   26   27 ar
  50   26   52 1
  51   27   28 ar
  52   27   31 1
  53   28   29 ar
  54   28   53 1
  55   29   30 ar
  56   29   54 1
  57   30   55 1
  58   31   32 1
  59   31   33 2
  60   31   34 2
  61   32   56 1
  62   32   57 1
  63   32   58 1

#	End of record

