#	Name: ASD03240324
#	Creating user name:	WinNT
#	Creation time:	15. 06. 2019 20:34

#	Modifying user name:	WinNT
#	Modification time:	15. 06. 2019 20:34

#	Program:	/corina/corina34_cracker 3.40 0067  02.08.2006

@<TRIPOS>MOLECULE
ASD03240324
  99  105    0    0    0
SMALL
NO_CHARGES


@<TRIPOS>ATOM
   1 C1             0.4011     2.6209     1.9831 C.2     
   2 N2             0.6361     1.8748     3.1137 N.pl3   
   3 O3            -3.2564     4.1508     1.4830 O.2     
   4 C4            -2.5201     4.4437     0.5649 C.2     
   5 C5            -1.0918     3.9632     0.5618 C.3     
   6 N6            -0.8414     3.1682     1.7665 N.pl3   
   7 N7             1.3578     2.8140     1.1192 N.2     
   8 N8            -2.9793     5.1988    -0.4526 N.am    
   9 C9            -4.3257     5.5490    -0.5073 C.ar    
  10 C10           -4.7056     6.7952    -1.0272 C.ar    
  11 C11           -6.0502     7.1404    -1.0803 C.ar    
  12 C12           -7.0146     6.2453    -0.6161 C.ar    
  13 C13           -6.6261     5.0053    -0.0995 C.ar    
  14 C14           -5.2932     4.6615    -0.0521 C.ar    
  15 C15           -8.4445     6.6073    -0.6698 C.2     
  16 N16           -9.3759     5.7426    -0.2214 N.am    
  17 O17           -8.7821     7.6859    -1.1187 O.2     
  18 C18          -10.7200     6.1317    -0.1578 C.ar    
  19 C19          -11.7240     5.1750    -0.2310 C.ar    
  20 C20          -11.0484     7.4735    -0.0160 C.ar    
  21 C21          -12.3732     7.8571     0.0466 C.ar    
  22 C22          -13.3775     6.9010    -0.0322 C.ar    
  23 C23          -13.0488     5.5584    -0.1684 C.ar    
  24 N24          -14.7199     7.2896     0.0316 N.pl3   
  25 C25          -15.7791     6.2810    -0.0515 C.3     
  26 C26          -15.0664     8.7051     0.1816 C.3     
  27 C27           -3.6757     7.7409    -1.5179 C.ar    
  28 C28           -3.8092     8.3246    -2.7784 C.ar    
  29 C29           -2.8533     9.2030    -3.2353 C.ar    
  30 C30           -1.7485     9.5105    -2.4361 C.ar    
  31 C31           -1.6160     8.9252    -1.1737 C.ar    
  32 C32           -2.5761     8.0514    -0.7167 C.ar    
  33 C33          -15.2109     9.3339    -1.1802 C.ar    
  34 C34          -16.1167     5.7916     1.3333 C.ar    
  35 C35          -16.4421     9.3371    -1.8106 C.ar    
  36 C36          -16.5801     9.9116    -3.0579 C.ar    
  37 C37          -15.4764    10.4892    -3.6821 C.ar    
  38 C38          -14.2385    10.4832    -3.0425 C.ar    
  39 C39          -14.1131     9.9109    -1.7928 C.ar    
  40 C40          -17.0992     6.4293     2.0690 C.ar    
  41 C41          -17.4124     5.9853     3.3378 C.ar    
  42 C42          -16.7367     4.8927     3.8773 C.ar    
  43 C43          -15.7478     4.2541     3.1317 C.ar    
  44 C44          -15.4467     4.7030     1.8617 C.ar    
  45 C45          -15.6186    11.1080    -5.0233 C.ar    
  46 C46          -17.0687     4.4111     5.2410 C.ar    
  47 C47          -14.5148    11.6856    -5.6474 C.ar    
  48 C48          -14.6527    12.2597    -6.8949 C.ar    
  49 C49          -15.8840    12.2629    -7.5253 C.ar    
  50 C50          -16.9831    11.6914    -6.9101 C.ar    
  51 C51          -16.8551    11.1085    -5.6655 C.ar    
  52 C52          -16.3930     3.3185     5.7805 C.ar    
  53 C53          -16.7059     2.8748     7.0494 C.ar    
  54 C54          -17.6885     3.5124     7.7851 C.ar    
  55 C55          -18.3627     4.5973     7.2543 C.ar    
  56 C56          -18.0533     5.0535     5.9890 C.ar    
  57 C57           -0.7530    10.4241    -2.9105 C.1     
  58 N58            0.0368    11.1488    -3.2868 N.1     
  59 H59            1.5139     1.4921     3.2684 H       
  60 H60           -0.0759     1.7312     3.7566 H       
  61 H61           -0.9169     3.3492    -0.3216 H       
  62 H62           -0.4198     4.8213     0.5466 H       
  63 H63           -1.5522     3.0279     2.4115 H       
  64 H64            1.1920     3.3404     0.3215 H       
  65 H65           -2.3717     5.4984    -1.1469 H       
  66 H66           -6.3481     8.0987    -1.4793 H       
  67 H67           -7.3736     4.3134     0.2594 H       
  68 H68           -4.9985     3.7026     0.3479 H       
  69 H69           -9.1154     4.8507     0.0574 H       
  70 H70          -11.4684     4.1311    -0.3371 H       
  71 H71          -10.2675     8.2170     0.0456 H       
  72 H72          -12.6286     8.9007     0.1572 H       
  73 H73          -13.8296     4.8148    -0.2300 H       
  74 H74          -16.6657     6.7219    -0.5072 H       
  75 H75          -15.4366     5.4435    -0.6593 H       
  76 H76          -16.0076     8.7932     0.7243 H       
  77 H77          -14.2784     9.2153     0.7357 H       
  78 H78           -4.6627     8.0865    -3.3958 H       
  79 H79           -2.9566     9.6544    -4.2110 H       
  80 H80           -0.7628     9.1620    -0.5553 H       
  81 H81           -2.4741     7.5993     0.2588 H       
  82 H82          -17.2969     8.8888    -1.3261 H       
  83 H83          -17.5418     9.9132    -3.5494 H       
  84 H84          -13.3797    10.9295    -3.5217 H       
  85 H85          -13.1541     9.9056    -1.2961 H       
  86 H86          -17.6221     7.2763     1.6500 H       
  87 H87          -18.1795     6.4841     3.9115 H       
  88 H88          -15.2210     3.4068     3.5451 H       
  89 H89          -14.6804     4.2088     1.2830 H       
  90 H90          -13.5532    11.6842    -5.1558 H       
  91 H91          -13.7979    12.7077    -7.3796 H       
  92 H92          -15.9875    12.7136    -8.5013 H       
  93 H93          -17.9422    11.6970    -7.4066 H       
  94 H94          -17.7139    10.6623    -5.1862 H       
  95 H95          -15.6261     2.8195     5.2067 H       
  96 H96          -16.1828     2.0280     7.4686 H       
  97 H97          -17.9304     3.1617     8.7776 H       
  98 H98          -19.1292     5.0912     7.8329 H       
  99 H99          -18.5801     5.9009     5.5756 H       
@<TRIPOS>BOND
   1    1    2 1
   2    1    7 2
   3    1    6 1
   4    2   59 1
   5    2   60 1
   6    3    4 2
   7    4    5 1
   8    4    8 am
   9    5    6 1
  10    5   61 1
  11    5   62 1
  12    6   63 1
  13    7   64 1
  14    8    9 1
  15    8   65 1
  16    9   10 ar
  17    9   14 ar
  18   10   11 ar
  19   10   27 1
  20   11   12 ar
  21   11   66 1
  22   12   13 ar
  23   12   15 1
  24   13   14 ar
  25   13   67 1
  26   14   68 1
  27   15   16 am
  28   15   17 2
  29   16   18 1
  30   16   69 1
  31   18   19 ar
  32   18   20 ar
  33   19   23 ar
  34   19   70 1
  35   20   21 ar
  36   20   71 1
  37   21   22 ar
  38   21   72 1
  39   22   23 ar
  40   22   24 1
  41   23   73 1
  42   24   25 1
  43   24   26 1
  44   25   34 1
  45   25   74 1
  46   25   75 1
  47   26   33 1
  48   26   76 1
  49   26   77 1
  50   27   28 ar
  51   27   32 ar
  52   28   29 ar
  53   28   78 1
  54   29   30 ar
  55   29   79 1
  56   30   31 ar
  57   30   57 1
  58   31   32 ar
  59   31   80 1
  60   32   81 1
  61   33   35 ar
  62   33   39 ar
  63   34   40 ar
  64   34   44 ar
  65   35   36 ar
  66   35   82 1
  67   36   37 ar
  68   36   83 1
  69   37   38 ar
  70   37   45 1
  71   38   39 ar
  72   38   84 1
  73   39   85 1
  74   40   41 ar
  75   40   86 1
  76   41   42 ar
  77   41   87 1
  78   42   43 ar
  79   42   46 1
  80   43   44 ar
  81   43   88 1
  82   44   89 1
  83   45   47 ar
  84   45   51 ar
  85   46   52 ar
  86   46   56 ar
  87   47   48 ar
  88   47   90 1
  89   48   49 ar
  90   48   91 1
  91   49   50 ar
  92   49   92 1
  93   50   51 ar
  94   50   93 1
  95   51   94 1
  96   52   53 ar
  97   52   95 1
  98   53   54 ar
  99   53   96 1
 100   54   55 ar
 101   54   97 1
 102   55   56 ar
 103   55   98 1
 104   56   99 1
 105   57   58 3

#	End of record

