#	Name: ASD03091776
#	Creating user name:	WinNT
#	Creation time:	15. 06. 2019 20:31

#	Modifying user name:	WinNT
#	Modification time:	15. 06. 2019 20:31

#	Program:	/corina/corina34_cracker 3.40 0067  02.08.2006

@<TRIPOS>MOLECULE
ASD03091776
  42   45    0    0    0
SMALL
NO_CHARGES


@<TRIPOS>ATOM
   1 C1             0.0280     1.6724    -0.0397 C.3     
   2 C2             0.0001     0.1437    -0.0997 C.3     
   3 N3             0.6624    -0.4064     1.0899 N.3     
   4 C4            -0.0379    -0.0091     2.3180 C.3     
   5 C5            -0.0118     1.5149     2.4520 C.3     
   6 C6             1.4425     1.9927     2.5218 C.3     
   7 N7             2.1024     1.6848     1.2457 N.am    
   8 C8             1.4830     2.1518    -0.0021 C.3     
   9 C9             3.2546     0.9861     1.2201 C.2     
  10 O10            3.8178     0.7031     2.2611 O.2     
  11 C11            3.8299     0.5668    -0.0627 C.2     
  12 O12            3.2443     0.6967    -1.2709 O.3     
  13 C13           -0.6883     2.1428     1.2298 C.3     
  14 C14            5.0500    -0.0154    -0.2379 C.2     
  15 C15            5.1920    -0.2480    -1.6245 C.2     
  16 C16            4.0536     0.2080    -2.2184 C.2     
  17 C17            6.3585    -0.8664    -2.3038 C.ar    
  18 C18            6.3545    -1.0315    -3.6867 C.ar    
  19 C19            7.4621    -1.2778    -1.5604 C.ar    
  20 C20            8.5465    -1.8528    -2.1970 C.ar    
  21 C21            8.5365    -2.0195    -3.5719 C.ar    
  22 C22            7.4431    -1.6074    -4.3154 C.ar    
  23 F23            9.6176    -2.2522    -1.4769 F       
  24 F24            7.4383    -1.7723    -5.6563 F       
  25 H25           -0.4688     2.0816    -0.9194 H       
  26 H26           -1.0339    -0.1997    -0.1312 H       
  27 H27            0.5223    -0.1941    -0.9949 H       
  28 H28            0.7419    -1.4103     1.0277 H       
  29 H29           -1.0716    -0.3520     2.2736 H       
  30 H30            0.4566    -0.4579     3.1794 H       
  31 H31           -0.5374     1.8107     3.3599 H       
  32 H32            1.4658     3.0686     2.6950 H       
  33 H33            1.9577     1.4785     3.3331 H       
  34 H34            2.0249     1.7423    -0.8547 H       
  35 H35            1.5100     3.2409    -0.0382 H       
  36 H36           -0.6302     3.2291     1.2994 H       
  37 H37           -1.7333     1.8349     1.1936 H       
  38 H38            5.7683    -0.2527     0.5330 H       
  39 H39            3.8399     0.1796    -3.2767 H       
  40 H40            5.5023    -0.7105    -4.2672 H       
  41 H41            7.4710    -1.1475    -0.4883 H       
  42 H42            9.3854    -2.4683    -4.0661 H       
@<TRIPOS>BOND
   1    1    2 1
   2    1    8 1
   3    1   13 1
   4    1   25 1
   5    2    3 1
   6    2   26 1
   7    2   27 1
   8    3    4 1
   9    3   28 1
  10    4    5 1
  11    4   29 1
  12    4   30 1
  13    5    6 1
  14    5   13 1
  15    5   31 1
  16    6    7 1
  17    6   32 1
  18    6   33 1
  19    7    8 1
  20    7    9 am
  21    8   34 1
  22    8   35 1
  23    9   10 2
  24    9   11 1
  25   11   12 1
  26   11   14 2
  27   12   16 1
  28   13   36 1
  29   13   37 1
  30   14   15 1
  31   14   38 1
  32   15   16 2
  33   15   17 1
  34   16   39 1
  35   17   18 ar
  36   17   19 ar
  37   18   22 ar
  38   18   40 1
  39   19   20 ar
  40   19   41 1
  41   20   21 ar
  42   20   23 1
  43   21   22 ar
  44   21   42 1
  45   22   24 1

#	End of record

