#	Name: ASD01913042
#	Creating user name:	WinNT
#	Creation time:	15. 06. 2019 20:00

#	Modifying user name:	WinNT
#	Modification time:	15. 06. 2019 20:00

#	Program:	/corina/corina34_cracker 3.40 0067  02.08.2006

@<TRIPOS>MOLECULE
ASD01913042
  26   26    0    0    0
SMALL
NO_CHARGES


@<TRIPOS>ATOM
   1 C1            -0.0169     1.3952     0.0097 C.ar    
   2 C2             0.0021    -0.0041     0.0020 C.ar    
   3 C3            -1.2591    -0.7596     0.0095 C.2     
   4 C4            -1.2348    -2.2664     0.0012 C.3     
   5 O5            -2.3189    -0.1702     0.0224 O.2     
   6 C6            -2.6473    -2.7915     0.0113 C.2     
   7 C7            -2.8988    -4.2774     0.0056 C.3     
   8 O8            -3.5777    -2.0217     0.0240 O.2     
   9 O9            -4.3066    -4.5222     0.0172 O.3     
  10 C10            1.2268    -0.6810    -0.0133 C.ar    
  11 C11            2.4048     0.0329    -0.0207 C.ar    
  12 C12            2.3789     1.4198    -0.0130 C.ar    
  13 C13            1.1683     2.0970     0.0022 C.ar    
  14 F14            3.5378     2.1141    -0.0204 F       
  15 C15           -4.6556    -5.9080     0.0130 C.3     
  16 H16           -0.9588     1.9236     0.0170 H       
  17 H17           -0.7234    -2.6166    -0.8954 H       
  18 H18           -0.7071    -2.6261     0.8845 H       
  19 H19           -2.4610    -4.7166    -0.8908 H       
  20 H20           -2.4447    -4.7261     0.8891 H       
  21 H21            1.2482    -1.7608    -0.0190 H       
  22 H22            3.3506    -0.4883    -0.0322 H       
  23 H23            1.1551     3.1769     0.0084 H       
  24 H24           -4.2543    -6.3810    -0.8833 H       
  25 H25           -4.2380    -6.3906     0.8966 H       
  26 H26           -5.7409    -6.0094     0.0224 H       
@<TRIPOS>BOND
   1    1    2 ar
   2    1   13 ar
   3    1   16 1
   4    2    3 1
   5    2   10 ar
   6    3    4 1
   7    3    5 2
   8    4    6 1
   9    4   17 1
  10    4   18 1
  11    6    7 1
  12    6    8 2
  13    7    9 1
  14    7   19 1
  15    7   20 1
  16    9   15 1
  17   10   11 ar
  18   10   21 1
  19   11   12 ar
  20   11   22 1
  21   12   13 ar
  22   12   14 1
  23   13   23 1
  24   15   24 1
  25   15   25 1
  26   15   26 1

#	End of record

