#	Name: ASD08830139
#	Creating user name:	WinNT
#	Creation time:	15. 06. 2019 21:19

#	Modifying user name:	WinNT
#	Modification time:	15. 06. 2019 21:19

#	Program:	/corina/corina34_cracker 3.40 0067  02.08.2006

@<TRIPOS>MOLECULE
ASD08830139
  43   45    0    0    0
SMALL
NO_CHARGES


@<TRIPOS>ATOM
   1 C1            -0.0179     1.4657     0.0101 C.ar    
   2 C2             0.0021    -0.0041     0.0020 C.2     
   3 C3            -1.2926    -0.7753     0.0102 C.3     
   4 C4            -0.9927    -2.2755    -0.0007 C.3     
   5 N5            -2.2547    -3.0273     0.0073 N.3     
   6 O6             1.0605    -0.5961    -0.0113 O.2     
   7 C7             1.1843     2.1832     0.0025 C.ar    
   8 C8            -0.0554     4.2342     0.0259 C.ar    
   9 C9            -1.2552     3.5211     0.0272 C.ar    
  10 C10           -2.0181    -4.4568    -0.2410 C.3     
  11 C11           -3.3490    -5.2097    -0.1649 C.3     
  12 O12           -4.2665    -4.6418    -1.1035 O.3     
  13 C13           -4.5205    -3.2506    -0.8906 C.3     
  14 C14           -3.2015    -2.4779    -0.9741 C.3     
  15 C15            1.1632     3.5540     0.0101 C.ar    
  16 C16           -1.2391     2.1503     0.0196 C.ar    
  17 C17           -0.0755     5.7164     0.0336 C.ar    
  18 C18            1.1208     6.4326     0.0323 C.ar    
  19 C19            1.0958     7.8123     0.0391 C.ar    
  20 C20           -0.1131     8.4849     0.0471 C.ar    
  21 C21           -1.3032     7.7797     0.0484 C.ar    
  22 C22           -1.2908     6.3998     0.0363 C.ar    
  23 H23           -1.8592    -0.5245     0.9070 H       
  24 H24           -1.8762    -0.5150    -0.8728 H       
  25 H25           -0.4261    -2.5263    -0.8975 H       
  26 H26           -0.4091    -2.5358     0.8824 H       
  27 H27            2.1275     1.6573    -0.0090 H       
  28 H28           -2.1969     4.0496     0.0395 H       
  29 H29           -1.5824    -4.5869    -1.2316 H       
  30 H30           -1.3346    -4.8488     0.5123 H       
  31 H31           -3.1869    -6.2606    -0.4046 H       
  32 H32           -3.7584    -5.1242     0.8417 H       
  33 H33           -5.2057    -2.8846    -1.6552 H       
  34 H34           -4.9640    -3.1082     0.0948 H       
  35 H35           -3.3819    -1.4252    -0.7560 H       
  36 H36           -2.7847    -2.5763    -1.9764 H       
  37 H37            2.0903     4.1079     0.0042 H       
  38 H38           -2.1677     1.5989     0.0203 H       
  39 H39            2.0651     5.9085     0.0265 H       
  40 H40            2.0218     8.3681     0.0384 H       
  41 H41           -0.1277     9.5648     0.0527 H       
  42 H42           -2.2440     8.3101     0.0546 H       
  43 H43           -2.2205     5.8503     0.0373 H       
@<TRIPOS>BOND
   1    1    2 1
   2    1    7 ar
   3    1   16 ar
   4    2    3 1
   5    2    6 2
   6    3    4 1
   7    3   23 1
   8    3   24 1
   9    4    5 1
  10    4   25 1
  11    4   26 1
  12    5   10 1
  13    5   14 1
  14    7   15 ar
  15    7   27 1
  16    8    9 ar
  17    8   15 ar
  18    8   17 1
  19    9   16 ar
  20    9   28 1
  21   10   11 1
  22   10   29 1
  23   10   30 1
  24   11   12 1
  25   11   31 1
  26   11   32 1
  27   12   13 1
  28   13   14 1
  29   13   33 1
  30   13   34 1
  31   14   35 1
  32   14   36 1
  33   15   37 1
  34   16   38 1
  35   17   18 ar
  36   17   22 ar
  37   18   19 ar
  38   18   39 1
  39   19   20 ar
  40   19   40 1
  41   20   21 ar
  42   20   41 1
  43   21   22 ar
  44   21   42 1
  45   22   43 1

#	End of record

