#	Name: ASD01811831
#	Creating user name:	WinNT
#	Creation time:	15. 06. 2019 19:27

#	Modifying user name:	WinNT
#	Modification time:	15. 06. 2019 19:27

#	Program:	/corina/corina34_cracker 3.40 0067  02.08.2006

@<TRIPOS>MOLECULE
ASD01811831
  53   57    0    0    0
SMALL
NO_CHARGES


@<TRIPOS>ATOM
   1 C1            -0.0167     1.3805     0.0096 C.ar    
   2 C2             0.0021    -0.0041     0.0020 C.ar    
   3 C3            -1.1845    -0.7162     0.0090 C.ar    
   4 C4            -2.3942    -0.0536     0.0236 C.ar    
   5 C5            -2.4214     1.3424     0.0318 C.ar    
   6 C6            -1.2177     2.0512     0.0304 C.ar    
   7 C7             1.2777     2.1522     0.0014 C.3     
   8 C8             1.3184    -0.7375    -0.0144 C.3     
   9 C9            -1.1548    -2.2229     0.0001 C.3     
  10 C10           -1.0079    -2.7307     1.4114 C.ar    
  11 C11           -2.1332    -2.9874     2.1729 C.ar    
  12 C12           -2.0018    -3.4525     3.4668 C.ar    
  13 C13           -0.7382    -3.6627     4.0024 C.ar    
  14 C14            0.3897    -3.4045     3.2352 C.ar    
  15 C15            0.2518    -2.9444     1.9402 C.ar    
  16 N16           -0.6016    -4.1342     5.3155 N.pl3   
  17 C17            0.5639    -4.3803     5.9555 C.2     
  18 C18            0.2654    -4.8208     7.1997 C.2     
  19 C19           -1.1279    -4.8451     7.3253 C.2     
  20 N20           -1.6482    -4.4282     6.1990 N.2     
  21 C21           -3.5308     2.3146     0.0468 C.2     
  22 N22           -3.0505     3.5701     0.0494 N.am    
  23 C23           -1.5842     3.5142     0.0401 C.3     
  24 O24           -4.7107     2.0222     0.0556 O.2     
  25 C25           -3.8217     4.7380     0.0618 C.ar    
  26 C26           -4.2161     5.3256    -1.1354 C.ar    
  27 C27           -4.9782     6.4797    -1.1184 C.ar    
  28 C28           -5.3468     7.0483     0.0868 C.ar    
  29 C29           -4.9553     6.4659     1.2784 C.ar    
  30 C30           -4.1997     5.3095     1.2692 C.ar    
  31 F31           -3.8552     4.7703    -2.3129 F       
  32 H32           -3.3180    -0.6132     0.0283 H       
  33 H33            1.5800     2.3437    -1.0282 H       
  34 H34            1.1390     3.0999     0.5217 H       
  35 H35            2.0504     1.5710     0.5048 H       
  36 H36            1.6456    -0.9199     1.0092 H       
  37 H37            1.1977    -1.6891    -0.5323 H       
  38 H38            2.0641    -0.1342    -0.5322 H       
  39 H39           -2.0829    -2.6020    -0.4277 H       
  40 H40           -0.3115    -2.5661    -0.5992 H       
  41 H41           -3.1158    -2.8237     1.7557 H       
  42 H42           -2.8810    -3.6521     4.0614 H       
  43 H43            1.3739    -3.5667     3.6493 H       
  44 H44            1.1288    -2.7434     1.3428 H       
  45 H45            1.5550    -4.2493     5.5469 H       
  46 H46            0.9770    -5.1036     7.9613 H       
  47 H47           -1.6792    -5.1509     8.2022 H       
  48 H48           -1.1853     3.9949     0.9333 H       
  49 H49           -1.1964     4.0028    -0.8538 H       
  50 H50           -5.2853     6.9372    -2.0473 H       
  51 H51           -5.9415     7.9497     0.0976 H       
  52 H52           -5.2445     6.9134     2.2178 H       
  53 H53           -3.8950     4.8557     2.2007 H       
@<TRIPOS>BOND
   1    1    2 ar
   2    1    7 1
   3    1    6 ar
   4    2    3 ar
   5    2    8 1
   6    3    4 ar
   7    3    9 1
   8    4    5 ar
   9    4   32 1
  10    5    6 ar
  11    5   21 1
  12    6   23 1
  13    7   33 1
  14    7   34 1
  15    7   35 1
  16    8   36 1
  17    8   37 1
  18    8   38 1
  19    9   10 1
  20    9   39 1
  21    9   40 1
  22   10   11 ar
  23   10   15 ar
  24   11   12 ar
  25   11   41 1
  26   12   13 ar
  27   12   42 1
  28   13   14 ar
  29   13   16 1
  30   14   15 ar
  31   14   43 1
  32   15   44 1
  33   16   17 1
  34   16   20 1
  35   17   18 2
  36   17   45 1
  37   18   19 1
  38   18   46 1
  39   19   20 2
  40   19   47 1
  41   21   22 am
  42   21   24 2
  43   22   23 1
  44   22   25 1
  45   23   48 1
  46   23   49 1
  47   25   26 ar
  48   25   30 ar
  49   26   27 ar
  50   26   31 1
  51   27   28 ar
  52   27   50 1
  53   28   29 ar
  54   28   51 1
  55   29   30 ar
  56   29   52 1
  57   30   53 1

#	End of record

