#	Name: ASD01814664
#	Creating user name:	WinNT
#	Creation time:	15. 06. 2019 19:32

#	Modifying user name:	WinNT
#	Modification time:	15. 06. 2019 19:32

#	Program:	/corina/corina34_cracker 3.40 0067  02.08.2006

@<TRIPOS>MOLECULE
ASD01814664
  53   57    0    0    0
SMALL
NO_CHARGES


@<TRIPOS>ATOM
   1 C1            -0.0169     1.3972     0.0097 C.2     
   2 C2             0.0021    -0.0041     0.0020 C.2     
   3 C3             1.1986    -0.6593    -0.0129 C.2     
   4 C4             2.3918     0.0821    -0.0204 C.2     
   5 N5             2.3437     1.4497    -0.0122 N.am    
   6 C6             1.1421     2.0937     0.0024 C.2     
   7 C7             3.6227    -0.5889    -0.0356 C.2     
   8 C8             4.7877     0.1218    -0.0425 C.2     
   9 C9             4.7345     1.5280    -0.0346 C.2     
  10 C10            3.4812     2.1736    -0.0189 C.2     
  11 O11            3.4258     3.3917    -0.0123 O.2     
  12 C12            5.9703     2.3140    -0.0413 C.2     
  13 O13            5.9124     3.6618    -0.0337 O.3     
  14 O14            7.0487     1.7516    -0.0537 O.2     
  15 C15            3.6593    -2.0954    -0.0439 C.3     
  16 N16            3.7787    -2.5747    -1.4274 N.3     
  17 C17            5.0699    -2.1912    -2.0067 C.3     
  18 C18            5.2213    -2.7711    -3.3890 C.ar    
  19 C19            4.4319    -3.8126    -3.8309 C.ar    
  20 C20            3.3675    -4.4247    -2.9564 C.3     
  21 C21            3.6026    -4.0341    -1.4970 C.3     
  22 C22            6.1872    -2.2307    -4.2274 C.ar    
  23 C23            6.3673    -2.7274    -5.4999 C.ar    
  24 C24            5.5742    -3.7811    -5.9494 C.ar    
  25 C25            4.6065    -4.3194    -5.1078 C.ar    
  26 C26            5.7601    -4.3250    -7.3183 C.2     
  27 C27            6.6663    -3.8920    -8.2418 C.2     
  28 N28            6.5115    -4.6449    -9.3494 N.pl3   
  29 N29            5.4859    -5.5678    -9.1114 N.2     
  30 C30            5.0371    -5.3859    -7.8977 C.2     
  31 C31            7.2829    -4.5187   -10.5885 C.3     
  32 H32           -0.9605     1.9226     0.0170 H       
  33 H33           -0.9233    -0.5609     0.0082 H       
  34 H34            1.2282    -1.7389    -0.0187 H       
  35 H35            1.1156     3.1733     0.0087 H       
  36 H36            5.7393    -0.3889    -0.0536 H       
  37 H37            6.7544     4.1373    -0.0385 H       
  38 H38            4.5153    -2.4412     0.5356 H       
  39 H39            2.7412    -2.4836     0.3971 H       
  40 H40            5.1298    -1.1044    -2.0641 H       
  41 H41            5.8738    -2.5621    -1.3710 H       
  42 H42            2.3882    -4.0664    -3.2737 H       
  43 H43            3.4020    -5.5101    -3.0505 H       
  44 H44            4.4995    -4.5296    -1.1251 H       
  45 H45            2.7422    -4.3282    -0.8959 H       
  46 H46            6.8021    -1.4139    -3.8794 H       
  47 H47            7.1202    -2.3015    -6.1466 H       
  48 H48            3.9892    -5.1363    -5.4513 H       
  49 H49            7.3786    -3.0910    -8.1095 H       
  50 H50            4.2445    -5.9461    -7.4241 H       
  51 H51            8.1631    -5.1594   -10.5354 H       
  52 H52            6.6644    -4.8204   -11.4338 H       
  53 H53            7.5951    -3.4825   -10.7182 H       
@<TRIPOS>BOND
   1    1    2 1
   2    1    6 2
   3    1   32 1
   4    2    3 2
   5    2   33 1
   6    3    4 1
   7    3   34 1
   8    4    5 1
   9    4    7 2
  10    5    6 1
  11    5   10 am
  12    6   35 1
  13    7    8 1
  14    7   15 1
  15    8    9 2
  16    8   36 1
  17    9   10 1
  18    9   12 1
  19   10   11 2
  20   12   13 1
  21   12   14 2
  22   13   37 1
  23   15   16 1
  24   15   38 1
  25   15   39 1
  26   16   17 1
  27   16   21 1
  28   17   18 1
  29   17   40 1
  30   17   41 1
  31   18   19 ar
  32   18   22 ar
  33   19   20 1
  34   19   25 ar
  35   20   21 1
  36   20   42 1
  37   20   43 1
  38   21   44 1
  39   21   45 1
  40   22   23 ar
  41   22   46 1
  42   23   24 ar
  43   23   47 1
  44   24   25 ar
  45   24   26 1
  46   25   48 1
  47   26   27 2
  48   26   30 1
  49   27   28 1
  50   27   49 1
  51   28   29 1
  52   28   31 1
  53   29   30 2
  54   30   50 1
  55   31   51 1
  56   31   52 1
  57   31   53 1

#	End of record

