#	Name: ASD01142013
#	Creating user name:	WinNT
#	Creation time:	15. 06. 2019 19:01

#	Modifying user name:	WinNT
#	Modification time:	15. 06. 2019 19:01

#	Program:	/corina/corina34_cracker 3.40 0067  02.08.2006

@<TRIPOS>MOLECULE
ASD01142013
  37   40    0    0    0
SMALL
NO_CHARGES


@<TRIPOS>ATOM
   1 C1             0.0940     0.8937     1.0473 C.ar    
   2 C2             0.3009    -0.4787     1.0177 C.ar    
   3 C3             1.5304    -1.0031     0.6491 C.ar    
   4 C4             2.5805    -0.1250     0.3007 C.ar    
   5 C5             2.3482     1.2708     0.3375 C.ar    
   6 C6             1.0939     1.7623     0.7146 C.ar    
   7 C7             1.7406    -2.4685     0.6214 C.ar    
   8 N8             0.7390    -3.2731     0.9532 N.ar    
   9 C9             0.8937    -4.5856     0.9384 C.ar    
  10 C10            2.1204    -5.1185     0.5704 C.ar    
  11 C11            3.1461    -4.2492     0.2294 C.ar    
  12 N12            2.9245    -2.9465     0.2600 N.ar    
  13 N13            3.7848    -0.5834    -0.0612 N.ar    
  14 N14            4.7463     0.2053    -0.3794 N.ar    
  15 C15            4.6310     1.5346    -0.3773 C.ar    
  16 C16            3.4157     2.1339    -0.0160 C.ar    
  17 N17            3.2660     3.5030    -0.0041 N.pl3   
  18 C18            5.7821     2.3739    -0.7551 C.2     
  19 O19            5.6501     3.5790    -0.8521 O.2     
  20 N20            6.9809     1.8059    -0.9931 N.am    
  21 C21            8.3191     2.2791    -1.3781 C.3     
  22 C22            8.5630     0.9037    -2.0145 C.3     
  23 C23            7.5282     0.4410    -0.9757 C.3     
  24 H24           -0.8732     1.2800     1.3332 H       
  25 H25           -0.5051    -1.1458     1.2853 H       
  26 H26            0.9165     2.8273     0.7424 H       
  27 H27            0.0749    -5.2354     1.2099 H       
  28 H28            2.2737    -6.1874     0.5502 H       
  29 H29            4.1130    -4.6323    -0.0617 H       
  30 H30            4.0467     4.0758     0.0539 H       
  31 H31            2.3799     3.8944    -0.0538 H       
  32 H32            8.2998     3.0946    -2.1010 H       
  33 H33            8.9683     2.4848    -0.5270 H       
  34 H34            8.2289     0.8244    -3.0490 H       
  35 H35            9.5651     0.5072    -1.8514 H       
  36 H36            7.9692     0.1586    -0.0197 H       
  37 H37            6.8343    -0.3076    -1.3579 H       
@<TRIPOS>BOND
   1    1    2 ar
   2    1    6 ar
   3    1   24 1
   4    2    3 ar
   5    2   25 1
   6    3    4 ar
   7    3    7 1
   8    4    5 ar
   9    4   13 ar
  10    5    6 ar
  11    5   16 ar
  12    6   26 1
  13    7    8 ar
  14    7   12 ar
  15    8    9 ar
  16    9   10 ar
  17    9   27 1
  18   10   11 ar
  19   10   28 1
  20   11   12 ar
  21   11   29 1
  22   13   14 ar
  23   14   15 ar
  24   15   16 ar
  25   15   18 1
  26   16   17 1
  27   17   30 1
  28   17   31 1
  29   18   19 2
  30   18   20 am
  31   20   21 1
  32   20   23 1
  33   21   22 1
  34   21   32 1
  35   21   33 1
  36   22   23 1
  37   22   34 1
  38   22   35 1
  39   23   36 1
  40   23   37 1

#	End of record

