#	Name: ASD01412008
#	Creating user name:	WinNT
#	Creation time:	15. 06. 2019 19:19

#	Modifying user name:	WinNT
#	Modification time:	15. 06. 2019 19:19

#	Program:	/corina/corina34_cracker 3.40 0067  02.08.2006

@<TRIPOS>MOLECULE
ASD01412008
  75   79    0    0    0
SMALL
NO_CHARGES


@<TRIPOS>ATOM
   1 C1            -1.1718     3.2500    -0.6273 C.ar    
   2 C2            -0.9743     1.9109    -1.0232 C.ar    
   3 C3            -2.0432     1.0031    -0.9796 C.ar    
   4 C4            -3.2691     1.4145    -0.5556 C.ar    
   5 C5            -3.4748     2.7446    -0.1603 C.ar    
   6 C6            -2.4222     3.6584    -0.1927 C.ar    
   7 N7             0.0360     3.9033    -0.7720 N.pl3   
   8 C8             0.9691     3.0085    -1.2442 C.2     
   9 C9             0.3821     1.7914    -1.4054 C.2     
  10 C10            1.0573     0.5390    -1.9023 C.3     
  11 C11            0.9689    -0.5481    -0.8293 C.3     
  12 C12            1.6543    -1.8195    -1.3338 C.3     
  13 C13            0.9587    -2.3027    -2.6079 C.3     
  14 C14            1.0471    -1.2156    -3.6809 C.3     
  15 C15            0.3616     0.0558    -3.1765 C.3     
  16 C16           -4.8088     3.1771     0.2961 C.2     
  17 O17           -4.9900     4.3296     0.6394 O.2     
  18 N18           -5.8272     2.2951     0.3328 N.am    
  19 C19           -7.1524     2.7247     0.7862 C.3     
  20 C20           -8.1044     1.5577     0.7325 C.2     
  21 C21           -7.0574     3.2396     2.2238 C.3     
  22 C22           -7.6648     3.8432    -0.1233 C.3     
  23 C23           -8.8163    -0.4845    -0.2494 C.ar    
  24 O24           -8.9744     1.4458     1.5701 O.2     
  25 C25           -9.1916    -1.0728     0.9547 C.ar    
  26 C26          -10.0118    -2.1778     0.9568 C.ar    
  27 C27          -10.4691    -2.7098    -0.2549 C.ar    
  28 C28          -10.0892    -2.1142    -1.4638 C.ar    
  29 C29           -9.2683    -1.0098    -1.4562 C.ar    
  30 C30          -11.3447    -3.8898    -0.2579 C.2     
  31 C31          -12.3921    -3.9559     0.5929 C.2     
  32 N32           -7.9891     0.6385    -0.2464 N.am    
  33 C33            0.2833     5.3160    -0.4729 C.3     
  34 C34            2.3786     3.3189    -1.5299 C.2     
  35 C35            2.8514     4.4089    -2.1944 C.2     
  36 N36            4.1869     4.3067    -2.2366 N.2     
  37 C37            4.5471     3.2093    -1.6308 C.2     
  38 O38            3.4545     2.5796    -1.1781 O.3     
  39 C39          -12.7900    -2.8046     1.3182 C.2     
  40 O40          -12.2159    -1.7466     1.1427 O.2     
  41 O41          -13.8056    -2.8823     2.2033 O.3     
  42 H42           -1.8931    -0.0225    -1.2829 H       
  43 H43           -4.0892     0.7124    -0.5235 H       
  44 H44           -2.5828     4.6819     0.1124 H       
  45 H45            2.1042     0.7520    -2.1184 H       
  46 H46            1.4645    -0.2038     0.0784 H       
  47 H47           -0.0781    -0.7610    -0.6132 H       
  48 H48            2.7013    -1.6066    -1.5499 H       
  49 H49            1.5913    -2.5940    -0.5694 H       
  50 H50            1.4470    -3.2085    -2.9673 H       
  51 H51           -0.0883    -2.5157    -2.3918 H       
  52 H52            2.0940    -1.0027    -3.8970 H       
  53 H53            0.5515    -1.5599    -4.5886 H       
  54 H54           -0.6853    -0.1571    -2.9604 H       
  55 H55            0.4246     0.8303    -3.9409 H       
  56 H56           -5.6828     1.3758     0.0591 H       
  57 H57           -6.3688     4.0837     2.2627 H       
  58 H58           -8.0434     3.5593     2.5612 H       
  59 H59           -6.6924     2.4428     2.8718 H       
  60 H60           -7.7325     3.4764    -1.1475 H       
  61 H61           -8.6508     4.1629     0.2140 H       
  62 H62           -6.9762     4.6873    -0.0845 H       
  63 H63           -8.8384    -0.6618     1.8889 H       
  64 H64          -10.3020    -2.6341     1.8916 H       
  65 H65          -10.4393    -2.5215    -2.4008 H       
  66 H66           -8.9751    -0.5496    -2.3882 H       
  67 H67          -11.1509    -4.7043    -0.9401 H       
  68 H68          -12.9264    -4.8858     0.7204 H       
  69 H69           -7.3309     0.7579    -0.9488 H       
  70 H70            0.5950     5.4181     0.5666 H       
  71 H71            1.0694     5.6936    -1.1267 H       
  72 H72           -0.6305     5.8873    -0.6359 H       
  73 H73            2.2586     5.2094    -2.6117 H       
  74 H74            5.5637     2.8653    -1.5098 H       
  75 H75          -14.0040    -2.0472     2.6486 H       
@<TRIPOS>BOND
   1    1    2 ar
   2    1    7 1
   3    1    6 ar
   4    2    3 ar
   5    2    9 1
   6    3    4 ar
   7    3   42 1
   8    4    5 ar
   9    4   43 1
  10    5    6 ar
  11    5   16 1
  12    6   44 1
  13    7    8 1
  14    7   33 1
  15    8    9 2
  16    8   34 1
  17    9   10 1
  18   10   11 1
  19   10   15 1
  20   10   45 1
  21   11   12 1
  22   11   46 1
  23   11   47 1
  24   12   13 1
  25   12   48 1
  26   12   49 1
  27   13   14 1
  28   13   50 1
  29   13   51 1
  30   14   15 1
  31   14   52 1
  32   14   53 1
  33   15   54 1
  34   15   55 1
  35   16   17 2
  36   16   18 am
  37   18   19 1
  38   18   56 1
  39   19   20 1
  40   19   21 1
  41   19   22 1
  42   20   24 2
  43   20   32 am
  44   21   57 1
  45   21   58 1
  46   21   59 1
  47   22   60 1
  48   22   61 1
  49   22   62 1
  50   23   25 ar
  51   23   29 ar
  52   23   32 1
  53   25   26 ar
  54   25   63 1
  55   26   27 ar
  56   26   64 1
  57   27   28 ar
  58   27   30 1
  59   28   29 ar
  60   28   65 1
  61   29   66 1
  62   30   31 2
  63   30   67 1
  64   31   39 1
  65   31   68 1
  66   32   69 1
  67   33   70 1
  68   33   71 1
  69   33   72 1
  70   34   35 2
  71   34   38 1
  72   35   36 1
  73   35   73 1
  74   36   37 2
  75   37   38 1
  76   37   74 1
  77   39   40 2
  78   39   41 1
  79   41   75 1

#	End of record

