#	Name: ASD01870555
#	Creating user name:	WinNT
#	Creation time:	15. 06. 2019 19:39

#	Modifying user name:	WinNT
#	Modification time:	15. 06. 2019 19:39

#	Program:	/corina/corina34_cracker 3.40 0067  02.08.2006

@<TRIPOS>MOLECULE
ASD01870555
  50   54    0    0    0
SMALL
NO_CHARGES


@<TRIPOS>ATOM
   1 N1            -0.0159     1.3218     0.0093 N.2     
   2 C2             0.0021    -0.0041     0.0020 C.ar    
   3 C3             1.3553    -0.4303    -0.0132 C.ar    
   4 N4             1.3007     1.8031    -0.0007 N.pl3   
   5 C5            -1.0059    -1.0028     0.0063 C.ar    
   6 N6            -0.6346    -2.2735    -0.0041 N.ar    
   7 C7             0.6441    -2.6217    -0.0182 C.ar    
   8 N8             1.6184    -1.7450    -0.0228 N.ar    
   9 C9             1.8018     3.0710     0.0009 C.2     
  10 C10            2.1503     0.7299    -0.0146 C.2     
  11 C11            3.5361     0.9318    -0.0267 C.2     
  12 C12            4.0272     2.2054    -0.0246 C.2     
  13 C13            3.1363     3.2872    -0.0110 C.2     
  14 N14           -2.3433    -0.6573     0.0214 N.pl3   
  15 C15           -3.3769    -1.7096     0.0256 C.3     
  16 C16           -5.9039    -1.4709     0.0325 C.3     
  17 C17           -5.9933    -2.8292    -0.6701 C.3     
  18 C18           -5.1360    -2.1600    -1.7602 C.3     
  19 C19           -3.6482    -2.1424    -1.4084 C.3     
  20 C20           -4.5979    -1.2022     0.7779 C.3     
  21 C21           -5.3338    -4.0166     0.0229 C.3     
  22 C22            0.9926    -4.0878    -0.0289 C.3     
  23 C23           -7.4134    -3.1762    -1.1505 C.3     
  24 C24           -4.6416    -1.7523     2.2043 C.3     
  25 C25           -5.8373    -0.8434    -1.3798 C.3     
  26 H26            1.1249     3.9124     0.0116 H       
  27 H27            4.2099     0.0878    -0.0373 H       
  28 H28            5.0933     2.3780    -0.0338 H       
  29 H29            3.5174     4.2977    -0.0095 H       
  30 H30           -2.6027     0.2773     0.0292 H       
  31 H31           -2.9518    -2.5660     0.5782 H       
  32 H32           -6.8014    -1.1891     0.6032 H       
  33 H33           -5.3445    -2.5112    -2.7800 H       
  34 H34           -3.1316    -1.4496    -2.0937 H       
  35 H35           -3.2146    -3.1353    -1.5851 H       
  36 H36           -4.4941    -0.0969     0.8695 H       
  37 H37           -5.7892    -4.1647     1.0020 H       
  38 H38           -5.4723    -4.9129    -0.5816 H       
  39 H39           -4.2683    -3.8209     0.1436 H       
  40 H40            1.0667    -4.4361    -1.0590 H       
  41 H41            1.9473    -4.2380     0.4750 H       
  42 H42            0.2157    -4.6497     0.4897 H       
  43 H43           -7.7530    -2.4191    -1.8573 H       
  44 H44           -7.4039    -4.1507    -1.6387 H       
  45 H45           -8.0893    -3.2046    -0.2959 H       
  46 H46           -3.7477    -1.4375     2.7426 H       
  47 H47           -5.5261    -1.3704     2.7140 H       
  48 H48           -4.6822    -2.8411     2.1727 H       
  49 H49           -6.8021    -0.6814    -1.8489 H       
  50 H50           -5.1886     0.0337    -1.4330 H       
@<TRIPOS>BOND
   1    1    2 2
   2    1    4 1
   3    2    3 ar
   4    2    5 ar
   5    3   10 2
   6    3    8 ar
   7    4   10 1
   8    4    9 1
   9    5    6 ar
  10    5   14 1
  11    6    7 ar
  12    7    8 ar
  13    7   22 1
  14    9   13 2
  15    9   26 1
  16   10   11 1
  17   11   12 2
  18   11   27 1
  19   12   13 1
  20   12   28 1
  21   13   29 1
  22   14   15 1
  23   14   30 1
  24   15   19 1
  25   15   20 1
  26   15   31 1
  27   16   17 1
  28   16   25 1
  29   16   20 1
  30   16   32 1
  31   17   21 1
  32   17   23 1
  33   17   18 1
  34   18   19 1
  35   18   25 1
  36   18   33 1
  37   19   34 1
  38   19   35 1
  39   20   24 1
  40   20   36 1
  41   21   37 1
  42   21   38 1
  43   21   39 1
  44   22   40 1
  45   22   41 1
  46   22   42 1
  47   23   43 1
  48   23   44 1
  49   23   45 1
  50   24   46 1
  51   24   47 1
  52   24   48 1
  53   25   49 1
  54   25   50 1

#	End of record

