#	Name: ASD01912849
#	Creating user name:	WinNT
#	Creation time:	15. 06. 2019 20:00

#	Modifying user name:	WinNT
#	Modification time:	15. 06. 2019 20:00

#	Program:	/corina/corina34_cracker 3.40 0067  02.08.2006

@<TRIPOS>MOLECULE
ASD01912849
  49   52    0    0    0
SMALL
NO_CHARGES


@<TRIPOS>ATOM
   1 C1            -0.0352     1.2939     0.0935 C.2     
   2 N2            -0.0352    -0.0731    -0.0119 N.pl3   
   3 C3            -1.2485    -0.7402    -0.0959 C.2     
   4 C4            -2.3999    -0.0819    -0.0760 C.2     
   5 N5            -2.4540     1.2959     0.0284 N.am    
   6 C6            -1.3108     2.0115     0.1200 C.2     
   7 C7             1.2879     1.6888     0.1594 C.2     
   8 C8             2.0252     0.5079     0.0882 C.2     
   9 N9             1.1811    -0.4915    -0.0115 N.2     
  10 O10           -1.3411     3.2253     0.2129 O.2     
  11 C11           -3.6876     1.9465     0.0450 C.ar    
  12 C12            3.5279     0.3986     0.1196 C.3     
  13 O13            4.0982     1.7037     0.2351 O.3     
  14 C14            5.4542     1.7830     0.2771 C.ar    
  15 C15            6.0749     3.0187     0.3886 C.ar    
  16 C16            7.4535     3.0967     0.4311 C.ar    
  17 C17            8.2146     1.9444     0.3626 C.ar    
  18 C18            7.5985     0.7117     0.2510 C.ar    
  19 C19            6.2201     0.6279     0.2143 C.ar    
  20 N20           -4.3039     2.1534     1.1992 N.ar    
  21 C21           -4.2541     2.3754    -1.1480 C.ar    
  22 C22           -5.4804     3.0212    -1.1223 C.ar    
  23 C23           -6.1006     3.2166     0.1001 C.ar    
  24 C24           -5.4758     2.7669     1.2585 C.ar    
  25 N25           -6.0905     2.9584     2.4903 N.pl3   
  26 C26           -7.4373     3.5312     2.5557 C.3     
  27 C27           -5.3916     2.5874     3.7232 C.3     
  28 C28           -3.5432     2.1420    -2.4561 C.3     
  29 H29           -1.2558    -1.8170    -0.1795 H       
  30 H30           -3.3228    -0.6387    -0.1436 H       
  31 H31            1.6686     2.6957     0.2468 H       
  32 H32            3.8304    -0.2070     0.9740 H       
  33 H33            3.8774    -0.0706    -0.8001 H       
  34 H34            5.4808     3.9191     0.4418 H       
  35 H35            7.9371     4.0585     0.5175 H       
  36 H36            9.2923     2.0074     0.3959 H       
  37 H37            8.1953    -0.1869     0.1969 H       
  38 H38            5.7393    -0.3352     0.1272 H       
  39 H39           -5.9421     3.3649    -2.0361 H       
  40 H40           -7.0564     3.7166     0.1540 H       
  41 H41           -8.1752     2.7299     2.5170 H       
  42 H42           -7.5515     4.0856     3.4872 H       
  43 H43           -7.5873     4.2043     1.7115 H       
  44 H44           -4.4646     3.1556     3.8004 H       
  45 H45           -6.0261     2.8092     4.5813 H       
  46 H46           -5.1642     1.5216     3.7053 H       
  47 H47           -3.7675     1.1384    -2.8175 H       
  48 H48           -3.8801     2.8756    -3.1886 H       
  49 H49           -2.4680     2.2432    -2.3085 H       
@<TRIPOS>BOND
   1    1    2 1
   2    1    7 2
   3    1    6 1
   4    2    3 1
   5    2    9 1
   6    3    4 2
   7    3   29 1
   8    4    5 1
   9    4   30 1
  10    5    6 am
  11    5   11 1
  12    6   10 2
  13    7    8 1
  14    7   31 1
  15    8    9 2
  16    8   12 1
  17   11   20 ar
  18   11   21 ar
  19   12   13 1
  20   12   32 1
  21   12   33 1
  22   13   14 1
  23   14   15 ar
  24   14   19 ar
  25   15   16 ar
  26   15   34 1
  27   16   17 ar
  28   16   35 1
  29   17   18 ar
  30   17   36 1
  31   18   19 ar
  32   18   37 1
  33   19   38 1
  34   20   24 ar
  35   21   22 ar
  36   21   28 1
  37   22   23 ar
  38   22   39 1
  39   23   24 ar
  40   23   40 1
  41   24   25 1
  42   25   26 1
  43   25   27 1
  44   26   41 1
  45   26   42 1
  46   26   43 1
  47   27   44 1
  48   27   45 1
  49   27   46 1
  50   28   47 1
  51   28   48 1
  52   28   49 1

#	End of record

