#	Name: ASD09080094
#	Creating user name:	WinNT
#	Creation time:	15. 06. 2019 21:20

#	Modifying user name:	WinNT
#	Modification time:	15. 06. 2019 21:20

#	Program:	/corina/corina34_cracker 3.40 0067  02.08.2006

@<TRIPOS>MOLECULE
ASD09080094
  45   45    0    0    0
SMALL
NO_CHARGES


@<TRIPOS>ATOM
   1 C1            -0.0167     1.3799     0.0096 C.ar    
   2 C2             0.0021    -0.0041     0.0020 C.ar    
   3 C3             1.2064    -0.6807    -0.0127 C.ar    
   4 C4             2.4033     0.0323    -0.0204 C.ar    
   5 C5             2.3792     1.4253    -0.0131 C.ar    
   6 C6             1.1698     2.0928     0.0021 C.ar    
   7 C7             3.6997    -0.6897    -0.0357 C.ar    
   8 C8             4.8969     0.0231    -0.0433 C.ar    
   9 C9             3.7243    -2.0828    -0.0367 C.ar    
  10 C10            4.9328    -2.7491    -0.0510 C.ar    
  11 C11            6.1183    -2.0365    -0.0639 C.ar    
  12 C12            6.0998    -0.6534    -0.0576 C.ar    
  13 Cl13           1.1380     3.8285     0.0112 Cl      
  14 Cl14          -1.4902    -0.8910     0.0116 Cl      
  15 C15            7.4348    -2.7697    -0.0790 C.3     
  16 C16            7.8643    -3.0170    -1.5265 C.3     
  17 N17            6.9068    -3.9242    -2.1731 N.3     
  18 C18            9.2366    -3.6395    -1.5440 C.2     
  19 C19            9.4370    -4.7906    -2.1811 C.2     
  20 C20           10.7752    -5.3976    -2.1981 C.2     
  21 O21           11.6989    -4.8484    -1.6304 O.2     
  22 O22           10.9782    -6.5636    -2.8434 O.3     
  23 C23           12.3605    -8.4212    -3.5975 C.3     
  24 C24           12.3254    -7.1048    -2.8187 C.3     
  25 H25           -0.9602     1.9054     0.0170 H       
  26 H26            1.2200    -1.7606    -0.0179 H       
  27 H27            3.3044     1.9823    -0.0186 H       
  28 H28            4.8836     1.1031    -0.0384 H       
  29 H29            2.7993    -2.6402    -0.0260 H       
  30 H30            4.9530    -3.8290    -0.0518 H       
  31 H31            7.0284    -0.1019    -0.0677 H       
  32 H32            8.1909    -2.1692     0.4267 H       
  33 H33            7.3250    -3.7243     0.4356 H       
  34 H34            7.8881    -2.0698    -2.0653 H       
  35 H35            7.1320    -4.0525    -3.1483 H       
  36 H36            6.8663    -4.8101    -1.6918 H       
  37 H37           10.0574    -3.1514    -1.0395 H       
  38 H38            8.6162    -5.2787    -2.6855 H       
  39 H39           11.6744    -9.1332    -3.1387 H       
  40 H40           12.0602    -8.2409    -4.6297 H       
  41 H41           13.3718    -8.8275    -3.5790 H       
  42 H42           13.0114    -6.3928    -3.2775 H       
  43 H43           12.6256    -7.2851    -1.7865 H       
  44 Cl44          18.3718     8.8285     5.4356 Cl      
  45 H45           18.3718    10.1985     5.4356 H       
@<TRIPOS>BOND
   1    1    2 ar
   2    1    6 ar
   3    1   25 1
   4    2    3 ar
   5    2   14 1
   6    3    4 ar
   7    3   26 1
   8    4    5 ar
   9    4    7 1
  10    5    6 ar
  11    5   27 1
  12    6   13 1
  13    7    8 ar
  14    7    9 ar
  15    8   12 ar
  16    8   28 1
  17    9   10 ar
  18    9   29 1
  19   10   11 ar
  20   10   30 1
  21   11   12 ar
  22   11   15 1
  23   12   31 1
  24   15   16 1
  25   15   32 1
  26   15   33 1
  27   16   17 1
  28   16   18 1
  29   16   34 1
  30   17   35 1
  31   17   36 1
  32   18   19 2
  33   18   37 1
  34   19   20 1
  35   19   38 1
  36   20   21 2
  37   20   22 1
  38   22   24 1
  39   23   24 1
  40   23   39 1
  41   23   40 1
  42   23   41 1
  43   24   42 1
  44   24   43 1
  45   44   45 1

#	End of record

