#	Name: ASD09740077
#	Creating user name:	WinNT
#	Creation time:	15. 06. 2019 21:22

#	Modifying user name:	WinNT
#	Modification time:	15. 06. 2019 21:22

#	Program:	/corina/corina34_cracker 3.40 0067  02.08.2006

@<TRIPOS>MOLECULE
ASD09740077
  29   31    0    0    0
SMALL
NO_CHARGES


@<TRIPOS>ATOM
   1 O1            -0.0144     1.2085     0.0087 O.3     
   2 N2             0.0021    -0.0041     0.0020 N.2     
   3 C3             1.2411     1.6827    -0.0008 C.2     
   4 N4             2.0453     0.6365    -0.0141 N.2     
   5 C5             1.2345    -0.4420    -0.0121 C.2     
   6 C6             1.6625    -1.8640    -0.0238 C.ar    
   7 C7             1.6456     3.1047     0.0023 C.ar    
   8 C8             0.7215    -2.8964    -0.0204 C.ar    
   9 C9             3.0169    -2.2055    -0.0445 C.ar    
  10 C10            3.3712    -3.5396    -0.0553 C.ar    
  11 N11            2.4511    -4.4844    -0.0468 N.ar    
  12 C12            1.1623    -4.2046    -0.0321 C.ar    
  13 C13            0.6766     4.1088     0.0167 C.ar    
  14 C14            1.0603     5.4342     0.0199 C.ar    
  15 C15            2.4023     5.7691     0.0090 C.ar    
  16 C16            3.3691     4.7780    -0.0053 C.ar    
  17 C17            2.9983     3.4484    -0.0034 C.ar    
  18 Br18           5.2010     5.2469    -0.0202 Br      
  19 C19            0.0148     6.5195     0.0349 C.3     
  20 F20           -0.2968     6.8486     1.3585 F       
  21 F21            0.5079     7.6512    -0.6233 F       
  22 F22           -1.1373     6.0661    -0.6164 F       
  23 H23           -0.3354    -2.6745    -0.0084 H       
  24 H24            3.7756    -1.4369    -0.0522 H       
  25 H25            4.4158    -3.8134    -0.0713 H       
  26 H26            0.4423    -5.0095    -0.0256 H       
  27 H27           -0.3717     3.8490     0.0249 H       
  28 H28            2.6972     6.8081     0.0112 H       
  29 H29            3.7531     2.6760    -0.0145 H       
@<TRIPOS>BOND
   1    1    2 1
   2    1    3 1
   3    2    5 2
   4    3    4 2
   5    3    7 1
   6    4    5 1
   7    5    6 1
   8    6    8 ar
   9    6    9 ar
  10    7   13 ar
  11    7   17 ar
  12    8   12 ar
  13    8   23 1
  14    9   10 ar
  15    9   24 1
  16   10   11 ar
  17   10   25 1
  18   11   12 ar
  19   12   26 1
  20   13   14 ar
  21   13   27 1
  22   14   15 ar
  23   14   19 1
  24   15   16 ar
  25   15   28 1
  26   16   17 ar
  27   16   18 1
  28   17   29 1
  29   19   20 1
  30   19   21 1
  31   19   22 1

#	End of record

