#	Name: ASD03912015
#	Creating user name:	WinNT
#	Creation time:	15. 06. 2019 20:47

#	Modifying user name:	WinNT
#	Modification time:	15. 06. 2019 20:47

#	Program:	/corina/corina34_cracker 3.40 0067  02.08.2006

@<TRIPOS>MOLECULE
ASD03912015
  45   46    0    0    0
SMALL
NO_CHARGES


@<TRIPOS>ATOM
   1 C1            -1.9378    -0.5974    -1.2138 C.ar    
   2 C2            -0.8195    -0.2654    -0.4694 C.ar    
   3 C3            -0.8480     0.8288     0.3756 C.ar    
   4 C4            -1.9929     1.5941     0.4789 C.ar    
   5 C5            -3.1172     1.2642    -0.2670 C.ar    
   6 C6            -3.0849     0.1683    -1.1187 C.ar    
   7 C7             0.3718     1.1864     1.1852 C.3     
   8 N8            -4.2786     2.0377    -0.1637 N.am    
   9 C9            -4.1873     3.3746    -0.0198 C.2     
  10 C10           -5.4351     4.2196    -0.0205 C.3     
  11 O11           -3.1008     3.8977     0.1103 O.2     
  12 C12           -5.0606     5.6687     0.1549 C.ar    
  13 C13           -4.8057     6.4547    -0.9537 C.ar    
  14 C14           -4.4622     7.7834    -0.7956 C.ar    
  15 C15           -4.3732     8.3290     0.4768 C.ar    
  16 C16           -4.6295     7.5382     1.5875 C.ar    
  17 C17           -4.9781     6.2115     1.4239 C.ar    
  18 O18           -4.0350     9.6357     0.6350 O.3     
  19 C19           -3.6659    10.3573    -0.5419 C.3     
  20 Cl20          -1.8979    -1.9723    -2.2730 Cl      
  21 C21           -4.8946    10.9741    -1.1590 C.2     
  22 O22           -5.9607    10.8891    -0.5967 O.2     
  23 O23           -4.8048    11.6180    -2.3333 O.3     
  24 C24           -2.6719    11.4604    -0.1730 C.3     
  25 C25           -1.3754    10.8287     0.3377 C.3     
  26 H26            0.0772    -0.8622    -0.5484 H       
  27 H27           -2.0141     2.4482     1.1395 H       
  28 H28           -3.9574    -0.0904    -1.7002 H       
  29 H29            0.9981     1.8724     0.6149 H       
  30 H30            0.0634     1.6638     2.1153 H       
  31 H31            0.9361     0.2815     1.4110 H       
  32 H32           -5.1495     1.6117    -0.1957 H       
  33 H33           -5.9598     4.0919    -0.9673 H       
  34 H34           -6.0838     3.9102     0.7990 H       
  35 H35           -4.8747     6.0294    -1.9440 H       
  36 H36           -4.2628     8.3968    -1.6618 H       
  37 H37           -4.5609     7.9607     2.5791 H       
  38 H38           -5.1777     5.5956     2.2882 H       
  39 H39           -3.2038     9.6758    -1.2561 H       
  40 H40           -5.6199    11.9972    -2.6896 H       
  41 H41           -2.4585    12.0665    -1.0535 H       
  42 H42           -3.1008    12.0902     0.6064 H       
  43 H43           -1.5888    10.2226     1.2182 H       
  44 H44           -0.9465    10.1989    -0.4417 H       
  45 H45           -0.6672    11.6146     0.6005 H       
@<TRIPOS>BOND
   1    1    2 ar
   2    1   20 1
   3    1    6 ar
   4    2    3 ar
   5    2   26 1
   6    3    4 ar
   7    3    7 1
   8    4    5 ar
   9    4   27 1
  10    5    6 ar
  11    5    8 1
  12    6   28 1
  13    7   29 1
  14    7   30 1
  15    7   31 1
  16    8    9 am
  17    8   32 1
  18    9   10 1
  19    9   11 2
  20   10   12 1
  21   10   33 1
  22   10   34 1
  23   12   13 ar
  24   12   17 ar
  25   13   14 ar
  26   13   35 1
  27   14   15 ar
  28   14   36 1
  29   15   16 ar
  30   15   18 1
  31   16   17 ar
  32   16   37 1
  33   17   38 1
  34   18   19 1
  35   19   21 1
  36   19   24 1
  37   19   39 1
  38   21   22 2
  39   21   23 1
  40   23   40 1
  41   24   25 1
  42   24   41 1
  43   24   42 1
  44   25   43 1
  45   25   44 1
  46   25   45 1

#	End of record

