#	Name: ASD09116149
#	Creating user name:	WinNT
#	Creation time:	15. 06. 2019 21:20

#	Modifying user name:	WinNT
#	Modification time:	15. 06. 2019 21:20

#	Program:	/corina/corina34_cracker 3.40 0067  02.08.2006

@<TRIPOS>MOLECULE
ASD09116149
  88   95    0    0    0
SMALL
NO_CHARGES


@<TRIPOS>ATOM
   1 N1            -0.1036     1.6087     0.0715 N.2     
   2 C2            -0.1413     0.1929    -0.3356 C.3     
   3 C3             1.1508     1.9683     0.0393 C.2     
   4 N4             1.9721     0.9682    -0.3405 N.2     
   5 C5             1.3170    -0.1356    -0.5898 C.2     
   6 N6             1.5901     3.2370     0.3600 N.pl3   
   7 C7             2.9630     3.5106     0.4121 C.ar    
   8 C8             3.4300     4.7796     0.0986 C.ar    
   9 C9             3.8561     2.5135     0.7829 C.ar    
  10 C10            5.2104     2.7837     0.8343 C.ar    
  11 C11            5.6780     4.0540     0.5145 C.ar    
  12 C12            4.7839     5.0504     0.1493 C.ar    
  13 N13            1.8346    -1.3272    -0.9927 N.pl3   
  14 C14           -0.6939    -0.6646     0.7736 C.ar    
  15 C15           -1.1987    -0.0586     1.9059 C.ar    
  16 N16           -0.6885    -1.9840     0.6361 N.ar    
  17 C17           -1.1576    -2.7528     1.5741 C.ar    
  18 C18           -1.6833    -2.2254     2.7594 C.ar    
  19 C19           -1.7140    -0.8521     2.9425 C.ar    
  20 C20           -1.2074    -4.2691     1.5338 C.3     
  21 C21           -0.4444    -4.7561     2.7829 C.3     
  22 C22           -1.0270    -4.0843     4.0282 C.3     
  23 N23           -2.1422    -3.1901     3.6598 N.3     
  24 C24           -3.2074    -3.9872     3.0204 C.3     
  25 C25           -2.6857    -4.6553     1.7464 C.3     
  26 C26           -2.2614    -0.2480     4.1812 C.ar    
  27 N27            7.0508     4.3291     0.5667 N.3     
  28 C28            7.5531     4.7517    -0.7469 C.3     
  29 C29            9.0749     4.9024    -0.6882 C.3     
  30 C30            9.4394     5.9407     0.3765 C.3     
  31 C31            8.8632     5.5009     1.7253 C.3     
  32 C32            7.3475     5.3329     1.5966 C.3     
  33 N33           10.9010     6.0471     0.4783 N.3     
  34 F34            6.0797     1.8146     1.1953 F       
  35 C35           11.2917     7.0570     1.4954 C.3     
  36 C36           12.7414     6.6862     1.8749 C.3     
  37 C37           12.8744     5.1878     1.5335 C.3     
  38 C38           11.4938     4.7793     0.9765 C.3     
  39 C39           -1.5264     0.7114     4.8756 C.ar    
  40 C40           -3.5153    -0.6333     4.6525 C.ar    
  41 C41           -4.0198    -0.0674     5.8057 C.ar    
  42 C42           -3.2839     0.8808     6.4932 C.ar    
  43 C43           -2.0410     1.2705     6.0276 C.ar    
  44 C44           11.2407     8.4432     0.9063 C.2     
  45 O45           11.5589     9.5058     1.6622 O.3     
  46 O46           10.9135     8.5980    -0.2465 O.2     
  47 C47           11.4876    10.8104     1.0288 C.3     
  48 H48           -0.7299     0.0698    -1.2447 H       
  49 H49            0.9481     3.9391     0.5492 H       
  50 H50            2.7347     5.5557    -0.1853 H       
  51 H51            3.4922     1.5274     1.0314 H       
  52 H52            5.1469     6.0368    -0.0990 H       
  53 H53            2.7910    -1.4208    -1.1247 H       
  54 H54            1.2472    -2.0834    -1.1479 H       
  55 H55           -1.1968     1.0178     1.9939 H       
  56 H56           -0.7915    -4.6730     0.6108 H       
  57 H57           -0.5458    -5.8377     2.8722 H       
  58 H58            0.6100    -4.4961     2.6892 H       
  59 H59           -1.3913    -4.8502     4.7129 H       
  60 H60           -0.2478    -3.5031     4.5213 H       
  61 H61           -3.5487    -4.7546     3.7152 H       
  62 H62           -4.0429    -3.3342     2.7679 H       
  63 H63           -3.2752    -4.3207     0.8928 H       
  64 H64           -2.7683    -5.7378     1.8436 H       
  65 H65            7.2909     4.0027    -1.4941 H       
  66 H66            7.1037     5.7072    -1.0174 H       
  67 H67            9.5259     3.9439    -0.4313 H       
  68 H68            9.4458     5.2311    -1.6590 H       
  69 H69            9.0211     6.9084     0.0999 H       
  70 H70            9.3108     4.5518     2.0202 H       
  71 H71            9.0828     6.2573     2.4788 H       
  72 H72            6.8991     6.2856     1.3152 H       
  73 H73            6.9360     5.0060     2.5516 H       
  74 H74           10.6413     6.9895     2.3675 H       
  75 H75           13.4482     7.2725     1.2877 H       
  76 H76           12.9071     6.8480     2.9400 H       
  77 H77           13.6464     5.0385     0.7787 H       
  78 H78           13.1053     4.6140     2.4310 H       
  79 H79           10.8750     4.3553     1.7673 H       
  80 H80           11.6091     4.0668     0.1596 H       
  81 H81           -0.5559     1.0164     4.5129 H       
  82 H82           -4.0910    -1.3730     4.1161 H       
  83 H83           -4.9913    -0.3652     6.1718 H       
  84 H84           -3.6828     1.3213     7.3950 H       
  85 H85           -1.4706     2.0110     6.5687 H       
  86 H86           12.1705    10.8399     0.1798 H       
  87 H87           10.4699    10.9912     0.6829 H       
  88 H88           11.7688    11.5795     1.7483 H       
@<TRIPOS>BOND
   1    1    2 1
   2    1    3 2
   3    2   14 1
   4    2    5 1
   5    2   48 1
   6    3    4 1
   7    3    6 1
   8    4    5 2
   9    5   13 1
  10    6    7 1
  11    6   49 1
  12    7    8 ar
  13    7    9 ar
  14    8   12 ar
  15    8   50 1
  16    9   10 ar
  17    9   51 1
  18   10   11 ar
  19   10   34 1
  20   11   12 ar
  21   11   27 1
  22   12   52 1
  23   13   53 1
  24   13   54 1
  25   14   15 ar
  26   14   16 ar
  27   15   19 ar
  28   15   55 1
  29   16   17 ar
  30   17   18 ar
  31   17   20 1
  32   18   19 ar
  33   18   23 1
  34   19   26 1
  35   20   21 1
  36   20   25 1
  37   20   56 1
  38   21   22 1
  39   21   57 1
  40   21   58 1
  41   22   23 1
  42   22   59 1
  43   22   60 1
  44   23   24 1
  45   24   25 1
  46   24   61 1
  47   24   62 1
  48   25   63 1
  49   25   64 1
  50   26   39 ar
  51   26   40 ar
  52   27   28 1
  53   27   32 1
  54   28   29 1
  55   28   65 1
  56   28   66 1
  57   29   30 1
  58   29   67 1
  59   29   68 1
  60   30   31 1
  61   30   33 1
  62   30   69 1
  63   31   32 1
  64   31   70 1
  65   31   71 1
  66   32   72 1
  67   32   73 1
  68   33   35 1
  69   33   38 1
  70   35   36 1
  71   35   44 1
  72   35   74 1
  73   36   37 1
  74   36   75 1
  75   36   76 1
  76   37   38 1
  77   37   77 1
  78   37   78 1
  79   38   79 1
  80   38   80 1
  81   39   43 ar
  82   39   81 1
  83   40   41 ar
  84   40   82 1
  85   41   42 ar
  86   41   83 1
  87   42   43 ar
  88   42   84 1
  89   43   85 1
  90   44   45 1
  91   44   46 2
  92   45   47 1
  93   47   86 1
  94   47   87 1
  95   47   88 1

#	End of record

