#	Name: ASD01883632
#	Creating user name:	WinNT
#	Creation time:	15. 06. 2019 19:46

#	Modifying user name:	WinNT
#	Modification time:	15. 06. 2019 19:46

#	Program:	/corina/corina34_cracker 3.40 0067  02.08.2006

@<TRIPOS>MOLECULE
ASD01883632
  45   48    0    0    0
SMALL
NO_CHARGES


@<TRIPOS>ATOM
   1 C1             1.6704     2.7936     0.1018 C.2     
   2 C2             1.2978     1.5002     0.4952 C.2     
   3 C3             0.0105     1.2931     1.0331 C.2     
   4 C4            -0.8556     2.3144     1.1714 C.2     
   5 N5            -0.5346     3.5881     0.8014 N.pl3   
   6 C6             0.6989     3.8755     0.2754 C.2     
   7 C7            -1.2325     4.7671     0.8432 C.2     
   8 C8            -0.4241     5.7264     0.3451 C.2     
   9 N9             0.7428     5.1680     0.0069 N.2     
  10 C10           -2.6390     4.9567     1.3500 C.3     
  11 C11            2.2400     0.3705     0.3477 C.ar    
  12 C12            2.7261    -0.2875     1.4792 C.ar    
  13 C13            3.6041    -1.3409     1.3388 C.ar    
  14 C14            4.0061    -1.7488     0.0740 C.ar    
  15 C15            3.5248    -1.0959    -1.0569 C.ar    
  16 C16            2.6415    -0.0448    -0.9241 C.ar    
  17 O17            4.8715    -2.7873    -0.0599 O.3     
  18 C18            5.2320    -3.4647     1.0595 C.ar    
  19 C19            4.4871    -4.5533     1.5064 C.ar    
  20 C20            4.8869    -5.2161     2.6488 C.ar    
  21 N21            5.9586    -4.8297     3.3147 N.ar    
  22 C22            6.6899    -3.8033     2.9230 C.ar    
  23 C23            6.3598    -3.0924     1.7877 C.ar    
  24 C24            4.0892    -6.3955     3.1425 C.3     
  25 C25           -3.6176     4.8888     0.1759 C.3     
  26 F26            3.9191    -1.4952    -2.2859 F       
  27 C27            2.9672     3.0504    -0.4488 C.1     
  28 N28            3.9959     3.2541    -0.8856 N.1     
  29 H29           -0.2850     0.3002     1.3383 H       
  30 H30           -1.8332     2.1200     1.5871 H       
  31 H31           -0.6763     6.7713     0.2406 H       
  32 H32           -2.8761     4.1704     2.0666 H       
  33 H33           -2.7220     5.9286     1.8364 H       
  34 H34            2.4146     0.0289     2.4637 H       
  35 H35            3.9803    -1.8495     2.2141 H       
  36 H36            2.2680     0.4620    -1.8016 H       
  37 H37            3.6086    -4.8742     0.9665 H       
  38 H38            7.5600    -3.5189     3.4960 H       
  39 H39            6.9627    -2.2537     1.4725 H       
  40 H40            4.4767    -7.3099     2.6932 H       
  41 H41            4.1710    -6.4609     4.2275 H       
  42 H42            3.0431    -6.2689     2.8639 H       
  43 H43           -3.3805     5.6751    -0.5407 H       
  44 H44           -3.5346     3.9169    -0.3105 H       
  45 H45           -4.6349     5.0259     0.5425 H       
@<TRIPOS>BOND
   1    1    2 2
   2    1   27 1
   3    1    6 1
   4    2    3 1
   5    2   11 1
   6    3    4 2
   7    3   29 1
   8    4    5 1
   9    4   30 1
  10    5    6 1
  11    5    7 1
  12    6    9 2
  13    7    8 2
  14    7   10 1
  15    8    9 1
  16    8   31 1
  17   10   25 1
  18   10   32 1
  19   10   33 1
  20   11   12 ar
  21   11   16 ar
  22   12   13 ar
  23   12   34 1
  24   13   14 ar
  25   13   35 1
  26   14   15 ar
  27   14   17 1
  28   15   16 ar
  29   15   26 1
  30   16   36 1
  31   17   18 1
  32   18   19 ar
  33   18   23 ar
  34   19   20 ar
  35   19   37 1
  36   20   21 ar
  37   20   24 1
  38   21   22 ar
  39   22   23 ar
  40   22   38 1
  41   23   39 1
  42   24   40 1
  43   24   41 1
  44   24   42 1
  45   25   43 1
  46   25   44 1
  47   25   45 1
  48   27   28 3

#	End of record

