#	Name: ASD08830125
#	Creating user name:	WinNT
#	Creation time:	15. 06. 2019 21:19

#	Modifying user name:	WinNT
#	Modification time:	15. 06. 2019 21:19

#	Program:	/corina/corina34_cracker 3.40 0067  02.08.2006

@<TRIPOS>MOLECULE
ASD08830125
  44   46    0    0    0
SMALL
NO_CHARGES


@<TRIPOS>ATOM
   1 C1            -0.5935     1.5090    -0.2846 C.ar    
   2 C2            -0.7785     0.0566    -0.3975 C.2     
   3 C3            -2.0130    -0.4964    -1.0618 C.3     
   4 C4            -1.9583    -2.0254    -1.0476 C.3     
   5 N5            -3.1617    -2.5644    -1.6951 N.3     
   6 O6             0.0624    -0.6980     0.0438 O.2     
   7 C7             0.5528     2.0254     0.3323 C.ar    
   8 C8            -0.2448     4.2455    -0.0721 C.ar    
   9 C9            -1.3825     3.7377    -0.6908 C.ar    
  10 C10           -1.5601     2.3824    -0.7984 C.ar    
  11 C11           -3.0384    -4.0129    -1.9137 C.3     
  12 C12           -4.3342    -4.5421    -2.5340 C.3     
  13 O13           -4.6009    -3.8324    -3.7466 O.3     
  14 C14           -4.7277    -2.4188    -3.5703 C.3     
  15 C15           -3.4359    -1.8681    -2.9606 C.3     
  16 C16            0.7210     3.3823     0.4348 C.ar    
  17 O17           -0.0738     5.5872     0.0318 O.3     
  18 C18           -0.5845     6.2126     1.1247 C.ar    
  19 C19           -1.1615     5.4694     2.1445 C.ar    
  20 C20           -0.5248     7.5952     1.2255 C.ar    
  21 C21           -1.0443     8.2285     2.3378 C.ar    
  22 C22           -1.6230     7.4859     3.3504 C.ar    
  23 C23           -1.6795     6.1076     3.2547 C.ar    
  24 H24           -2.8979    -0.1595    -0.5219 H       
  25 H25           -2.0600    -0.1440    -2.0922 H       
  26 H26           -1.0734    -2.3623    -1.5875 H       
  27 H27           -1.9114    -2.3777    -0.0172 H       
  28 H28            1.3029     1.3560     0.7268 H       
  29 H29           -2.1273     4.4121    -1.0868 H       
  30 H30           -2.4438     1.9892    -1.2790 H       
  31 H31           -2.2051    -4.2096    -2.5883 H       
  32 H32           -2.8612    -4.5111    -0.9605 H       
  33 H33           -4.2265    -5.6050    -2.7505 H       
  34 H34           -5.1587    -4.3938    -1.8366 H       
  35 H35           -4.9046    -1.9460    -4.5364 H       
  36 H36           -5.5636    -2.2087    -2.9030 H       
  37 H37           -3.5488    -0.8006    -2.7715 H       
  38 H38           -2.6090    -2.0305    -3.6519 H       
  39 H39            1.6047     3.7816     0.9103 H       
  40 H40           -1.2059     4.3928     2.0702 H       
  41 H41           -0.0722     8.1757     0.4351 H       
  42 H42           -0.9981     9.3046     2.4167 H       
  43 H43           -2.0280     7.9829     4.2195 H       
  44 H44           -2.1321     5.5299     4.0470 H       
@<TRIPOS>BOND
   1    1    2 1
   2    1    7 ar
   3    1   10 ar
   4    2    3 1
   5    2    6 2
   6    3    4 1
   7    3   24 1
   8    3   25 1
   9    4    5 1
  10    4   26 1
  11    4   27 1
  12    5   11 1
  13    5   15 1
  14    7   16 ar
  15    7   28 1
  16    8    9 ar
  17    8   17 1
  18    8   16 ar
  19    9   10 ar
  20    9   29 1
  21   10   30 1
  22   11   12 1
  23   11   31 1
  24   11   32 1
  25   12   13 1
  26   12   33 1
  27   12   34 1
  28   13   14 1
  29   14   15 1
  30   14   35 1
  31   14   36 1
  32   15   37 1
  33   15   38 1
  34   16   39 1
  35   17   18 1
  36   18   19 ar
  37   18   20 ar
  38   19   23 ar
  39   19   40 1
  40   20   21 ar
  41   20   41 1
  42   21   22 ar
  43   21   42 1
  44   22   23 ar
  45   22   43 1
  46   23   44 1

#	End of record

