#	Name: ASD04880485
#	Creating user name:	WinNT
#	Creation time:	15. 06. 2019 20:53

#	Modifying user name:	WinNT
#	Modification time:	15. 06. 2019 20:53

#	Program:	/corina/corina34_cracker 3.40 0067  02.08.2006

@<TRIPOS>MOLECULE
ASD04880485
  40   42    0    0    0
SMALL
NO_CHARGES


@<TRIPOS>ATOM
   1 C1             0.0098     1.4640     0.3589 C.2     
   2 C2             0.0251    -0.0067     0.2921 C.ar    
   3 C3             1.2479    -0.6958     0.2507 C.ar    
   4 C4             1.2547    -2.0774     0.1880 C.ar    
   5 C5             0.0464    -2.7774     0.1664 C.ar    
   6 C6            -1.1680    -2.0822     0.2076 C.ar    
   7 C7            -1.1785    -0.7196     0.2757 C.ar    
   8 O8             1.0559     2.0823     0.3781 O.2     
   9 O9            -1.1645     2.1248     0.3930 O.3     
  10 O10            2.4178    -0.0092     0.2716 O.3     
  11 C11            3.6219    -0.7775     0.2268 C.3     
  12 N12            0.8378    -6.3559    -0.0016 N.am    
  13 N13            1.1041    -4.9895     0.0578 N.2     
  14 C14            0.0497    -4.2491     0.0997 C.2     
  15 C15           -1.1831    -5.1240     0.0703 C.3     
  16 C16           -0.6198    -6.5573     0.0012 C.3     
  17 C17            1.7641    -7.3333    -0.0581 C.2     
  18 C18            3.1954    -6.9884    -0.1868 C.ar    
  19 C19            4.1673    -7.9869    -0.1018 C.ar    
  20 C20            5.5035    -7.6572    -0.2229 C.ar    
  21 C21            5.8782    -6.3387    -0.4283 C.ar    
  22 C22            4.9186    -5.3463    -0.5132 C.ar    
  23 C23            3.5806    -5.6637    -0.3995 C.ar    
  24 O24            1.4222    -8.4987    -0.0032 O.2     
  25 F25            6.4463    -8.6214    -0.1407 F       
  26 H26            2.1918    -2.6135     0.1556 H       
  27 H27           -2.1003    -2.6270     0.1903 H       
  28 H28           -2.1188    -0.1896     0.3124 H       
  29 H29           -1.1239     3.0900     0.4366 H       
  30 H30            4.4814    -0.1075     0.2496 H       
  31 H31            3.6589    -1.4454     1.0873 H       
  32 H32            3.6437    -1.3654    -0.6908 H       
  33 H33           -1.7705    -4.9874     0.9783 H       
  34 H34           -1.7851    -4.9068    -0.8120 H       
  35 H35           -0.9405    -7.0516    -0.9158 H       
  36 H36           -0.9259    -7.1322     0.8752 H       
  37 H37            3.8755    -9.0143     0.0586 H       
  38 H38            6.9238    -6.0852    -0.5222 H       
  39 H39            5.2171    -4.3208    -0.6730 H       
  40 H40            2.8328    -4.8878    -0.4709 H       
@<TRIPOS>BOND
   1    1    2 1
   2    1    8 2
   3    1    9 1
   4    2    3 ar
   5    2    7 ar
   6    3    4 ar
   7    3   10 1
   8    4    5 ar
   9    4   26 1
  10    5    6 ar
  11    5   14 1
  12    6    7 ar
  13    6   27 1
  14    7   28 1
  15    9   29 1
  16   10   11 1
  17   11   30 1
  18   11   31 1
  19   11   32 1
  20   12   13 1
  21   12   16 1
  22   12   17 am
  23   13   14 2
  24   14   15 1
  25   15   16 1
  26   15   33 1
  27   15   34 1
  28   16   35 1
  29   16   36 1
  30   17   18 1
  31   17   24 2
  32   18   19 ar
  33   18   23 ar
  34   19   20 ar
  35   19   37 1
  36   20   21 ar
  37   20   25 1
  38   21   22 ar
  39   21   38 1
  40   22   23 ar
  41   22   39 1
  42   23   40 1

#	End of record

