#	Name: ASD08710022
#	Creating user name:	WinNT
#	Creation time:	15. 06. 2019 21:19

#	Modifying user name:	WinNT
#	Modification time:	15. 06. 2019 21:19

#	Program:	/corina/corina34_cracker 3.40 0067  02.08.2006

@<TRIPOS>MOLECULE
ASD08710022
  43   45    0    0    0
SMALL
NO_CHARGES


@<TRIPOS>ATOM
   1 C1            -0.6627     2.1288     2.1512 C.ar    
   2 C2            -0.5827     0.8167     1.7243 C.ar    
   3 C3             0.4660     2.9289     2.1422 C.ar    
   4 C4             1.6741     2.4150     1.7059 C.ar    
   5 C5             1.7529     1.1027     1.2792 C.ar    
   6 C6             0.6248     0.3037     1.2884 C.ar    
   7 S7             0.7261    -1.3693     0.7448 S.o2    
   8 O8            -0.5858    -1.7415     0.3452 O.2     
   9 O9             1.8520    -1.4430    -0.1190 O.2     
  10 N10            1.0914    -2.2937     2.0693 N.am    
  11 C11            0.0267    -2.7856     2.9549 C.3     
  12 C12            2.4857    -2.6421     2.3768 C.3     
  13 C13            2.5973    -4.1679     2.4844 C.3     
  14 N14            1.5331    -4.6551     3.3731 N.am    
  15 C15            0.1435    -4.3112     3.0612 C.3     
  16 Cl16           0.3662     4.5772     2.6778 Cl      
  17 C17            1.8303    -5.4083     4.4505 C.2     
  18 O18            2.9901    -5.6456     4.7246 O.2     
  19 C19            0.7430    -5.9469     5.3007 C.ar    
  20 C20            1.0509    -6.5371     6.5240 C.ar    
  21 C21            0.0228    -7.0361     7.3087 C.ar    
  22 C22           -1.2775    -6.9273     6.8420 C.ar    
  23 C23           -1.5108    -6.3276     5.6144 C.ar    
  24 N24           -0.5170    -5.8581     4.8925 N.ar    
  25 C25           -1.3384    -2.4146     2.3719 C.3     
  26 H26           -1.6070     2.5307     2.4876 H       
  27 H27           -1.4636     0.1919     1.7316 H       
  28 H28            2.5554     3.0392     1.6983 H       
  29 H29            2.6959     0.7014     0.9385 H       
  30 H30            0.1365    -2.3380     3.9426 H       
  31 H31            3.1368    -2.2829     1.5798 H       
  32 H32            2.7764    -2.1863     3.3233 H       
  33 H33            2.4817    -4.6137     1.4965 H       
  34 H34            3.5699    -4.4353     2.8975 H       
  35 H35           -0.5094    -4.6687     3.8575 H       
  36 H36           -0.1436    -4.7705     2.1154 H       
  37 H37            2.0762    -6.6053     6.8565 H       
  38 H38            0.2305    -7.4995     8.2619 H       
  39 H39           -2.1011    -7.3064     7.4289 H       
  40 H40           -2.5229    -6.2411     5.2475 H       
  41 H41           -1.5441    -3.0391     1.5025 H       
  42 H42           -2.1104    -2.5741     3.1246 H       
  43 H43           -1.3331    -1.3663     2.0732 H       
@<TRIPOS>BOND
   1    1    2 ar
   2    1    3 ar
   3    1   26 1
   4    2    6 ar
   5    2   27 1
   6    3    4 ar
   7    3   16 1
   8    4    5 ar
   9    4   28 1
  10    5    6 ar
  11    5   29 1
  12    6    7 1
  13    7    8 2
  14    7    9 2
  15    7   10 am
  16   10   11 1
  17   10   12 1
  18   11   25 1
  19   11   15 1
  20   11   30 1
  21   12   13 1
  22   12   31 1
  23   12   32 1
  24   13   14 1
  25   13   33 1
  26   13   34 1
  27   14   15 1
  28   14   17 am
  29   15   35 1
  30   15   36 1
  31   17   18 2
  32   17   19 1
  33   19   20 ar
  34   19   24 ar
  35   20   21 ar
  36   20   37 1
  37   21   22 ar
  38   21   38 1
  39   22   23 ar
  40   22   39 1
  41   23   24 ar
  42   23   40 1
  43   25   41 1
  44   25   42 1
  45   25   43 1

#	End of record

