#	Name: ASD04590099
#	Creating user name:	WinNT
#	Creation time:	15. 06. 2019 20:50

#	Modifying user name:	WinNT
#	Modification time:	15. 06. 2019 20:50

#	Program:	/corina/corina34_cracker 3.40 0067  02.08.2006

@<TRIPOS>MOLECULE
ASD04590099
  48   50    0    0    0
SMALL
NO_CHARGES


@<TRIPOS>ATOM
   1 C1            -0.0172     1.4147     0.0098 C.2     
   2 C2             0.0021    -0.0041     0.0020 C.2     
   3 C3             1.2886     1.7938    -0.0006 C.2     
   4 N4             2.0329     0.6583    -0.0138 N.pl3   
   5 N5             1.2682    -0.3737    -0.0121 N.2     
   6 N6            -1.1446     2.2495     0.0200 N.am    
   7 C7            -0.9916     3.5885     0.0265 C.2     
   8 C8            -1.1720    -0.8970     0.0089 C.2     
   9 N9            -1.0019    -2.2339     0.0000 N.am    
  10 C10           -2.1680    -3.1207     0.0068 C.3     
  11 C11           -1.7897    -4.4683    -0.6141 C.3     
  12 C12           -2.9939    -5.4105    -0.5489 C.3     
  13 N13           -3.3992    -5.5927     0.8507 N.3     
  14 C14           -3.8121    -4.3192     1.4541 C.3     
  15 C15           -2.6324    -3.3444     1.4486 C.3     
  16 O16            0.1238     4.0731     0.0236 O.2     
  17 C17           -2.1772     4.4663     0.0372 C.ar    
  18 C18           -2.7486     4.8915    -1.1670 C.ar    
  19 C19           -3.8507     5.6963     1.2523 C.ar    
  20 C20           -4.4058     6.1166     0.0573 C.ar    
  21 C21           -3.8593     5.7140    -1.1478 C.ar    
  22 O22           -2.2933    -0.4268     0.0225 O.2     
  23 C23           -4.4638    -6.5985     0.9638 C.3     
  24 F24           -2.2161     4.4998    -2.3452 F       
  25 C25           -4.6857    -6.9428     2.4379 C.3     
  26 F26           -5.6996    -7.9007     2.5456 F       
  27 C27           -2.7400     4.8738     1.2516 C.ar    
  28 F28           -2.1996     4.4640     2.4200 F       
  29 H29            1.6630     2.8069     0.0013 H       
  30 H30            3.0025     0.6304    -0.0239 H       
  31 H31           -2.0342     1.8630     0.0223 H       
  32 H32           -0.1074    -2.6090    -0.0109 H       
  33 H33           -2.9739    -2.6672    -0.5702 H       
  34 H34           -1.4989    -4.3209    -1.6542 H       
  35 H35           -0.9571    -4.9029    -0.0609 H       
  36 H36           -3.8216    -4.9817    -1.1138 H       
  37 H37           -2.7234    -6.3756    -0.9773 H       
  38 H38           -4.6360    -3.8955     0.8798 H       
  39 H39           -4.1360    -4.4917     2.4804 H       
  40 H40           -1.8131    -3.7614     2.0343 H       
  41 H41           -2.9436    -2.3940     1.8823 H       
  42 H42           -4.2838     6.0154     2.1888 H       
  43 H43           -5.2739     6.7590     0.0651 H       
  44 H44           -4.3015     6.0434    -2.0764 H       
  45 H45           -5.3862    -6.2004     0.5408 H       
  46 H46           -4.1734    -7.4977     0.4204 H       
  47 H47           -3.7634    -7.3410     2.8609 H       
  48 H48           -4.9761    -6.0437     2.9813 H       
@<TRIPOS>BOND
   1    1    2 1
   2    1    3 2
   3    1    6 1
   4    2    8 1
   5    2    5 2
   6    3    4 1
   7    3   29 1
   8    4    5 1
   9    4   30 1
  10    6    7 am
  11    6   31 1
  12    7   16 2
  13    7   17 1
  14    8    9 am
  15    8   22 2
  16    9   10 1
  17    9   32 1
  18   10   11 1
  19   10   15 1
  20   10   33 1
  21   11   12 1
  22   11   34 1
  23   11   35 1
  24   12   13 1
  25   12   36 1
  26   12   37 1
  27   13   14 1
  28   13   23 1
  29   14   15 1
  30   14   38 1
  31   14   39 1
  32   15   40 1
  33   15   41 1
  34   17   18 ar
  35   17   27 ar
  36   18   24 1
  37   18   21 ar
  38   19   20 ar
  39   19   27 ar
  40   19   42 1
  41   20   21 ar
  42   20   43 1
  43   21   44 1
  44   23   25 1
  45   23   45 1
  46   23   46 1
  47   25   26 1
  48   25   47 1
  49   25   48 1
  50   27   28 1

#	End of record

