#	Name: ASD03090179
#	Creating user name:	WinNT
#	Creation time:	15. 06. 2019 20:28

#	Modifying user name:	WinNT
#	Modification time:	15. 06. 2019 20:28

#	Program:	/corina/corina34_cracker 3.40 0067  02.08.2006

@<TRIPOS>MOLECULE
ASD03090179
  45   47    0    0    0
SMALL
NO_CHARGES


@<TRIPOS>ATOM
   1 C1            -0.4275     1.5912    -1.8920 C.ar    
   2 C2            -0.3535     0.2141    -1.6822 C.ar    
   3 C3            -1.4580    -0.4527    -1.1850 C.ar    
   4 C4            -2.6136     0.2872    -0.9107 C.ar    
   5 C5            -2.6106     1.6657    -1.1474 C.ar    
   6 N6            -1.5395     2.2634    -1.6158 N.ar    
   7 C7            -3.8214    -0.3792    -0.3782 C.2     
   8 N8            -5.5372    -3.0297     1.1665 N.pl3   
   9 C9            -4.6052    -4.0237     1.4825 C.ar    
  10 C10           -4.9828    -5.3600     1.4694 C.ar    
  11 C11           -4.0614    -6.3411     1.7818 C.ar    
  12 C12           -2.7621    -5.9938     2.1078 C.ar    
  13 C13           -2.3818    -4.6599     2.1222 C.ar    
  14 C14           -3.2996    -3.6757     1.8042 C.ar    
  15 N15           -3.8660    -1.5719     0.1820 N.2     
  16 C16           -5.1181    -1.8524     0.5440 C.2     
  17 N17           -5.8942    -0.8428     0.2208 N.2     
  18 N18           -5.0743     0.1294    -0.3746 N.pl3   
  19 C19           -5.4945     1.4320    -0.8971 C.3     
  20 C20           -7.0218     1.5204    -0.8781 C.3     
  21 F21           -1.1131    -4.3227     2.4412 F       
  22 O22           -7.4876     1.4277     0.4697 O.3     
  23 C23           -7.4628     2.8565    -1.4793 C.3     
  24 C24            0.7495     2.3133    -2.4232 C.2     
  25 O25            0.6874     3.6431    -2.6291 O.3     
  26 O26            1.7717     1.7071    -2.6737 O.2     
  27 C27            1.8799     4.2855    -3.1521 C.3     
  28 F28           -1.8631    -6.9550     2.4128 F       
  29 H29            0.5554    -0.3248    -1.9057 H       
  30 H30           -1.4296    -1.5185    -1.0129 H       
  31 H31           -3.4978     2.2453    -0.9392 H       
  32 H32           -6.4746    -3.1583     1.3799 H       
  33 H33           -5.9965    -5.6323     1.2155 H       
  34 H34           -4.3556    -7.3802     1.7718 H       
  35 H35           -3.0041    -2.6370     1.8152 H       
  36 H36           -5.0769     2.2244    -0.2760 H       
  37 H37           -5.1366     1.5456    -1.9204 H       
  38 H38           -7.4404     0.7024    -1.4643 H       
  39 H39           -7.0966     2.0801     1.0667 H       
  40 H40           -7.1074     2.9273    -2.5073 H       
  41 H41           -8.5508     2.9195    -1.4658 H       
  42 H42           -7.0441     3.6745    -0.8931 H       
  43 H43            2.7075     4.1348    -2.4590 H       
  44 H44            2.1323     3.8509    -4.1193 H       
  45 H45            1.6951     5.3532    -3.2707 H       
@<TRIPOS>BOND
   1    1    2 ar
   2    1   24 1
   3    1    6 ar
   4    2    3 ar
   5    2   29 1
   6    3    4 ar
   7    3   30 1
   8    4    5 ar
   9    4    7 1
  10    5    6 ar
  11    5   31 1
  12    7   15 2
  13    7   18 1
  14    8    9 1
  15    8   16 1
  16    8   32 1
  17    9   10 ar
  18    9   14 ar
  19   10   11 ar
  20   10   33 1
  21   11   12 ar
  22   11   34 1
  23   12   13 ar
  24   12   28 1
  25   13   14 ar
  26   13   21 1
  27   14   35 1
  28   15   16 1
  29   16   17 2
  30   17   18 1
  31   18   19 1
  32   19   20 1
  33   19   36 1
  34   19   37 1
  35   20   22 1
  36   20   23 1
  37   20   38 1
  38   22   39 1
  39   23   40 1
  40   23   41 1
  41   23   42 1
  42   24   25 1
  43   24   26 2
  44   25   27 1
  45   27   43 1
  46   27   44 1
  47   27   45 1

#	End of record

