#	Name: ASD01882902
#	Creating user name:	WinNT
#	Creation time:	15. 06. 2019 19:45

#	Modifying user name:	WinNT
#	Modification time:	15. 06. 2019 19:45

#	Program:	/corina/corina34_cracker 3.40 0067  02.08.2006

@<TRIPOS>MOLECULE
ASD01882902
  62   66    0    0    0
SMALL
NO_CHARGES


@<TRIPOS>ATOM
   1 C1            -0.0145     1.3187    -0.0959 C.2     
   2 N2             0.0021    -0.0042    -0.0034 N.2     
   3 C3             1.1509    -0.6825     0.0856 C.2     
   4 C4             2.3821     0.0206     0.0815 C.2     
   5 C5             2.3523     1.3664    -0.0131 C.2     
   6 N6             1.1498     2.0100    -0.1015 N.pl3   
   7 O7            -1.0961     2.1218    -0.1966 O.3     
   8 C8             0.8570     3.4491    -0.2121 C.3     
   9 C9            -0.6789     3.5114    -0.2757 C.3     
  10 O10            1.1397    -1.9010     0.1702 O.2     
  11 C11           -1.1314     4.1317    -1.5990 C.3     
  12 O12           -2.5582     4.2056    -1.6272 O.3     
  13 C13           -3.1267     4.7361    -2.7418 C.ar    
  14 C14           -4.5070     4.8382    -2.8364 C.ar    
  15 C15           -5.0824     5.3778    -3.9705 C.ar    
  16 C16           -4.2838     5.8160    -5.0107 C.ar    
  17 C17           -2.9079     5.7150    -4.9190 C.ar    
  18 C18           -2.3274     5.1818    -3.7845 C.ar    
  19 C19           -4.9142     6.4043    -6.2467 C.3     
  20 C20           -4.4243     7.8415    -6.4343 C.3     
  21 C21           -5.0643     8.4388    -7.6891 C.3     
  22 C22           -4.6718     7.6028    -8.9090 C.3     
  23 C23           -5.1616     6.1656    -8.7214 C.3     
  24 C24           -4.5216     5.5683    -7.4665 C.3     
  25 C25            3.6366     2.1548    -0.0206 C.3     
  26 C26            3.7404     2.9482    -1.3247 C.3     
  27 C27            5.0443     3.7485    -1.3324 C.3     
  28 C28            5.0571     4.7141    -0.1456 C.3     
  29 C29            4.9533     3.9207     1.1585 C.3     
  30 C30            3.6493     3.1203     1.1662 C.3     
  31 H31            3.3212    -0.5081     0.1527 H       
  32 H32            1.2274     3.9829     0.6631 H       
  33 H33            1.2924     3.8589    -1.1236 H       
  34 H34           -1.0756     4.0772     0.5673 H       
  35 H35           -0.7138     5.1343    -1.6919 H       
  36 H36           -0.7831     3.5148    -2.4274 H       
  37 H37           -5.1312     4.4958    -2.0243 H       
  38 H38           -6.1569     5.4572    -4.0448 H       
  39 H39           -2.2863     6.0573    -5.7332 H       
  40 H40           -1.2525     5.1075    -3.7113 H       
  41 H41           -5.9987     6.4013    -6.1380 H       
  42 H42           -4.7040     8.4371    -5.5652 H       
  43 H43           -3.3398     7.8445    -6.5430 H       
  44 H44           -6.1488     8.4358    -7.5804 H       
  45 H45           -4.7153     9.4627    -7.8228 H       
  46 H46           -5.1277     8.0283    -9.8030 H       
  47 H47           -3.5872     7.6058    -9.0177 H       
  48 H48           -6.2462     6.1626    -8.6127 H       
  49 H49           -4.8820     5.5701    -9.5904 H       
  50 H50           -3.4371     5.5713    -7.5753 H       
  51 H51           -4.8706     4.5444    -7.3329 H       
  52 H52            4.4826     1.4719     0.0575 H       
  53 H53            3.7314     2.2603    -2.1702 H       
  54 H54            2.8945     3.6311    -1.4028 H       
  55 H55            5.8903     3.0656    -1.2542 H       
  56 H56            5.1183     4.3138    -2.2614 H       
  57 H57            5.9860     5.2843    -0.1510 H       
  58 H58            4.2111     5.3970    -0.2237 H       
  59 H59            5.7992     3.2378     1.2366 H       
  60 H60            4.9623     4.6086     2.0040 H       
  61 H61            2.8034     3.8032     1.0880 H       
  62 H62            3.5754     2.5551     2.0952 H       
@<TRIPOS>BOND
   1    1    2 2
   2    1    6 1
   3    1    7 1
   4    2    3 1
   5    3    4 1
   6    3   10 2
   7    4    5 2
   8    4   31 1
   9    5    6 1
  10    5   25 1
  11    6    8 1
  12    7    9 1
  13    8    9 1
  14    8   32 1
  15    8   33 1
  16    9   11 1
  17    9   34 1
  18   11   12 1
  19   11   35 1
  20   11   36 1
  21   12   13 1
  22   13   14 ar
  23   13   18 ar
  24   14   15 ar
  25   14   37 1
  26   15   16 ar
  27   15   38 1
  28   16   17 ar
  29   16   19 1
  30   17   18 ar
  31   17   39 1
  32   18   40 1
  33   19   20 1
  34   19   24 1
  35   19   41 1
  36   20   21 1
  37   20   42 1
  38   20   43 1
  39   21   22 1
  40   21   44 1
  41   21   45 1
  42   22   23 1
  43   22   46 1
  44   22   47 1
  45   23   24 1
  46   23   48 1
  47   23   49 1
  48   24   50 1
  49   24   51 1
  50   25   26 1
  51   25   30 1
  52   25   52 1
  53   26   27 1
  54   26   53 1
  55   26   54 1
  56   27   28 1
  57   27   55 1
  58   27   56 1
  59   28   29 1
  60   28   57 1
  61   28   58 1
  62   29   30 1
  63   29   59 1
  64   29   60 1
  65   30   61 1
  66   30   62 1

#	End of record

