#	Name: ASD01640002
#	Creating user name:	WinNT
#	Creation time:	15. 06. 2019 19:22

#	Modifying user name:	WinNT
#	Modification time:	15. 06. 2019 19:22

#	Program:	/corina/corina34_cracker 3.40 0067  02.08.2006

@<TRIPOS>MOLECULE
ASD01640002
  49   49    0    0    0
SMALL
NO_CHARGES


@<TRIPOS>ATOM
   1 C1            -0.0143     1.2041     0.0087 C.2     
   2 O2             0.0021    -0.0041     0.0020 O.2     
   3 O3             1.1389     1.8910     0.0013 O.3     
   4 C4             1.0432     3.3398     0.0100 C.3     
   5 C5             2.4489     3.9438    -0.0001 C.3     
   6 C6             2.3515     5.4647     0.1347 C.3     
   7 O7             3.6645     6.0184     0.2423 O.3     
   8 P8             3.9403     7.5969     0.3985 P.3     
   9 O9             3.1878     8.1164     1.5622 O.2     
  10 O10            5.5149     7.8469     0.6226 O.3     
  11 C11            6.0668     9.1359     0.8984 C.3     
  12 C12            6.7816     9.1059     2.2509 C.3     
  13 C13            7.3724    10.4860     2.5462 C.3     
  14 C14            8.3720    10.8581     1.4492 C.3     
  15 C15            7.6572    10.8881     0.0968 C.3     
  16 C16            7.0663     9.5080    -0.1985 C.3     
  17 O17            8.9238    12.1471     1.7250 O.3     
  18 P18           10.4984    12.3971     1.9491 P.3     
  19 O19           10.9904    11.5097     3.0265 O.2     
  20 O20           11.2922    12.0766     0.5855 O.3     
  21 O21           10.7441    13.9330     2.3648 O.3     
  22 O22            8.1156     8.5387    -0.2357 O.3     
  23 O23            6.6079    11.8575     0.1339 O.3     
  24 O24            6.3232    11.4553     2.5833 O.3     
  25 O25            5.8480     8.7583     3.2754 O.3     
  26 O26            3.4602     8.3602    -0.9352 O.3     
  27 O27            3.1101     3.6099    -1.2490 O.3     
  28 C28            3.8203     2.4712    -1.2772 C.2     
  29 O29            4.3926     2.1410    -2.2888 O.2     
  30 H30           -0.9568     1.7313     0.0160 H       
  31 H31            0.4981     3.6732    -0.8730 H       
  32 H32            0.5151     3.6637     0.9069 H       
  33 H33            3.0235     3.5411     0.8341 H       
  34 H34            1.8545     5.8762    -0.7438 H       
  35 H35            1.7777     5.7143     1.0271 H       
  36 H36            5.2665     9.8753     0.9268 H       
  37 H37            7.5819     8.3665     2.2225 H       
  38 H38            7.8816    10.4646     3.5097 H       
  39 H39            9.1723    10.1187     1.4209 H       
  40 H40            8.3693    11.1532    -0.6847 H       
  41 H41            6.5571     9.5294    -1.1620 H       
  42 H42           11.0206    12.6223    -0.1652 H       
  43 H43           11.6729    14.1558     2.5161 H       
  44 H44            8.7872     8.7116    -0.9096 H       
  45 H45            6.1108    11.9308    -0.6922 H       
  46 H46            5.6516    11.2824     3.2572 H       
  47 H47            6.2328     8.7202     4.1617 H       
  48 H48            3.9125     8.0697    -1.7391 H       
  49 H49            3.8801     1.8502    -0.3956 H       
@<TRIPOS>BOND
   1    1    2 2
   2    1    3 1
   3    1   30 1
   4    3    4 1
   5    4    5 1
   6    4   31 1
   7    4   32 1
   8    5    6 1
   9    5   27 1
  10    5   33 1
  11    6    7 1
  12    6   34 1
  13    6   35 1
  14    7    8 1
  15    8    9 2
  16    8   10 1
  17    8   26 1
  18   10   11 1
  19   11   12 1
  20   11   16 1
  21   11   36 1
  22   12   13 1
  23   12   25 1
  24   12   37 1
  25   13   14 1
  26   13   24 1
  27   13   38 1
  28   14   15 1
  29   14   17 1
  30   14   39 1
  31   15   16 1
  32   15   23 1
  33   15   40 1
  34   16   22 1
  35   16   41 1
  36   17   18 1
  37   18   19 2
  38   18   20 1
  39   18   21 1
  40   20   42 1
  41   21   43 1
  42   22   44 1
  43   23   45 1
  44   24   46 1
  45   25   47 1
  46   26   48 1
  47   27   28 1
  48   28   29 2
  49   28   49 1

#	End of record

