#	Name: ASD01916127
#	Creating user name:	WinNT
#	Creation time:	15. 06. 2019 20:06

#	Modifying user name:	WinNT
#	Modification time:	15. 06. 2019 20:06

#	Program:	/corina/corina34_cracker 3.40 0067  02.08.2006

@<TRIPOS>MOLECULE
ASD01916127
  44   47    0    0    0
SMALL
NO_CHARGES


@<TRIPOS>ATOM
   1 C1            -1.6269     0.1144     3.5781 C.ar    
   2 C2            -1.4048    -1.1637     3.1033 C.ar    
   3 C3            -0.1069    -1.6255     2.9388 C.ar    
   4 C4             0.9647    -0.8019     3.2517 C.ar    
   5 C5             0.7373     0.4754     3.7261 C.ar    
   6 C6            -0.5572     0.9332     3.8892 C.ar    
   7 O7             0.1142    -2.8826     2.4724 O.3     
   8 C8             1.4761    -3.2908     2.3281 C.3     
   9 C9             1.5244    -4.7026     1.8032 C.2     
  10 C10            0.4163    -5.5036     1.4990 C.2     
  11 N11            2.6101    -5.3898     1.5475 N.2     
  12 N12            2.2283    -6.6483     1.0748 N.pl3   
  13 C13            0.8759    -6.6908     1.0606 C.2     
  14 C14            3.1064    -7.7429     0.6524 C.3     
  15 C15            2.3149    -9.0552     0.6547 C.3     
  16 N16            1.0158    -8.8385    -0.0002 N.am    
  17 C17            0.0727    -7.8931     0.6242 C.3     
  18 C18            0.6971    -9.4825    -1.1404 C.2     
  19 C19           -0.6555    -9.3422    -1.7137 C.ar    
  20 O20            1.5239   -10.1791    -1.6967 O.2     
  21 C21           -1.7776    -9.3882    -0.8831 C.ar    
  22 C22           -3.0382    -9.2567    -1.4235 C.ar    
  23 C23           -3.1962    -9.0793    -2.7902 C.ar    
  24 C24           -2.0887    -9.0325    -3.6213 C.ar    
  25 C25           -0.8190    -9.1568    -3.0911 C.ar    
  26 F26            0.2610    -9.1107    -3.9014 F       
  27 F27           -4.4354    -8.9520    -3.3130 F       
  28 H28           -2.6371     0.4759     3.7021 H       
  29 H29           -2.2407    -1.8031     2.8608 H       
  30 H30            1.9760    -1.1592     3.1248 H       
  31 H31            1.5712     1.1168     3.9702 H       
  32 H32           -0.7329     1.9322     4.2603 H       
  33 H33            1.9827    -2.6256     1.6288 H       
  34 H34            1.9733    -3.2463     3.2971 H       
  35 H35           -0.6210    -5.2197     1.5983 H       
  36 H36            3.4785    -7.5439    -0.3526 H       
  37 H37            3.9461    -7.8231     1.3429 H       
  38 H38            2.8733    -9.8181     0.1122 H       
  39 H39            2.1546    -9.3819     1.6821 H       
  40 H40           -0.3991    -8.3563     1.4908 H       
  41 H41           -0.6867    -7.5937    -0.0982 H       
  42 H42           -1.6573    -9.5270     0.1812 H       
  43 H43           -3.9057    -9.2923    -0.7813 H       
  44 H44           -2.2180    -8.8945    -4.6846 H       
@<TRIPOS>BOND
   1    1    2 ar
   2    1    6 ar
   3    1   28 1
   4    2    3 ar
   5    2   29 1
   6    3    4 ar
   7    3    7 1
   8    4    5 ar
   9    4   30 1
  10    5    6 ar
  11    5   31 1
  12    6   32 1
  13    7    8 1
  14    8    9 1
  15    8   33 1
  16    8   34 1
  17    9   10 1
  18    9   11 2
  19   10   13 2
  20   10   35 1
  21   11   12 1
  22   12   13 1
  23   12   14 1
  24   13   17 1
  25   14   15 1
  26   14   36 1
  27   14   37 1
  28   15   16 1
  29   15   38 1
  30   15   39 1
  31   16   17 1
  32   16   18 am
  33   17   40 1
  34   17   41 1
  35   18   19 1
  36   18   20 2
  37   19   21 ar
  38   19   25 ar
  39   21   22 ar
  40   21   42 1
  41   22   23 ar
  42   22   43 1
  43   23   24 ar
  44   23   27 1
  45   24   25 ar
  46   24   44 1
  47   25   26 1

#	End of record

