#	Name: ASD00844710
#	Creating user name:	WinNT
#	Creation time:	15. 06. 2019 18:50

#	Modifying user name:	WinNT
#	Modification time:	15. 06. 2019 18:50

#	Program:	/corina/corina34_cracker 3.40 0067  02.08.2006

@<TRIPOS>MOLECULE
ASD00844710
  98  103    0    0    0
SMALL
NO_CHARGES


@<TRIPOS>ATOM
   1 C1             0.5914     1.2993    -0.7081 C.ar    
   2 C2             0.8927    -0.0408    -0.9017 C.ar    
   3 C3             0.8172    -0.9272     0.1631 C.ar    
   4 C4             0.4424    -0.4735     1.4127 C.ar    
   5 C5             0.1421     0.8629     1.6029 C.ar    
   6 C6             0.2170     1.7482     0.5438 C.ar    
   7 C7             1.1433    -2.3839    -0.0438 C.3     
   8 C8             0.8637    -3.1745     1.2165 C.2     
   9 C9             0.3443    -2.9492    -1.2199 C.3     
  10 C10           -1.1240    -2.6911    -0.9999 C.2     
  11 N11           -2.0285    -3.1429    -1.8911 N.am    
  12 O12           -1.4918    -2.0769    -0.0209 O.2     
  13 C13           -3.4501    -2.7971    -1.7556 C.3     
  14 C14           -4.2746    -4.0882    -1.7646 C.3     
  15 C15           -3.9407    -4.8932    -3.0226 C.3     
  16 C16           -2.4568    -5.2678    -3.0116 C.3     
  17 C17           -1.6109    -3.9855    -3.0199 C.3     
  18 N18           -4.7539    -6.1162    -3.0512 N.3     
  19 C19           -4.5473    -6.8569    -4.3035 C.3     
  20 C20           -5.3485    -8.1603    -4.2603 C.3     
  21 N21           -6.7716    -7.8511    -4.0633 N.3     
  22 C22           -6.9782    -7.1104    -2.8110 C.3     
  23 C23           -6.1770    -5.8071    -2.8541 C.3     
  24 C24           -7.5849    -9.0741    -4.0919 C.3     
  25 O25           -0.2115    -3.3014     1.7633 O.2     
  26 N26            2.0293    -3.7099     1.6154 N.am    
  27 C27            2.6268    -2.5679    -0.2699 C.ar    
  28 C28            3.0828    -3.3757     0.7690 C.ar    
  29 C29            3.4847    -2.1075    -1.2363 C.ar    
  30 C30            4.8405    -2.4506    -1.1842 C.ar    
  31 C31            5.3061    -3.2623    -0.1427 C.ar    
  32 C32            4.4337    -3.7196     0.8216 C.ar    
  33 F33            6.6131    -3.5991    -0.0835 F       
  34 C34            1.9357    -6.3280     2.4586 C.ar    
  35 C35            0.6935    -6.7260     1.9869 C.ar    
  36 C36            2.9715    -7.2397     2.5280 C.ar    
  37 C37            2.7708    -8.5475     2.1274 C.ar    
  38 C38            1.5333    -8.9468     1.6567 C.ar    
  39 C39            0.4944    -8.0393     1.5858 C.ar    
  40 H40            1.3790    -9.9690     1.3443 H       
  41 O41           -0.3271    -5.8312     1.9181 O.3     
  42 C42           -1.5784    -6.3112     1.4223 C.3     
  43 C43           -2.5972    -5.1697     1.4184 C.3     
  44 C44           -9.0380    -8.7282    -3.7605 C.3     
  45 C45           -7.5150    -9.7006    -5.4860 C.3     
  46 S46            2.1945    -4.6594     2.9621 S.o2    
  47 O47            3.5570    -4.5655     3.3546 O.2     
  48 O48            1.1132    -4.3275     3.8222 O.2     
  49 O49            1.2607    -0.4848    -2.1323 O.3     
  50 C50            1.2284     0.4636    -3.2006 C.3     
  51 C51            1.7425    -0.1945    -4.4826 C.3     
  52 F52            3.0234    -0.7112    -4.2603 F       
  53 F53            0.8793    -1.2313    -4.8530 F       
  54 C54            5.7443    -1.9756    -2.1883 C.1     
  55 N55            6.4612    -1.5988    -2.9849 N.1     
  56 H56            0.6538     1.9921    -1.5343 H       
  57 H57            0.3835    -1.1631     2.2417 H       
  58 H58           -0.1514     1.2155     2.5806 H       
  59 H59           -0.0180     2.7914     0.6950 H       
  60 H60            0.6641    -2.4650    -2.1425 H       
  61 H61            0.5174    -4.0228    -1.2941 H       
  62 H62           -3.6096    -2.2682    -0.8160 H       
  63 H63           -3.7532    -2.1641    -2.5896 H       
  64 H64           -4.0352    -4.6789    -0.8804 H       
  65 H65           -5.3364    -3.8418    -1.7616 H       
  66 H66           -4.1571    -4.2927    -3.9061 H       
  67 H67           -2.2345    -5.8474    -2.1157 H       
  68 H68           -2.2248    -5.8610    -3.8961 H       
  69 H69           -1.7653    -3.4519    -3.9578 H       
  70 H70           -0.5570    -4.2422    -2.9124 H       
  71 H71           -4.8842    -6.2507    -5.1444 H       
  72 H72           -3.4879    -7.0850    -4.4205 H       
  73 H73           -5.2198    -8.6976    -5.1999 H       
  74 H74           -4.9932    -8.7785    -3.4359 H       
  75 H75           -8.0377    -6.8823    -2.6939 H       
  76 H76           -6.6414    -7.7167    -1.9701 H       
  77 H77           -6.3058    -5.2698    -1.9146 H       
  78 H78           -6.5324    -5.1889    -3.6786 H       
  79 H79           -7.2030    -9.7817    -3.3560 H       
  80 H80            3.1148    -1.4823    -2.0355 H       
  81 H81            4.7981    -4.3456     1.6227 H       
  82 H82            3.9389    -6.9304     2.8952 H       
  83 H83            3.5819    -9.2585     2.1817 H       
  84 H84           -0.4720    -8.3518     1.2188 H       
  85 H85           -1.4476    -6.6849     0.4067 H       
  86 H86           -1.9379    -7.1169     2.0624 H       
  87 H87           -2.7280    -4.7960     2.4339 H       
  88 H88           -2.2377    -4.3641     0.7783 H       
  89 H89           -3.5516    -5.5358     1.0402 H       
  90 H90           -9.4199    -8.0206    -4.4964 H       
  91 H91           -9.6414    -9.6356    -3.7817 H       
  92 H92           -9.0878    -8.2819    -2.7673 H       
  93 H93           -6.4798    -9.9470    -5.7221 H       
  94 H94           -8.1185   -10.6081    -5.5072 H       
  95 H95           -7.8970    -8.9930    -6.2219 H       
  96 H96            0.2044     0.8048    -3.3528 H       
  97 H97            1.8616     1.3148    -2.9501 H       
  98 H98            1.7832     0.5469    -5.2806 H       
@<TRIPOS>BOND
   1    1    2 ar
   2    1    6 ar
   3    1   56 1
   4    2    3 ar
   5    2   49 1
   6    3    4 ar
   7    3    7 1
   8    4    5 ar
   9    4   57 1
  10    5    6 ar
  11    5   58 1
  12    6   59 1
  13    7    8 1
  14    7    9 1
  15    7   27 1
  16    8   25 2
  17    8   26 am
  18    9   10 1
  19    9   60 1
  20    9   61 1
  21   10   11 am
  22   10   12 2
  23   11   13 1
  24   11   17 1
  25   13   14 1
  26   13   62 1
  27   13   63 1
  28   14   15 1
  29   14   64 1
  30   14   65 1
  31   15   16 1
  32   15   18 1
  33   15   66 1
  34   16   17 1
  35   16   67 1
  36   16   68 1
  37   17   69 1
  38   17   70 1
  39   18   19 1
  40   18   23 1
  41   19   20 1
  42   19   71 1
  43   19   72 1
  44   20   21 1
  45   20   73 1
  46   20   74 1
  47   21   22 1
  48   21   24 1
  49   22   23 1
  50   22   75 1
  51   22   76 1
  52   23   77 1
  53   23   78 1
  54   24   44 1
  55   24   45 1
  56   24   79 1
  57   26   46 am
  58   26   28 1
  59   27   28 ar
  60   27   29 ar
  61   28   32 ar
  62   29   30 ar
  63   29   80 1
  64   30   31 ar
  65   30   54 1
  66   31   32 ar
  67   31   33 1
  68   32   81 1
  69   34   35 ar
  70   34   36 ar
  71   34   46 1
  72   35   41 1
  73   35   39 ar
  74   36   37 ar
  75   36   82 1
  76   37   38 ar
  77   37   83 1
  78   38   39 ar
  79   38   40 1
  80   39   84 1
  81   41   42 1
  82   42   43 1
  83   42   85 1
  84   42   86 1
  85   43   87 1
  86   43   88 1
  87   43   89 1
  88   44   90 1
  89   44   91 1
  90   44   92 1
  91   45   93 1
  92   45   94 1
  93   45   95 1
  94   46   47 2
  95   46   48 2
  96   49   50 1
  97   50   51 1
  98   50   96 1
  99   50   97 1
 100   51   52 1
 101   51   53 1
 102   51   98 1
 103   54   55 3

#	End of record

