#	Name: ASD01812966
#	Creating user name:	WinNT
#	Creation time:	15. 06. 2019 19:29

#	Modifying user name:	WinNT
#	Modification time:	15. 06. 2019 19:29

#	Program:	/corina/corina34_cracker 3.40 0067  02.08.2006

@<TRIPOS>MOLECULE
ASD01812966
  50   54    0    0    0
SMALL
NO_CHARGES


@<TRIPOS>ATOM
   1 C1             0.0876     1.3251    -0.1247 C.ar    
   2 C2             0.1696    -0.0530    -0.1212 C.ar    
   3 C3             1.3982    -0.6803     0.0206 C.ar    
   4 C4             2.5424     0.0677     0.1582 C.ar    
   5 C5             2.4783     1.4644     0.1564 C.ar    
   6 C6             1.2342     2.0939     0.0133 C.ar    
   7 C7             3.9978    -0.2910     0.3269 C.3     
   8 N8             4.7251     0.9803     0.4171 N.am    
   9 C9             3.8438     1.9904     0.3182 C.2     
  10 C10            6.1730     1.1248     0.5875 C.3     
  11 C11            6.8349     1.1799    -0.7652 C.ar    
  12 O12            1.1517     3.4479     0.0092 O.3     
  13 O13            4.1331     3.1707     0.3572 O.2     
  14 C14            7.0200     2.3976    -1.3938 C.ar    
  15 C15            7.6264     2.4513    -2.6336 C.ar    
  16 C16            8.0502     1.2810    -3.2488 C.ar    
  17 C17            7.8629     0.0599    -2.6152 C.ar    
  18 C18            7.2610     0.0132    -1.3729 C.ar    
  19 N19            8.9161     2.4893    -5.2560 N.2     
  20 N20            8.6655     1.3322    -4.5073 N.pl3   
  21 C21            9.1229     0.2734    -5.2132 C.2     
  22 C22            9.6453     0.7440    -6.3693 C.2     
  23 C23            9.5031     2.1360    -6.3711 C.2     
  24 C24            1.3391     4.0941    -1.1695 C.ar    
  25 N25            1.6318     3.4015    -2.2570 N.ar    
  26 C26            1.8215     3.9897    -3.4231 C.ar    
  27 C27            1.7207     5.3605    -3.5499 C.ar    
  28 C28            1.4150     6.1258    -2.4326 C.ar    
  29 C29            1.2158     5.4790    -1.2236 C.ar    
  30 C30            1.9407     6.0197    -4.8871 C.3     
  31 F31            0.9112     6.1836    -0.1119 F       
  32 F32            2.2331     5.0435    -5.8457 F       
  33 F33            0.7834     6.7102    -5.2627 F       
  34 F34            3.0098     6.9172    -4.7944 F       
  35 H35           -0.8723     1.8066    -0.2397 H       
  36 H36           -0.7271    -0.6452    -0.2290 H       
  37 H37            1.4557    -1.7588     0.0233 H       
  38 H38            4.1379    -0.8685     1.2406 H       
  39 H39            4.3455    -0.8613    -0.5345 H       
  40 H40            6.3846     2.0443     1.1332 H       
  41 H41            6.5598     0.2731     1.1469 H       
  42 H42            6.6898     3.3076    -0.9149 H       
  43 H43            7.7704     3.4026    -3.1242 H       
  44 H44            8.1912    -0.8522    -3.0914 H       
  45 H45            7.1194    -0.9360    -0.8774 H       
  46 H46            9.0795    -0.7619    -4.9087 H       
  47 H47           10.0933     0.1501    -7.1523 H       
  48 H48            9.8226     2.8039    -7.1574 H       
  49 H49            2.0591     3.3906    -4.2897 H       
  50 H50            1.3304     7.2000    -2.5050 H       
@<TRIPOS>BOND
   1    1    2 ar
   2    1    6 ar
   3    1   35 1
   4    2    3 ar
   5    2   36 1
   6    3    4 ar
   7    3   37 1
   8    4    7 1
   9    4    5 ar
  10    5    6 ar
  11    5    9 1
  12    6   12 1
  13    7    8 1
  14    7   38 1
  15    7   39 1
  16    8    9 am
  17    8   10 1
  18    9   13 2
  19   10   11 1
  20   10   40 1
  21   10   41 1
  22   11   14 ar
  23   11   18 ar
  24   12   24 1
  25   14   15 ar
  26   14   42 1
  27   15   16 ar
  28   15   43 1
  29   16   17 ar
  30   16   20 1
  31   17   18 ar
  32   17   44 1
  33   18   45 1
  34   19   20 1
  35   19   23 2
  36   20   21 1
  37   21   22 2
  38   21   46 1
  39   22   23 1
  40   22   47 1
  41   23   48 1
  42   24   25 ar
  43   24   29 ar
  44   25   26 ar
  45   26   27 ar
  46   26   49 1
  47   27   28 ar
  48   27   30 1
  49   28   29 ar
  50   28   50 1
  51   29   31 1
  52   30   32 1
  53   30   33 1
  54   30   34 1

#	End of record

