#	Name: ASD04560114
#	Creating user name:	WinNT
#	Creation time:	15. 06. 2019 20:49

#	Modifying user name:	WinNT
#	Modification time:	15. 06. 2019 20:49

#	Program:	/corina/corina34_cracker 3.40 0067  02.08.2006

@<TRIPOS>MOLECULE
ASD04560114
  70   73    0    0    0
SMALL
NO_CHARGES


@<TRIPOS>ATOM
   1 C1             0.8230     1.1703    -1.2200 C.ar    
   2 C2             0.6621    -0.1833    -1.0742 C.ar    
   3 C3             1.7745    -1.0037    -0.9018 C.ar    
   4 C4             3.0533    -0.4518    -0.8769 C.ar    
   5 C5             3.2204     0.9011    -1.0217 C.ar    
   6 C6             2.1055     1.7273    -1.1954 C.ar    
   7 C7             2.2819     3.1828    -1.3519 C.2     
   8 O8             3.3978     3.6659    -1.3300 O.2     
   9 N9             1.2065     3.9778    -1.5193 N.am    
  10 C10            1.3635     5.3679    -1.5602 C.ar    
  11 C11            0.5394     6.1372    -2.3711 C.ar    
  12 C12            2.4928     7.3525    -0.8271 C.ar    
  13 C13            2.3399     5.9805    -0.7856 C.ar    
  14 S14            1.5637    -2.7430    -0.7142 S.3     
  15 C15            0.6958     7.5089    -2.4096 C.ar    
  16 C16            1.6737     8.1171    -1.6407 C.ar    
  17 F17            1.8250     9.4591    -1.6799 F       
  18 C18            3.2655    -3.3424    -0.5266 C.3     
  19 C19            3.2545    -4.8394    -0.3533 C.2     
  20 C20            4.5207    -5.5695    -0.1807 C.ar    
  21 O21            2.2025    -5.4424    -0.3561 O.2     
  22 C22            4.5130    -6.9437     0.0800 C.ar    
  23 C23            5.7049    -7.6111     0.2414 C.ar    
  24 C24            6.9177    -6.9357     0.1487 C.ar    
  25 C25            6.9333    -5.5822    -0.1142 C.ar    
  26 C26            5.7398    -4.8981    -0.2814 C.ar    
  27 C27            8.1788    -7.7347     0.3530 C.3     
  28 C28            9.3875    -6.9821    -0.1990 C.3     
  29 C29            9.3784    -5.5617     0.3780 C.3     
  30 C30            8.2123    -4.7966    -0.2442 C.3     
  31 C31            8.5043    -4.5495    -1.7256 C.3     
  32 C32            8.0532    -3.4522     0.4688 C.3     
  33 C33            8.3806    -7.9850     1.8489 C.3     
  34 C34            8.0479    -9.0773    -0.3689 C.3     
  35 C35            3.2070    -7.6884     0.1840 C.3     
  36 C36            2.7199    -8.0619    -1.2175 C.3     
  37 H37           -0.0396     1.8054    -1.3581 H       
  38 H38           -0.3282    -0.6139    -1.0928 H       
  39 H39            3.9140    -1.0904    -0.7430 H       
  40 H40            4.2120     1.3285    -1.0016 H       
  41 H41            0.3237     3.5865    -1.6114 H       
  42 H42           -0.2230     5.6631    -2.9714 H       
  43 H43            3.2521     7.8292    -0.2249 H       
  44 H44            2.9789     5.3845    -0.1510 H       
  45 H45            0.0550     8.1075    -3.0401 H       
  46 H46            3.8418    -3.0837    -1.4148 H       
  47 H47            3.7196    -2.8786     0.3491 H       
  48 H48            5.6992    -8.6722     0.4429 H       
  49 H49            5.7530    -3.8371    -0.4828 H       
  50 H50           10.3041    -7.4925     0.0968 H       
  51 H51            9.3265    -6.9369    -1.2863 H       
  52 H52            9.2529    -5.6058     1.4599 H       
  53 H53           10.3162    -5.0614     0.1368 H       
  54 H54            8.6281    -5.5047    -2.2358 H       
  55 H55            7.6740    -4.0034    -2.1734 H       
  56 H56            9.4187    -3.9643    -1.8231 H       
  57 H57            8.9700    -2.8726     0.3602 H       
  58 H58            7.2217    -2.9030     0.0273 H       
  59 H59            7.8548    -3.6234     1.5268 H       
  60 H60            7.5288    -8.5396     2.2426 H       
  61 H61            9.2921    -8.5629     2.0009 H       
  62 H62            8.4644    -7.0306     2.3689 H       
  63 H63            7.8940    -8.9037    -1.4339 H       
  64 H64            8.9585    -9.6584    -0.2234 H       
  65 H65            7.1979    -9.6263     0.0363 H       
  66 H66            3.3513    -8.5948     0.7720 H       
  67 H67            2.4650    -7.0546     0.6696 H       
  68 H68            1.7752    -8.6005    -1.1422 H       
  69 H69            2.5755    -7.1556    -1.8055 H       
  70 H70            3.4618    -8.6957    -1.7031 H       
@<TRIPOS>BOND
   1    1    2 ar
   2    1    6 ar
   3    1   37 1
   4    2    3 ar
   5    2   38 1
   6    3    4 ar
   7    3   14 1
   8    4    5 ar
   9    4   39 1
  10    5    6 ar
  11    5   40 1
  12    6    7 1
  13    7    8 2
  14    7    9 am
  15    9   10 1
  16    9   41 1
  17   10   11 ar
  18   10   13 ar
  19   11   15 ar
  20   11   42 1
  21   12   13 ar
  22   12   16 ar
  23   12   43 1
  24   13   44 1
  25   14   18 1
  26   15   16 ar
  27   15   45 1
  28   16   17 1
  29   18   19 1
  30   18   46 1
  31   18   47 1
  32   19   20 1
  33   19   21 2
  34   20   22 ar
  35   20   26 ar
  36   22   23 ar
  37   22   35 1
  38   23   24 ar
  39   23   48 1
  40   24   25 ar
  41   24   27 1
  42   25   26 ar
  43   25   30 1
  44   26   49 1
  45   27   28 1
  46   27   33 1
  47   27   34 1
  48   28   29 1
  49   28   50 1
  50   28   51 1
  51   29   30 1
  52   29   52 1
  53   29   53 1
  54   30   31 1
  55   30   32 1
  56   31   54 1
  57   31   55 1
  58   31   56 1
  59   32   57 1
  60   32   58 1
  61   32   59 1
  62   33   60 1
  63   33   61 1
  64   33   62 1
  65   34   63 1
  66   34   64 1
  67   34   65 1
  68   35   36 1
  69   35   66 1
  70   35   67 1
  71   36   68 1
  72   36   69 1
  73   36   70 1

#	End of record

