#	Name: ASD01884289
#	Creating user name:	WinNT
#	Creation time:	15. 06. 2019 19:47

#	Modifying user name:	WinNT
#	Modification time:	15. 06. 2019 19:47

#	Program:	/corina/corina34_cracker 3.40 0067  02.08.2006

@<TRIPOS>MOLECULE
ASD01884289
  25   25    0    0    0
SMALL
NO_CHARGES


@<TRIPOS>ATOM
   1 O1            -0.0163     1.3507     0.0095 O.3     
   2 C2             0.0021    -0.0041     0.0020 C.2     
   3 C3            -1.1796    -0.7223     0.0094 C.2     
   4 C4             1.2255    -0.7028    -0.0193 C.2     
   5 C5             1.2276    -2.0530    -0.0264 C.2     
   6 N6             0.0625    -2.7527    -0.0138 N.am    
   7 C7            -1.1264    -2.1218     0.0015 C.2     
   8 O8            -2.1608    -2.7711     0.0126 O.2     
   9 C9             0.1012    -4.2172    -0.0225 C.3     
  10 C10            0.1351    -4.7351     1.4167 C.3     
  11 C11            0.1755    -6.2645     1.4076 C.3     
  12 C12            0.2095    -6.7824     2.8469 C.3     
  13 Cl13          -2.7085     0.0998     0.0290 Cl      
  14 H14            0.8616     1.7560     0.0033 H       
  15 H15            2.1591    -0.1599    -0.0302 H       
  16 H16            2.1678    -2.5841    -0.0427 H       
  17 H17           -0.7861    -4.6011    -0.5260 H       
  18 H18            0.9930    -4.5539    -0.5510 H       
  19 H19            1.0224    -4.3512     1.9202 H       
  20 H20           -0.7568    -4.3983     1.9452 H       
  21 H21           -0.7117    -6.6484     0.9042 H       
  22 H22            1.0674    -6.6012     0.8792 H       
  23 H23           -0.6824    -6.4457     3.3753 H       
  24 H24            0.2383    -7.8720     2.8404 H       
  25 H25            1.0968    -6.3985     3.3503 H       
@<TRIPOS>BOND
   1    1    2 1
   2    1   14 1
   3    2    3 2
   4    2    4 1
   5    3   13 1
   6    3    7 1
   7    4    5 2
   8    4   15 1
   9    5    6 1
  10    5   16 1
  11    6    7 am
  12    6    9 1
  13    7    8 2
  14    9   10 1
  15    9   17 1
  16    9   18 1
  17   10   11 1
  18   10   19 1
  19   10   20 1
  20   11   12 1
  21   11   21 1
  22   11   22 1
  23   12   23 1
  24   12   24 1
  25   12   25 1

#	End of record

