#	Name: ASD01913152
#	Creating user name:	WinNT
#	Creation time:	15. 06. 2019 20:01

#	Modifying user name:	WinNT
#	Modification time:	15. 06. 2019 20:01

#	Program:	/corina/corina34_cracker 3.40 0067  02.08.2006

@<TRIPOS>MOLECULE
ASD01913152
  46   48    0    0    0
SMALL
NO_CHARGES


@<TRIPOS>ATOM
   1 C1            -0.0670     1.1766    -0.0421 C.ar    
   2 C2            -0.0198    -0.2047    -0.0792 C.ar    
   3 C3             1.1988    -0.8552    -0.0959 C.ar    
   4 C4             2.3759    -0.1212    -0.0753 C.ar    
   5 C5             2.3258     1.2647    -0.0381 C.ar    
   6 C6             1.1047     1.9104    -0.0216 C.ar    
   7 O7             3.5759    -0.7588    -0.0912 O.3     
   8 C8             4.7463     0.0607    -0.0684 C.3     
   9 C9             5.9916    -0.8278    -0.0908 C.3     
  10 C10            7.2259     0.0365    -0.0668 C.2     
  11 N11            8.4475    -0.5327    -0.0808 N.am    
  12 C12            9.6650     0.2922    -0.0578 C.3     
  13 C13           10.5780    -0.2185     1.0620 C.3     
  14 N14           10.8067    -1.6587     0.8844 N.3     
  15 C15            9.5535    -2.4159     1.0027 C.3     
  16 C16            8.5985    -1.9954    -0.1133 C.3     
  17 O17            7.1200     1.2442    -0.0348 O.2     
  18 C18           11.7592    -2.1271     1.7844 C.ar    
  19 C19           11.3936    -3.0139     2.7878 C.ar    
  20 C20           12.3395    -3.4780     3.6802 C.ar    
  21 C21           13.6595    -3.0635     3.5824 C.ar    
  22 C22           14.0409    -2.1821     2.5911 C.ar    
  23 C23           13.0950    -1.7094     1.6780 C.ar    
  24 F24           14.5759    -3.5241     4.4618 F       
  25 C25           13.4838    -0.7952     0.6466 C.1     
  26 N26           13.7922    -0.0699    -0.1715 N.1     
  27 H27           -1.0207     1.6834    -0.0337 H       
  28 H28           -0.9364    -0.7757    -0.0948 H       
  29 H29            1.2351    -1.9342    -0.1245 H       
  30 H30            3.2408     1.8383    -0.0217 H       
  31 H31            1.0652     2.9893     0.0074 H       
  32 H32            4.7499     0.7134    -0.9413 H       
  33 H33            4.7483     0.6662     0.8380 H       
  34 H34            5.9881    -1.4805     0.7821 H       
  35 H35            5.9897    -1.4333    -0.9972 H       
  36 H36           10.1798     0.2119    -1.0152 H       
  37 H37            9.3992     1.3321     0.1321 H       
  38 H38           11.5312     0.3087     1.0230 H       
  39 H39           10.1034    -0.0420     2.0272 H       
  40 H40            9.7637    -3.4823     0.9208 H       
  41 H41            9.0931    -2.2087     1.9688 H       
  42 H42            7.6283    -2.4687     0.0373 H       
  43 H43            9.0088    -2.2938    -1.0781 H       
  44 H44           10.3677    -3.3411     2.8707 H       
  45 H45           12.0496    -4.1675     4.4592 H       
  46 H46           15.0698    -1.8617     2.5188 H       
@<TRIPOS>BOND
   1    1    2 ar
   2    1    6 ar
   3    1   27 1
   4    2    3 ar
   5    2   28 1
   6    3    4 ar
   7    3   29 1
   8    4    5 ar
   9    4    7 1
  10    5    6 ar
  11    5   30 1
  12    6   31 1
  13    7    8 1
  14    8    9 1
  15    8   32 1
  16    8   33 1
  17    9   10 1
  18    9   34 1
  19    9   35 1
  20   10   11 am
  21   10   17 2
  22   11   12 1
  23   11   16 1
  24   12   13 1
  25   12   36 1
  26   12   37 1
  27   13   14 1
  28   13   38 1
  29   13   39 1
  30   14   15 1
  31   14   18 1
  32   15   16 1
  33   15   40 1
  34   15   41 1
  35   16   42 1
  36   16   43 1
  37   18   19 ar
  38   18   23 ar
  39   19   20 ar
  40   19   44 1
  41   20   21 ar
  42   20   45 1
  43   21   22 ar
  44   21   24 1
  45   22   23 ar
  46   22   46 1
  47   23   25 1
  48   25   26 3

#	End of record

