#	Name: ASD03091938
#	Creating user name:	WinNT
#	Creation time:	15. 06. 2019 20:31

#	Modifying user name:	WinNT
#	Modification time:	15. 06. 2019 20:31

#	Program:	/corina/corina34_cracker 3.40 0067  02.08.2006

@<TRIPOS>MOLECULE
ASD03091938
  47   50    0    0    0
SMALL
NO_CHARGES


@<TRIPOS>ATOM
   1 C1            -0.0169     1.3985     0.0097 C.ar    
   2 C2            -1.2302     2.0674     0.0172 C.ar    
   3 C3            -2.4111     1.3483     0.0075 C.ar    
   4 C4            -2.3928    -0.0370    -0.0097 C.ar    
   5 C5            -1.1929    -0.7184    -0.0120 C.ar    
   6 C6             0.0021    -0.0041     0.0020 C.ar    
   7 O7             1.1600     2.0714     0.0021 O.3     
   8 C8             2.2745     1.4626     0.6521 C.3     
   9 N9             2.4122     0.0611     0.2540 N.am    
  10 C10            1.3112    -0.6873     0.0165 C.2     
  11 C11           -3.6901    -0.8037    -0.0254 C.3     
  12 O12            1.3964    -1.8844    -0.1786 O.2     
  13 C13            3.7444    -0.5318     0.1123 C.3     
  14 C14            4.1792    -1.1348     1.4495 C.3     
  15 C15            5.6159    -1.7048     1.3407 C.3     
  16 C16            6.0703    -1.6442     2.8245 C.3     
  17 C17            5.3581    -0.3725     3.3336 C.3     
  18 O18            4.2564    -0.1127     2.4558 O.3     
  19 Cl19          -1.2676     3.8029     0.0392 Cl      
  20 C20           -3.7298     2.0777     0.0161 C.3     
  21 C21           -4.1788    -0.9350    -1.4449 C.ar    
  22 C22           -3.8010    -2.0168    -2.2173 C.ar    
  23 N23           -4.2246    -2.1394    -3.4602 N.ar    
  24 C24           -5.0196    -1.2430    -4.0137 C.ar    
  25 C25           -5.4390    -0.1338    -3.3009 C.ar    
  26 C26           -5.0177     0.0252    -1.9900 C.ar    
  27 Cl27          -5.5444    -1.4577    -5.6544 Cl      
  28 H28           -1.1808    -1.7983    -0.0245 H       
  29 H29            3.1833     2.0017     0.3846 H       
  30 H30            2.1323     1.5159     1.7315 H       
  31 H31           -3.5311    -1.7957     0.3974 H       
  32 H32           -4.4340    -0.2711     0.5672 H       
  33 H33            3.7153    -1.3137    -0.6466 H       
  34 H34            4.4550     0.2387    -0.1870 H       
  35 H35            3.4830    -1.9155     1.7559 H       
  36 H36            5.6045    -2.7316     0.9749 H       
  37 H37            6.2427    -1.0727     0.7117 H       
  38 H38            5.7303    -2.5241     3.3706 H       
  39 H39            7.1527    -1.5370     2.8947 H       
  40 H40            4.9928    -0.5342     4.3477 H       
  41 H41            6.0498     0.4698     3.3183 H       
  42 H42           -4.0472     2.2666    -1.0094 H       
  43 H43           -4.4788     1.4683     0.5219 H       
  44 H44           -3.6172     3.0257     0.5421 H       
  45 H45           -3.1509    -2.7705    -1.7984 H       
  46 H46           -6.0895     0.5966    -3.7588 H       
  47 H47           -5.3326     0.8787    -1.4079 H       
@<TRIPOS>BOND
   1    1    6 ar
   2    1    7 1
   3    1    2 ar
   4    2    3 ar
   5    2   19 1
   6    3    4 ar
   7    3   20 1
   8    4    5 ar
   9    4   11 1
  10    5    6 ar
  11    5   28 1
  12    6   10 1
  13    7    8 1
  14    8    9 1
  15    8   29 1
  16    8   30 1
  17    9   10 am
  18    9   13 1
  19   10   12 2
  20   11   21 1
  21   11   31 1
  22   11   32 1
  23   13   14 1
  24   13   33 1
  25   13   34 1
  26   14   18 1
  27   14   15 1
  28   14   35 1
  29   15   16 1
  30   15   36 1
  31   15   37 1
  32   16   17 1
  33   16   38 1
  34   16   39 1
  35   17   18 1
  36   17   40 1
  37   17   41 1
  38   20   42 1
  39   20   43 1
  40   20   44 1
  41   21   22 ar
  42   21   26 ar
  43   22   23 ar
  44   22   45 1
  45   23   24 ar
  46   24   25 ar
  47   24   27 1
  48   25   26 ar
  49   25   46 1
  50   26   47 1

#	End of record

