#	Name: ASD07931905
#	Creating user name:	WinNT
#	Creation time:	15. 06. 2019 21:13

#	Modifying user name:	WinNT
#	Modification time:	15. 06. 2019 21:13

#	Program:	/corina/corina34_cracker 3.40 0067  02.08.2006

@<TRIPOS>MOLECULE
ASD07931905
  54   56    0    0    0
SMALL
NO_CHARGES


@<TRIPOS>ATOM
   1 O1             0.6057     1.7061    -2.5161 O.3     
   2 C2             0.7882     0.5953    -3.2443 C.2     
   3 C3             2.1646     0.6143    -3.8728 C.3     
   4 C4             2.8198     1.9122    -3.3503 C.3     
   5 C5             1.8963     2.2904    -2.1700 C.3     
   6 O6            -0.0244    -0.2889    -3.3780 O.2     
   7 C7             2.0530     0.6508    -5.3982 C.3     
   8 C8             1.7791     3.8111    -2.0492 C.3     
   9 O9             0.9497     4.1378    -0.9323 O.3     
  10 Si10           0.8360     5.7376    -0.6358 Si      
  11 C11            0.3153     6.6244    -2.1952 C.ar    
  12 C12           -0.8453     7.3752    -2.2086 C.ar    
  13 C13           -1.2307     8.0314    -3.3626 C.ar    
  14 C14           -0.4552     7.9373    -4.5031 C.ar    
  15 C15            0.7059     7.1873    -4.4894 C.ar    
  16 C16            1.0935     6.5346    -3.3341 C.ar    
  17 C17           -0.4329     6.0342     0.7025 C.ar    
  18 C18           -1.7772     6.0775     0.3831 C.ar    
  19 C19           -2.7162     6.2970     1.3735 C.ar    
  20 C20           -2.3111     6.4728     2.6834 C.ar    
  21 C21           -0.9669     6.4286     3.0030 C.ar    
  22 C22           -0.0281     6.2048     2.0132 C.ar    
  23 C23            2.4912     6.3846    -0.0766 C.3     
  24 C24            3.4024     6.5720    -1.2914 C.3     
  25 C25            2.3012     7.7281     0.6304 C.3     
  26 C26            3.1293     5.3852     0.8903 C.3     
  27 H27            2.7392    -0.2555    -3.5542 H       
  28 H28            3.8354     1.7220    -3.0032 H       
  29 H29            2.8089     2.6880    -4.1159 H       
  30 H30            2.2713     1.8616    -1.2407 H       
  31 H31            1.4893     1.5334    -5.7003 H       
  32 H32            3.0511     0.6902    -5.8347 H       
  33 H33            1.5393    -0.2452    -5.7465 H       
  34 H34            2.7700     4.2415    -1.9040 H       
  35 H35            1.3375     4.2150    -2.9602 H       
  36 H36           -1.4512     7.4487    -1.3176 H       
  37 H37           -2.1379     8.6174    -3.3733 H       
  38 H38           -0.7567     8.4494    -5.4049 H       
  39 H39            1.3116     7.1134    -5.3805 H       
  40 H40            2.0026     5.9516    -3.3224 H       
  41 H41           -2.0937     5.9401    -0.6403 H       
  42 H42           -3.7664     6.3316     1.1238 H       
  43 H43           -3.0447     6.6451     3.4570 H       
  44 H44           -0.6503     6.5663     4.0263 H       
  45 H45            1.0218     6.1666     2.2635 H       
  46 H46            2.9064     7.2102    -2.0226 H       
  47 H47            4.3362     7.0378    -0.9767 H       
  48 H48            3.6137     5.6014    -1.7402 H       
  49 H49            1.7450     7.5764     1.5554 H       
  50 H50            3.2757     8.1594     0.8590 H       
  51 H51            1.7474     8.4056    -0.0196 H       
  52 H52            3.3502     4.4582     0.3612 H       
  53 H53            4.0528     5.8047     1.2894 H       
  54 H54            2.4395     5.1807     1.7091 H       
@<TRIPOS>BOND
   1    1    2 1
   2    1    5 1
   3    2    3 1
   4    2    6 2
   5    3    4 1
   6    3    7 1
   7    3   27 1
   8    4    5 1
   9    4   28 1
  10    4   29 1
  11    5    8 1
  12    5   30 1
  13    7   31 1
  14    7   32 1
  15    7   33 1
  16    8    9 1
  17    8   34 1
  18    8   35 1
  19    9   10 1
  20   10   11 1
  21   10   17 1
  22   10   23 1
  23   11   12 ar
  24   11   16 ar
  25   12   13 ar
  26   12   36 1
  27   13   14 ar
  28   13   37 1
  29   14   15 ar
  30   14   38 1
  31   15   16 ar
  32   15   39 1
  33   16   40 1
  34   17   18 ar
  35   17   22 ar
  36   18   19 ar
  37   18   41 1
  38   19   20 ar
  39   19   42 1
  40   20   21 ar
  41   20   43 1
  42   21   22 ar
  43   21   44 1
  44   22   45 1
  45   23   24 1
  46   23   26 1
  47   23   25 1
  48   24   46 1
  49   24   47 1
  50   24   48 1
  51   25   49 1
  52   25   50 1
  53   25   51 1
  54   26   52 1
  55   26   53 1
  56   26   54 1

#	End of record

