#	Name: ASD01120283
#	Creating user name:	WinNT
#	Creation time:	15. 06. 2019 18:59

#	Modifying user name:	WinNT
#	Modification time:	15. 06. 2019 18:59

#	Program:	/corina/corina34_cracker 3.40 0067  02.08.2006

@<TRIPOS>MOLECULE
ASD01120283
  43   45    0    0    0
SMALL
NO_CHARGES


@<TRIPOS>ATOM
   1 C1             0.1081     1.4803    -0.1459 C.3     
   2 C2             0.1431    -0.0493    -0.1454 C.3     
   3 O3             0.7953    -0.5181     1.0642 O.3     
   4 C4             0.9087    -1.8529     1.2208 C.2     
   5 O5             0.4740    -2.6041     0.3691 O.2     
   6 C6             1.5563    -2.3985     2.4187 C.2     
   7 N7             2.0883    -1.6516     3.4548 N.pl3   
   8 C8             2.6064    -2.5095     4.3965 C.ar    
   9 C9             2.3911    -3.8220     3.9342 C.ar    
  10 C10            1.7253    -3.7208     2.6923 C.2     
  11 C11            2.8268    -4.9133     4.7103 C.ar    
  12 C12            3.4610    -4.6816     5.9175 C.ar    
  13 C13            3.6680    -3.3848     6.3635 C.ar    
  14 C14            3.2474    -2.3068     5.6154 C.ar    
  15 N15            3.4778    -0.9302     6.1090 N.pl3   
  16 O16            4.0386    -0.7515     7.1753 O.2     
  17 O17            3.1066     0.0236     5.4487 O.2     
  18 N18            2.6203    -6.2160     4.2659 N.pl3   
  19 C19            2.5842    -7.2712     5.1845 C.ar    
  20 C20            2.2670    -7.0266     6.5126 C.ar    
  21 C21            2.2315    -8.0708     7.4179 C.ar    
  22 C22            2.5115    -9.3594     7.0032 C.ar    
  23 C23            2.8286    -9.6110     5.6806 C.ar    
  24 C24            2.8612    -8.5716     4.7662 C.ar    
  25 O25            3.1728    -8.8175     3.4655 O.3     
  26 C26            3.4559   -10.1726     3.1112 C.3     
  27 H27            1.1265     1.8670    -0.1090 H       
  28 H28           -0.3815     1.8322    -1.0540 H       
  29 H29           -0.4457     1.8313     0.7248 H       
  30 H30           -0.8753    -0.4361    -0.1824 H       
  31 H31            0.6969    -0.4004    -1.0161 H       
  32 H32            2.0947    -0.6830     3.5081 H       
  33 H33            1.4121    -4.5451     2.0688 H       
  34 H34            3.7966    -5.5154     6.5163 H       
  35 H35            4.1645    -3.2180     7.3080 H       
  36 H36            2.5015    -6.3925     3.3196 H       
  37 H37            2.0481    -6.0208     6.8394 H       
  38 H38            1.9847    -7.8793     8.4517 H       
  39 H39            2.4829   -10.1720     7.7141 H       
  40 H40            3.0472   -10.6189     5.3602 H       
  41 H41            3.6884   -10.2292     2.0478 H       
  42 H42            4.3087   -10.5287     3.6891 H       
  43 H43            2.5864   -10.7936     3.3265 H       
@<TRIPOS>BOND
   1    1    2 1
   2    1   27 1
   3    1   28 1
   4    1   29 1
   5    2    3 1
   6    2   30 1
   7    2   31 1
   8    3    4 1
   9    4    5 2
  10    4    6 1
  11    6    7 1
  12    6   10 2
  13    7    8 1
  14    7   32 1
  15    8    9 ar
  16    8   14 ar
  17    9   10 1
  18    9   11 ar
  19   10   33 1
  20   11   12 ar
  21   11   18 1
  22   12   13 ar
  23   12   34 1
  24   13   14 ar
  25   13   35 1
  26   14   15 1
  27   15   16 2
  28   15   17 2
  29   18   19 1
  30   18   36 1
  31   19   20 ar
  32   19   24 ar
  33   20   21 ar
  34   20   37 1
  35   21   22 ar
  36   21   38 1
  37   22   23 ar
  38   22   39 1
  39   23   24 ar
  40   23   40 1
  41   24   25 1
  42   25   26 1
  43   26   41 1
  44   26   42 1
  45   26   43 1

#	End of record

