#	Name: ASD01882212
#	Creating user name:	WinNT
#	Creation time:	15. 06. 2019 19:44

#	Modifying user name:	WinNT
#	Modification time:	15. 06. 2019 19:44

#	Program:	/corina/corina34_cracker 3.40 0067  02.08.2006

@<TRIPOS>MOLECULE
ASD01882212
  36   38    0    0    0
SMALL
NO_CHARGES


@<TRIPOS>ATOM
   1 C1            -0.0159     1.3207     0.0093 C.ar    
   2 N2             0.0021    -0.0041     0.0020 N.ar    
   3 C3             1.1480    -0.6646    -0.0125 C.ar    
   4 C4             2.3380     0.0459    -0.0200 C.ar    
   5 C5             2.2829     1.4309    -0.0120 C.ar    
   6 N6             1.1035     2.0296     0.0024 N.ar    
   7 N7            -1.2329     1.9798     0.0186 N.3     
   8 C8            -1.0426     3.4370     0.0256 C.3     
   9 C9            -2.4068     4.1273    -0.0445 C.3     
  10 N10           -3.2280     3.7008     1.0971 N.3     
  11 C11           -3.4183     2.2436     1.0901 C.3     
  12 C12           -2.0541     1.5533     1.1602 C.3     
  13 C13           -4.5197     4.4003     1.1069 C.3     
  14 C14           -6.1460     3.4772     4.3929 C.ar    
  15 C15           -5.2952     4.0771     3.4791 C.ar    
  16 C16           -5.4249     3.7693     2.1333 C.ar    
  17 C17           -6.4078     2.8672     1.7541 C.ar    
  18 C18           -7.2199     2.3085     2.7221 C.ar    
  19 N19           -7.0695     2.6234     3.9942 N.ar    
  20 Cl20          -4.0830     5.1998     4.0117 Cl      
  21 Cl21          -5.9908     3.8473     6.0819 Cl      
  22 H22            1.1562    -1.7446    -0.0180 H       
  23 H23            3.2876    -0.4684    -0.0314 H       
  24 H24            3.1918     2.0141    -0.0172 H       
  25 H25           -0.5322     3.7327     0.9422 H       
  26 H26           -0.4423     3.7295    -0.8359 H       
  27 H27           -2.2697     5.2081    -0.0102 H       
  28 H28           -2.9058     3.8530    -0.9740 H       
  29 H29           -4.0186     1.9511     1.9516 H       
  30 H30           -3.9287     1.9479     0.1735 H       
  31 H31           -2.1912     0.4725     1.1259 H       
  32 H32           -1.5552     1.8276     2.0897 H       
  33 H33           -4.3628     5.4496     1.3570 H       
  34 H34           -4.9804     4.3266     0.1218 H       
  35 H35           -6.5371     2.6048     0.7144 H       
  36 H36           -7.9872     1.6054     2.4338 H       
@<TRIPOS>BOND
   1    1    2 ar
   2    1    6 ar
   3    1    7 1
   4    2    3 ar
   5    3    4 ar
   6    3   22 1
   7    4    5 ar
   8    4   23 1
   9    5    6 ar
  10    5   24 1
  11    7    8 1
  12    7   12 1
  13    8    9 1
  14    8   25 1
  15    8   26 1
  16    9   10 1
  17    9   27 1
  18    9   28 1
  19   10   11 1
  20   10   13 1
  21   11   12 1
  22   11   29 1
  23   11   30 1
  24   12   31 1
  25   12   32 1
  26   13   16 1
  27   13   33 1
  28   13   34 1
  29   14   15 ar
  30   14   19 ar
  31   14   21 1
  32   15   16 ar
  33   15   20 1
  34   16   17 ar
  35   17   18 ar
  36   17   35 1
  37   18   19 ar
  38   18   36 1

#	End of record

