#	Name: ASD01885434
#	Creating user name:	WinNT
#	Creation time:	15. 06. 2019 19:49

#	Modifying user name:	WinNT
#	Modification time:	15. 06. 2019 19:49

#	Program:	/corina/corina34_cracker 3.40 0067  02.08.2006

@<TRIPOS>MOLECULE
ASD01885434
  44   46    0    0    0
SMALL
NO_CHARGES


@<TRIPOS>ATOM
   1 C1            -0.0387     1.4167     0.0072 C.ar    
   2 C2            -0.0161     0.0212     0.0397 C.ar    
   3 N3            -1.1307    -0.7508     0.0521 N.2     
   4 C4            -2.1918    -0.5676    -0.6472 C.2     
   5 C5            -2.3337     0.6067    -1.5797 C.3     
   6 C6            -2.2855     1.8690    -0.7564 C.2     
   7 N7            -1.2068     2.1680    -0.0336 N.am    
   8 C8             1.1632     2.1195     0.0093 C.ar    
   9 C9             2.3792     1.4404     0.0380 C.ar    
  10 C10            2.3930     0.0424     0.0649 C.ar    
  11 C11            1.2211    -0.6500     0.0658 C.ar    
  12 C12           -3.2991    -1.5313    -0.5349 C.ar    
  13 O13           -3.2377     2.6203    -0.7534 O.2     
  14 C14           -3.1341    -2.7063     0.2063 C.ar    
  15 C15           -4.1718    -3.6104     0.3120 C.ar    
  16 C16           -5.3787    -3.3628    -0.3117 C.ar    
  17 C17           -5.5586    -2.1933    -1.0558 C.ar    
  18 C18           -4.5187    -1.2726    -1.1631 C.ar    
  19 C19           -6.8112    -1.9393    -1.7015 C.1     
  20 N20           -7.8049    -1.7378    -2.2138 N.1     
  21 C21            3.6487     2.1940     0.0395 C.2     
  22 O22            3.6341     3.4096     0.0157 O.2     
  23 N23            4.8238     1.5346     0.0673 N.am    
  24 C24            6.0836     2.2824     0.0688 C.3     
  25 C25            7.2406     1.3174     0.1023 C.2     
  26 O26            8.5005     1.7802     0.1094 O.3     
  27 O27            7.0340     0.1271     0.1229 O.2     
  28 C28            9.5651     0.7933     0.1421 C.3     
  29 H29           -1.5155     0.6057    -2.2998 H       
  30 H30           -3.2869     0.5462    -2.1050 H       
  31 H31           -1.2398     2.9714     0.5088 H       
  32 H32            1.1527     3.1992    -0.0119 H       
  33 H33            3.3336    -0.4880     0.0846 H       
  34 H34            1.2406    -1.7296     0.0865 H       
  35 H35           -2.1929    -2.9066     0.6965 H       
  36 H36           -4.0391    -4.5160     0.8852 H       
  37 H37           -6.1858    -4.0751    -0.2247 H       
  38 H38           -4.6525    -0.3672    -1.7364 H       
  39 H39            4.8354     0.5649     0.0863 H       
  40 H40            6.1451     2.8923    -0.8325 H       
  41 H41            6.1224     2.9269     0.9470 H       
  42 H42           10.5302     1.2999     0.1446 H       
  43 H43            9.4708     0.1869     1.0430 H       
  44 H44            9.4934     0.1523    -0.7365 H       
@<TRIPOS>BOND
   1    1    2 ar
   2    1    8 ar
   3    1    7 1
   4    2    3 1
   5    2   11 ar
   6    3    4 2
   7    4    5 1
   8    4   12 1
   9    5    6 1
  10    5   29 1
  11    5   30 1
  12    6    7 am
  13    6   13 2
  14    7   31 1
  15    8    9 ar
  16    8   32 1
  17    9   10 ar
  18    9   21 1
  19   10   11 ar
  20   10   33 1
  21   11   34 1
  22   12   14 ar
  23   12   18 ar
  24   14   15 ar
  25   14   35 1
  26   15   16 ar
  27   15   36 1
  28   16   17 ar
  29   16   37 1
  30   17   18 ar
  31   17   19 1
  32   18   38 1
  33   19   20 3
  34   21   22 2
  35   21   23 am
  36   23   24 1
  37   23   39 1
  38   24   25 1
  39   24   40 1
  40   24   41 1
  41   25   26 1
  42   25   27 2
  43   26   28 1
  44   28   42 1
  45   28   43 1
  46   28   44 1

#	End of record

