#	Name: ASD00990027
#	Creating user name:	WinNT
#	Creation time:	15. 06. 2019 18:54

#	Modifying user name:	WinNT
#	Modification time:	15. 06. 2019 18:54

#	Program:	/corina/corina34_cracker 3.40 0067  02.08.2006

@<TRIPOS>MOLECULE
ASD00990027
  21   21    0    0    0
SMALL
NO_CHARGES


@<TRIPOS>ATOM
   1 C1            -0.3895     0.7345    -1.0976 C.ar    
   2 C2             0.0014    -0.0052     0.0035 C.ar    
   3 C3            -0.8111    -0.0720     1.1202 C.ar    
   4 C4            -2.0213     0.6024     1.1393 C.ar    
   5 C5            -2.4173     1.3480     0.0321 C.ar    
   6 C6            -1.5945     1.4165    -1.0843 C.ar    
   7 F7            -1.9746     2.1386    -2.1610 F       
   8 O8            -2.8209     0.5361     2.2373 O.3     
   9 N9            -3.6421     2.0324     0.0464 N.am    
  10 I10            0.8476     0.8304    -2.7856 I       
  11 C11           -3.6918     3.3164     0.4529 C.2     
  12 O12           -2.6944     3.8536     0.8925 O.2     
  13 O13           -4.8468     4.0040     0.3720 O.3     
  14 C14           -4.8266     5.3824     0.8280 C.3     
  15 H15            0.9439    -0.5325    -0.0091 H       
  16 H16           -0.5024    -0.6507     1.9783 H       
  17 H17           -2.6503     1.2284     2.8905 H       
  18 H18           -4.4530     1.5814    -0.2364 H       
  19 H19           -4.5405     5.4132     1.8793 H       
  20 H20           -4.1062     5.9496     0.2385 H       
  21 H21           -5.8181     5.8192     0.7083 H       
@<TRIPOS>BOND
   1    1    2 ar
   2    1   10 1
   3    1    6 ar
   4    2    3 ar
   5    2   15 1
   6    3    4 ar
   7    3   16 1
   8    4    5 ar
   9    4    8 1
  10    5    6 ar
  11    5    9 1
  12    6    7 1
  13    8   17 1
  14    9   11 am
  15    9   18 1
  16   11   12 2
  17   11   13 1
  18   13   14 1
  19   14   19 1
  20   14   20 1
  21   14   21 1

#	End of record

