#	Name: ASD04230066
#	Creating user name:	WinNT
#	Creation time:	15. 06. 2019 20:48

#	Modifying user name:	WinNT
#	Modification time:	15. 06. 2019 20:48

#	Program:	/corina/corina34_cracker 3.40 0067  02.08.2006

@<TRIPOS>MOLECULE
ASD04230066
  53   56    0    0    0
SMALL
NO_CHARGES


@<TRIPOS>ATOM
   1 C1             1.5361     4.6855     1.7216 C.ar    
   2 C2             2.5442     5.3833     2.3710 C.ar    
   3 C3             3.8008     4.8582     2.4692 C.ar    
   4 C4             4.0827     3.6074     1.9009 C.ar    
   5 C5             3.0565     2.8814     1.2697 C.ar    
   6 C6             1.7832     3.4390     1.1740 C.ar    
   7 C7             5.3936     3.0672     1.9622 C.2     
   8 C8             5.6630     1.9280     1.2153 C.2     
   9 C9             4.5672     1.3876     0.3902 C.2     
  10 O10            3.2980     1.6420     0.7794 O.3     
  11 C11            6.9880     1.2867     1.2457 C.2     
  12 N12            7.2189     0.1816     0.5095 N.am    
  13 O13            7.8743     1.7542     1.9353 O.2     
  14 C14            8.5060    -0.3625     0.4496 C.ar    
  15 C15            8.6754    -1.7391     0.3669 C.ar    
  16 C16            9.9457    -2.2805     0.3076 C.ar    
  17 C17           11.0533    -1.4568     0.3296 C.ar    
  18 C18           10.8929    -0.0743     0.4124 C.ar    
  19 C19            9.6135     0.4723     0.4670 C.ar    
  20 C20           12.0819     0.8122     0.4367 C.ar    
  21 O21            4.7980     0.7336    -0.6096 O.2     
  22 C22           13.1290     0.5569     1.3264 C.ar    
  23 C23           14.2375     1.3880     1.3444 C.ar    
  24 C24           14.3086     2.4676     0.4852 C.ar    
  25 C25           13.2714     2.7258    -0.4007 C.ar    
  26 C26           12.1617     1.8987    -0.4313 C.ar    
  27 O27           13.3478     3.7904    -1.2433 O.3     
  28 C28           14.5232     4.5991    -1.1620 C.3     
  29 O29           13.0599    -0.5043     2.1729 O.3     
  30 C30           14.1666    -0.7041     3.0545 C.3     
  31 O31            0.7868     2.7605     0.5449 O.3     
  32 C32           -0.4925     3.3944     0.4852 C.3     
  33 H33            0.5488     5.1169     1.6467 H       
  34 H34            2.3333     6.3506     2.8023 H       
  35 H35            4.5768     5.4056     2.9836 H       
  36 H36            6.1580     3.5279     2.5704 H       
  37 H37            6.4924    -0.2364     0.0212 H       
  38 H38            7.8121    -2.3879     0.3494 H       
  39 H39           10.0723    -3.3512     0.2441 H       
  40 H40           12.0443    -1.8835     0.2830 H       
  41 H41            9.4841     1.5426     0.5312 H       
  42 H42           15.0472     1.1917     2.0315 H       
  43 H43           15.1741     3.1133     0.5030 H       
  44 H44           11.3554     2.1006    -1.1209 H       
  45 H45           14.4562     5.4114    -1.8857 H       
  46 H46           14.6103     5.0136    -0.1576 H       
  47 H47           15.3997     3.9891    -1.3805 H       
  48 H48           13.9838    -1.5823     3.6739 H       
  49 H49           15.0743    -0.8543     2.4700 H       
  50 H50           14.2859     0.1718     3.6922 H       
  51 H51           -1.1942     2.7478    -0.0417 H       
  52 H52           -0.8554     3.5763     1.4968 H       
  53 H53           -0.4038     4.3427    -0.0450 H       
@<TRIPOS>BOND
   1    1    2 ar
   2    1    6 ar
   3    1   33 1
   4    2    3 ar
   5    2   34 1
   6    3    4 ar
   7    3   35 1
   8    4    5 ar
   9    4    7 1
  10    5    6 ar
  11    5   10 1
  12    6   31 1
  13    7    8 2
  14    7   36 1
  15    8    9 1
  16    8   11 1
  17    9   10 1
  18    9   21 2
  19   11   12 am
  20   11   13 2
  21   12   14 1
  22   12   37 1
  23   14   15 ar
  24   14   19 ar
  25   15   16 ar
  26   15   38 1
  27   16   17 ar
  28   16   39 1
  29   17   18 ar
  30   17   40 1
  31   18   19 ar
  32   18   20 1
  33   19   41 1
  34   20   22 ar
  35   20   26 ar
  36   22   23 ar
  37   22   29 1
  38   23   24 ar
  39   23   42 1
  40   24   25 ar
  41   24   43 1
  42   25   26 ar
  43   25   27 1
  44   26   44 1
  45   27   28 1
  46   28   45 1
  47   28   46 1
  48   28   47 1
  49   29   30 1
  50   30   48 1
  51   30   49 1
  52   30   50 1
  53   31   32 1
  54   32   51 1
  55   32   52 1
  56   32   53 1

#	End of record

