#	Name: ASD03090265
#	Creating user name:	WinNT
#	Creation time:	15. 06. 2019 20:28

#	Modifying user name:	WinNT
#	Modification time:	15. 06. 2019 20:28

#	Program:	/corina/corina34_cracker 3.40 0067  02.08.2006

@<TRIPOS>MOLECULE
ASD03090265
  50   53    0    0    0
SMALL
NO_CHARGES


@<TRIPOS>ATOM
   1 C1             0.0795     1.3926     0.6216 C.ar    
   2 N2             0.2205     0.4469    -0.2881 N.ar    
   3 C3             1.3416    -0.2423    -0.4077 C.ar    
   4 C4             2.4274     0.0153     0.4407 C.ar    
   5 C5             2.3022     1.0121     1.4121 C.ar    
   6 C6             1.1052     1.7043     1.4938 C.ar    
   7 C7             3.6828    -0.7544     0.3104 C.2     
   8 N8             5.5508    -3.7216     0.0515 N.pl3   
   9 C9             4.6554    -4.7930    -0.0303 C.ar    
  10 C10            3.4316    -4.6296    -0.6660 C.ar    
  11 C11            2.5489    -5.6891    -0.7455 C.ar    
  12 C12            2.8834    -6.9133    -0.1920 C.ar    
  13 C13            4.1033    -7.0785     0.4425 C.ar    
  14 C14            4.9913    -6.0238     0.5193 C.ar    
  15 N15            3.7854    -2.0678     0.2548 N.2     
  16 C16            5.0688    -2.4140     0.1375 C.2     
  17 N17            5.8054    -1.3275     0.1164 N.2     
  18 N18            4.9285    -0.2358     0.2214 N.pl3   
  19 C19            5.2918     1.1833     0.2401 C.3     
  20 F20            2.0184    -7.9481    -0.2705 F       
  21 C21            5.2022     1.7433    -1.1561 C.2     
  22 N22            5.4937     3.0396    -1.3823 N.am    
  23 O23            4.8677     1.0275    -2.0762 O.2     
  24 C24            5.4066     3.5839    -2.7396 C.3     
  25 C25            5.1652     5.0879    -2.8834 C.3     
  26 C26            6.5397     4.4993    -3.2077 C.3     
  27 O27            1.4421    -1.2050    -1.3568 O.3     
  28 C28            0.2997    -1.4180    -2.1884 C.3     
  29 C29            4.4646    -8.4122     1.0440 C.3     
  30 F30            5.7352    -8.3334     1.6241 F       
  31 F31            3.5251    -8.7519     2.0234 F       
  32 F32            4.4688    -9.3895     0.0429 F       
  33 H33           -0.8523     1.9354     0.6827 H       
  34 H34            3.1183     1.2368     2.0828 H       
  35 H35            0.9747     2.4811     2.2327 H       
  36 H36            6.5065    -3.8869     0.0484 H       
  37 H37            3.1700    -3.6748    -1.0976 H       
  38 H38            1.5969    -5.5624    -1.2395 H       
  39 H39            5.9425    -6.1531     1.0142 H       
  40 H40            4.6078     1.7249     0.8934 H       
  41 H41            6.3111     1.2925     0.6107 H       
  42 H42            5.7612     3.6121    -0.6464 H       
  43 H43            4.9504     2.9278    -3.4809 H       
  44 H44            4.5504     5.4213    -3.7195 H       
  45 H45            5.0711     5.6723    -1.9681 H       
  46 H46            7.3499     4.6965    -2.5058 H       
  47 H47            6.8292     4.4454    -4.2572 H       
  48 H48            0.0657    -0.4995    -2.7265 H       
  49 H49            0.5134    -2.2132    -2.9026 H       
  50 H50           -0.5514    -1.7039    -1.5702 H       
@<TRIPOS>BOND
   1    1    2 ar
   2    1    6 ar
   3    1   33 1
   4    2    3 ar
   5    3    4 ar
   6    3   27 1
   7    4    5 ar
   8    4    7 1
   9    5    6 ar
  10    5   34 1
  11    6   35 1
  12    7   15 2
  13    7   18 1
  14    8    9 1
  15    8   16 1
  16    8   36 1
  17    9   10 ar
  18    9   14 ar
  19   10   11 ar
  20   10   37 1
  21   11   12 ar
  22   11   38 1
  23   12   13 ar
  24   12   20 1
  25   13   14 ar
  26   13   29 1
  27   14   39 1
  28   15   16 1
  29   16   17 2
  30   17   18 1
  31   18   19 1
  32   19   21 1
  33   19   40 1
  34   19   41 1
  35   21   22 am
  36   21   23 2
  37   22   24 1
  38   22   42 1
  39   24   25 1
  40   24   26 1
  41   24   43 1
  42   25   26 1
  43   25   44 1
  44   25   45 1
  45   26   46 1
  46   26   47 1
  47   27   28 1
  48   28   48 1
  49   28   49 1
  50   28   50 1
  51   29   30 1
  52   29   31 1
  53   29   32 1

#	End of record

