#	Name: ASD02560424
#	Creating user name:	WinNT
#	Creation time:	15. 06. 2019 20:25

#	Modifying user name:	WinNT
#	Modification time:	15. 06. 2019 20:25

#	Program:	/corina/corina34_cracker 3.40 0067  02.08.2006

@<TRIPOS>MOLECULE
ASD02560424
  40   43    0    0    0
SMALL
NO_CHARGES


@<TRIPOS>ATOM
   1 C1             0.1006     1.0116     1.1081 C.2     
   2 C2             0.2352    -0.3883     1.1076 C.2     
   3 C3             1.4147    -0.9591     0.7910 C.2     
   4 N4             2.4975    -0.1869     0.4660 N.pl3   
   5 C5             2.3959     1.1855     0.4580 C.2     
   6 C6             1.1658     1.7930     0.7877 C.2     
   7 C7             3.7807    -0.5019     0.1135 C.2     
   8 C8             4.4390     0.6901    -0.1035 C.2     
   9 N9             3.5687     1.6926     0.1146 N.2     
  10 C10            5.8574     0.8405    -0.5059 C.ar    
  11 N11            4.3205    -1.7840    -0.0038 N.3     
  12 C12            3.2771    -2.8090     0.1325 C.3     
  13 C13            3.7217    -4.1091    -0.5603 C.3     
  14 C14            6.2023     1.6989    -1.5514 C.ar    
  15 C15            6.8552     0.1290     0.1626 C.ar    
  16 C16            8.1760     0.2740    -0.2181 C.ar    
  17 C17            8.5102     1.1223    -1.2584 C.ar    
  18 C18            7.5271     1.8344    -1.9216 C.ar    
  19 F19            5.2434     2.3951    -2.2002 F       
  20 F20            6.5306    -0.6992     1.1794 F       
  21 C21            3.0655    -3.1531     1.6213 C.3     
  22 C22            2.7972    -4.6786     1.6242 C.3     
  23 C23            3.7648    -5.1979     0.5318 C.3     
  24 H24           -0.8475     1.4644     1.3580 H       
  25 H25           -0.6109    -1.0093     1.3624 H       
  26 H26            1.5064    -2.0352     0.7943 H       
  27 H27            1.0715     2.8689     0.7856 H       
  28 H28            4.8184    -1.8884    -0.8751 H       
  29 H29            2.3446    -2.4527    -0.3054 H       
  30 H30            3.0046    -4.3842    -1.3337 H       
  31 H31            4.7117    -3.9795    -0.9975 H       
  32 H32            8.9490    -0.2759     0.2982 H       
  33 H33            9.5438     1.2324    -1.5512 H       
  34 H34            7.7949     2.4946    -2.7332 H       
  35 H35            3.9616    -2.9223     2.1973 H       
  36 H36            2.2057    -2.6139     2.0190 H       
  37 H37            3.0414    -5.1119     2.5941 H       
  38 H38            1.7621    -4.8893     1.3553 H       
  39 H39            3.4154    -6.1508     0.1344 H       
  40 H40            4.7738    -5.2972     0.9318 H       
@<TRIPOS>BOND
   1    1    2 1
   2    1    6 2
   3    1   24 1
   4    2    3 2
   5    2   25 1
   6    3    4 1
   7    3   26 1
   8    4    5 1
   9    4    7 1
  10    5    6 1
  11    5    9 2
  12    6   27 1
  13    7    8 2
  14    7   11 1
  15    8    9 1
  16    8   10 1
  17   10   15 ar
  18   10   14 ar
  19   11   12 1
  20   11   28 1
  21   12   13 1
  22   12   21 1
  23   12   29 1
  24   13   23 1
  25   13   30 1
  26   13   31 1
  27   14   19 1
  28   14   18 ar
  29   15   16 ar
  30   15   20 1
  31   16   17 ar
  32   16   32 1
  33   17   18 ar
  34   17   33 1
  35   18   34 1
  36   21   22 1
  37   21   35 1
  38   21   36 1
  39   22   23 1
  40   22   37 1
  41   22   38 1
  42   23   39 1
  43   23   40 1

#	End of record

