#	Name: ASD03091386
#	Creating user name:	WinNT
#	Creation time:	15. 06. 2019 20:30

#	Modifying user name:	WinNT
#	Modification time:	15. 06. 2019 20:30

#	Program:	/corina/corina34_cracker 3.40 0067  02.08.2006

@<TRIPOS>MOLECULE
ASD03091386
  50   54    0    0    0
SMALL
NO_CHARGES


@<TRIPOS>ATOM
   1 N1            -0.1569    -0.2158    -1.4046 N.am    
   2 C2            -0.2487    -1.4148    -0.7510 C.2     
   3 N3            -1.2994    -1.7722    -0.0594 N.2     
   4 C4            -2.3773    -0.9702     0.0570 C.ar    
   5 C5            -2.3714     0.2892    -0.5850 C.ar    
   6 C6            -1.1773     0.6719    -1.3532 C.2     
   7 O7            -1.1124     1.7429    -1.9280 O.2     
   8 C8            -3.4985    -1.3573     0.7972 C.ar    
   9 C9            -4.5728    -0.5199     0.8934 C.ar    
  10 C10           -4.5709     0.7223     0.2622 C.ar    
  11 C11           -3.4758     1.1315    -0.4766 C.ar    
  12 O12           -5.6529     1.5376     0.3733 O.3     
  13 C13           -5.5307     2.8550    -0.1665 C.3     
  14 C14           -6.5180     3.7932     0.5391 C.3     
  15 C15            1.0554     0.1113    -2.1592 C.3     
  16 C16            0.8934    -2.3499    -0.8310 C.ar    
  17 C17            1.2986    -3.0594     0.3003 C.ar    
  18 C18            1.5675    -2.5312    -2.0400 C.ar    
  19 C19            2.6322    -3.4055    -2.1087 C.ar    
  20 C20            3.0328    -4.1028    -0.9828 C.ar    
  21 C21            2.3660    -3.9317     0.2184 C.ar    
  22 Cl22           2.8762    -4.8112     1.6255 Cl      
  23 C23           -5.8569     2.8290    -1.6625 C.3     
  24 N24           -7.0036     3.7085    -1.9266 N.3     
  25 C25           -8.2016     3.2421    -1.2149 C.3     
  26 C26           -7.9421     3.2790     0.2938 C.3     
  27 C27           -6.3897     5.1918    -0.0777 C.3     
  28 C28           -6.6925     5.1012    -1.5760 C.3     
  29 H29           -3.5150    -2.3172     1.2918 H       
  30 H30           -5.4360    -0.8248     1.4663 H       
  31 H31           -3.4768     2.0947    -0.9649 H       
  32 H32           -4.5134     3.2174    -0.0187 H       
  33 H33           -6.3000     3.8328     1.6064 H       
  34 H34            0.9646    -0.2708    -3.1760 H       
  35 H35            1.1848     1.1932    -2.1878 H       
  36 H36            1.9188    -0.3453    -1.6753 H       
  37 H37            0.7789    -2.9263     1.2377 H       
  38 H38            1.2557    -1.9883    -2.9200 H       
  39 H39            3.1541    -3.5463    -3.0437 H       
  40 H40            3.8668    -4.7864    -1.0422 H       
  41 H41           -4.9934     3.1773    -2.2291 H       
  42 H42           -6.1029     1.8106    -1.9634 H       
  43 H43           -9.0433     3.8917    -1.4552 H       
  44 H44           -8.4312     2.2210    -1.5196 H       
  45 H45           -8.0442     2.2753     0.7065 H       
  46 H46           -8.6589     3.9469     0.7714 H       
  47 H47           -7.1004     5.8674     0.3983 H       
  48 H48           -5.3756     5.5637     0.0681 H       
  49 H49           -5.8233     5.4336    -2.1434 H       
  50 H50           -7.5466     5.7355    -1.8134 H       
@<TRIPOS>BOND
   1    1    2 1
   2    1   15 1
   3    1    6 am
   4    2    3 2
   5    2   16 1
   6    3    4 1
   7    4    5 ar
   8    4    8 ar
   9    5    6 1
  10    5   11 ar
  11    6    7 2
  12    8    9 ar
  13    8   29 1
  14    9   10 ar
  15    9   30 1
  16   10   11 ar
  17   10   12 1
  18   11   31 1
  19   12   13 1
  20   13   14 1
  21   13   23 1
  22   13   32 1
  23   14   27 1
  24   14   26 1
  25   14   33 1
  26   15   34 1
  27   15   35 1
  28   15   36 1
  29   16   17 ar
  30   16   18 ar
  31   17   21 ar
  32   17   37 1
  33   18   19 ar
  34   18   38 1
  35   19   20 ar
  36   19   39 1
  37   20   21 ar
  38   20   40 1
  39   21   22 1
  40   23   24 1
  41   23   41 1
  42   23   42 1
  43   24   25 1
  44   24   28 1
  45   25   26 1
  46   25   43 1
  47   25   44 1
  48   26   45 1
  49   26   46 1
  50   27   28 1
  51   27   47 1
  52   27   48 1
  53   28   49 1
  54   28   50 1

#	End of record

