#	Name: ASD08150379
#	Creating user name:	WinNT
#	Creation time:	15. 06. 2019 21:15

#	Modifying user name:	WinNT
#	Modification time:	15. 06. 2019 21:15

#	Program:	/corina/corina34_cracker 3.40 0067  02.08.2006

@<TRIPOS>MOLECULE
ASD08150379
  31   32    0    0    0
SMALL
NO_CHARGES


@<TRIPOS>ATOM
   1 C1            -0.6324     1.5517    -1.0597 C.2     
   2 C2            -0.5181     0.0798    -1.1319 C.ar    
   3 C3             0.6207    -0.5600    -0.6391 C.ar    
   4 C4             0.7208    -1.9339    -0.7091 C.ar    
   5 C5            -0.3041    -2.6779    -1.2667 C.ar    
   6 C6            -1.4351    -2.0502    -1.7573 C.ar    
   7 C7            -1.5507    -0.6770    -1.6878 C.ar    
   8 O8            -0.2242     2.2388    -1.9758 O.2     
   9 N9            -1.1942     2.1319     0.0193 N.am    
  10 N10           -2.7643    -0.0075    -2.2072 N.pl3   
  11 O11           -3.6646    -0.6693    -2.6920 O.2     
  12 O12           -2.8627     1.2051    -2.1497 O.2     
  13 C13            1.7383     0.2486    -0.0324 C.3     
  14 C14           -1.2149     3.5281     0.1327 C.ar    
  15 C15           -0.1116     4.2023     0.6428 C.ar    
  16 C16           -0.1358     5.5810     0.7528 C.ar    
  17 C17           -1.2556     6.2885     0.3561 C.ar    
  18 C18           -2.3554     5.6215    -0.1514 C.ar    
  19 C19           -2.3368     4.2433    -0.2699 C.ar    
  20 F20           -3.4095     3.5930    -0.7714 F       
  21 F21            0.9829     3.5119     1.0311 F       
  22 H22            1.6013    -2.4301    -0.3283 H       
  23 H23           -0.2206    -3.7534    -1.3194 H       
  24 H24           -2.2311    -2.6366    -2.1919 H       
  25 H25           -1.5842     1.5827     0.7173 H       
  26 H26            1.5638     0.3645     1.0372 H       
  27 H27            2.6865    -0.2647    -0.1923 H       
  28 H28            1.7731     1.2310    -0.5034 H       
  29 H29            0.7210     6.1056     1.1493 H       
  30 H30           -1.2715     7.3649     0.4432 H       
  31 H31           -3.2285     6.1776    -0.4595 H       
@<TRIPOS>BOND
   1    1    2 1
   2    1    8 2
   3    1    9 am
   4    2    3 ar
   5    2    7 ar
   6    3    4 ar
   7    3   13 1
   8    4    5 ar
   9    4   22 1
  10    5    6 ar
  11    5   23 1
  12    6    7 ar
  13    6   24 1
  14    7   10 1
  15    9   14 1
  16    9   25 1
  17   10   11 2
  18   10   12 2
  19   13   26 1
  20   13   27 1
  21   13   28 1
  22   14   15 ar
  23   14   19 ar
  24   15   16 ar
  25   15   21 1
  26   16   17 ar
  27   16   29 1
  28   17   18 ar
  29   17   30 1
  30   18   19 ar
  31   18   31 1
  32   19   20 1

#	End of record

