#	Name: ASD01918104
#	Creating user name:	WinNT
#	Creation time:	15. 06. 2019 20:10

#	Modifying user name:	WinNT
#	Modification time:	15. 06. 2019 20:10

#	Program:	/corina/corina34_cracker 3.40 0067  02.08.2006

@<TRIPOS>MOLECULE
ASD01918104
  44   47    0    0    0
SMALL
NO_CHARGES


@<TRIPOS>ATOM
   1 N1            -0.0609     1.4240    -0.3531 N.am    
   2 C2            -0.0046     0.0267    -0.3586 C.2     
   3 C3             2.1318    -0.0230    -1.6474 C.3     
   4 C4             1.7384     1.4146    -2.0057 C.3     
   5 C5             1.1700     2.1238    -0.7716 C.3     
   6 C6            -0.8592    -0.8727     0.1745 C.2     
   7 C7            -0.3557    -2.1507    -0.0991 C.2     
   8 N8             0.7619    -2.0225    -0.7733 N.2     
   9 N9             1.0106    -0.6629    -0.9547 N.pl3   
  10 C10           -0.9910    -3.4539     0.3123 C.3     
  11 O11           -2.1294    -3.1901     1.1347 O.3     
  12 C12           -1.1745     2.0922     0.0072 C.2     
  13 C13           -1.1473     3.5654     0.1237 C.ar    
  14 O14           -2.2014     1.4831     0.2365 O.2     
  15 C15           -2.8213    -4.2658     1.5941 C.ar    
  16 C16           -3.9372    -4.0828     2.3978 C.ar    
  17 C17           -4.6387    -5.1779     2.8635 C.ar    
  18 C18           -4.2296    -6.4556     2.5292 C.ar    
  19 C19           -3.1175    -6.6408     1.7287 C.ar    
  20 C20           -2.4162    -5.5488     1.2554 C.ar    
  21 C21            0.0806     5.6074     0.4373 C.ar    
  22 C22            0.0626     4.2297     0.3292 C.ar    
  23 C23           -2.3312     4.2984     0.0229 C.ar    
  24 C24           -2.3003     5.6731     0.1324 C.ar    
  25 C25           -1.0994     6.3273     0.3413 C.ar    
  26 F26            1.2505     6.2532     0.6362 F       
  27 H27            2.3624    -0.5761    -2.5579 H       
  28 H28            3.0046    -0.0107    -0.9947 H       
  29 H29            2.6175     1.9528    -2.3600 H       
  30 H30            0.9843     1.3981    -2.7925 H       
  31 H31            0.9362     3.1591    -1.0196 H       
  32 H32            1.9007     2.0942     0.0367 H       
  33 H33           -1.7669    -0.6472     0.7146 H       
  34 H34           -1.3039    -4.0021    -0.5763 H       
  35 H35           -0.2692    -4.0495     0.8712 H       
  36 H36           -4.2569    -3.0849     2.6595 H       
  37 H37           -5.5073    -5.0359     3.4895 H       
  38 H38           -4.7794    -7.3105     2.8943 H       
  39 H39           -2.7996    -7.6399     1.4696 H       
  40 H40           -1.5476    -5.6939     0.6302 H       
  41 H41            0.9824     3.6687     0.4040 H       
  42 H42           -3.2698     3.7899    -0.1409 H       
  43 H43           -3.2161     6.2403     0.0544 H       
  44 H44           -1.0809     7.4038     0.4259 H       
@<TRIPOS>BOND
   1    1    2 1
   2    1    5 1
   3    1   12 am
   4    2    6 2
   5    2    9 1
   6    3    4 1
   7    3    9 1
   8    3   27 1
   9    3   28 1
  10    4    5 1
  11    4   29 1
  12    4   30 1
  13    5   31 1
  14    5   32 1
  15    6    7 1
  16    6   33 1
  17    7    8 2
  18    7   10 1
  19    8    9 1
  20   10   11 1
  21   10   34 1
  22   10   35 1
  23   11   15 1
  24   12   13 1
  25   12   14 2
  26   13   23 ar
  27   13   22 ar
  28   15   16 ar
  29   15   20 ar
  30   16   17 ar
  31   16   36 1
  32   17   18 ar
  33   17   37 1
  34   18   19 ar
  35   18   38 1
  36   19   20 ar
  37   19   39 1
  38   20   40 1
  39   21   22 ar
  40   21   25 ar
  41   21   26 1
  42   22   41 1
  43   23   24 ar
  44   23   42 1
  45   24   25 ar
  46   24   43 1
  47   25   44 1

#	End of record

