#	Name: ASD01880006
#	Creating user name:	WinNT
#	Creation time:	15. 06. 2019 19:39

#	Modifying user name:	WinNT
#	Modification time:	15. 06. 2019 19:39

#	Program:	/corina/corina34_cracker 3.40 0067  02.08.2006

@<TRIPOS>MOLECULE
ASD01880006
  53   55    0    0    0
SMALL
NO_CHARGES


@<TRIPOS>ATOM
   1 N1            -0.0156     1.2876     0.1624 N.pl3   
   2 N2             0.0014     0.0005     0.1517 N.2     
   3 N3             1.2265    -0.4021     0.1228 N.2     
   4 C4             2.0040     0.6899     0.1152 C.2     
   5 N5             1.1946     1.7301     0.1405 N.2     
   6 C6             3.4877     0.7216     0.0848 C.ar    
   7 C7             4.2109    -0.4691     0.0600 C.ar    
   8 C8             5.5894    -0.4367     0.0318 C.ar    
   9 C9             6.2565     0.7808     0.0285 C.ar    
  10 C10            5.5385     1.9687     0.0536 C.ar    
  11 C11            4.1597     1.9423     0.0751 C.ar    
  12 C12           12.5870     4.2832    -0.0707 C.ar    
  13 C13           11.9582     5.5252    -0.0474 C.ar    
  14 C14           12.6960     6.6731    -0.0532 C.ar    
  15 C15           14.0956     6.6078    -0.0822 C.ar    
  16 C16           14.7338     5.3543    -0.1053 C.ar    
  17 C17           13.9720     4.1991    -0.0938 C.ar    
  18 C18           14.6455     2.8512    -0.1179 C.3     
  19 C19           14.9080     2.3865     1.3161 C.3     
  20 C20           15.5917     1.0181     1.2917 C.3     
  21 O21           16.0875     5.2785    -0.1338 O.3     
  22 C22           14.8900     7.8386    -0.0890 C.2     
  23 C23           14.2049     9.1771    -0.1898 C.3     
  24 O24           16.0996     7.7804    -0.0133 O.2     
  25 O25            7.6146     0.8098     0.0011 O.3     
  26 C26            8.2361     2.0966    -0.0007 C.3     
  27 O27           11.8420     3.1493    -0.0651 O.3     
  28 C28            9.7565     1.9286    -0.0330 C.3     
  29 C29           10.4219     3.3063    -0.0349 C.3     
  30 H30           -0.8140     1.8381     0.1799 H       
  31 H31            3.6925    -1.4166     0.0633 H       
  32 H32            6.1505    -1.3593     0.0126 H       
  33 H33            6.0599     2.9145     0.0513 H       
  34 H34            3.6016     2.8667     0.0946 H       
  35 H35           10.8798     5.5805    -0.0250 H       
  36 H36           12.2010     7.6328    -0.0358 H       
  37 H37           13.9997     2.1312    -0.6206 H       
  38 H38           15.5915     2.9272    -0.6540 H       
  39 H39           15.5537     3.1065     1.8188 H       
  40 H40           13.9620     2.3105     1.8523 H       
  41 H41           14.9460     0.2981     0.7889 H       
  42 H42           16.5377     1.0941     0.7555 H       
  43 H43           15.7787     0.6871     2.3132 H       
  44 H44           16.4983     5.2496     0.7411 H       
  45 H45           13.1360     9.0276    -0.3423 H       
  46 H46           14.3656     9.7378     0.7309 H       
  47 H47           14.6175     9.7340    -1.0311 H       
  48 H48            7.9135     2.6547    -0.8796 H       
  49 H49            7.9496     2.6397     0.8999 H       
  50 H50           10.0791     1.3704     0.8459 H       
  51 H51           10.0430     1.3854    -0.9336 H       
  52 H52           10.1355     3.8494     0.8657 H       
  53 H53           10.0993     3.8644    -0.9138 H       
@<TRIPOS>BOND
   1    1    2 1
   2    1    5 1
   3    1   30 1
   4    2    3 2
   5    3    4 1
   6    4    5 2
   7    4    6 1
   8    6    7 ar
   9    6   11 ar
  10    7    8 ar
  11    7   31 1
  12    8    9 ar
  13    8   32 1
  14    9   10 ar
  15    9   25 1
  16   10   11 ar
  17   10   33 1
  18   11   34 1
  19   12   13 ar
  20   12   27 1
  21   12   17 ar
  22   13   14 ar
  23   13   35 1
  24   14   15 ar
  25   14   36 1
  26   15   16 ar
  27   15   22 1
  28   16   17 ar
  29   16   21 1
  30   17   18 1
  31   18   19 1
  32   18   37 1
  33   18   38 1
  34   19   20 1
  35   19   39 1
  36   19   40 1
  37   20   41 1
  38   20   42 1
  39   20   43 1
  40   21   44 1
  41   22   23 1
  42   22   24 2
  43   23   45 1
  44   23   46 1
  45   23   47 1
  46   25   26 1
  47   26   28 1
  48   26   48 1
  49   26   49 1
  50   27   29 1
  51   28   29 1
  52   28   50 1
  53   28   51 1
  54   29   52 1
  55   29   53 1

#	End of record

