#	Name: ASD00120076
#	Creating user name:	WinNT
#	Creation time:	15. 06. 2019 18:31

#	Modifying user name:	WinNT
#	Modification time:	15. 06. 2019 18:31

#	Program:	/corina/corina34_cracker 3.40 0067  02.08.2006

@<TRIPOS>MOLECULE
ASD00120076
  46   48    0    0    0
SMALL
NO_CHARGES


@<TRIPOS>ATOM
   1 C1            -0.1189     1.5969     0.1152 C.ar    
   2 C2            -0.3114     0.2615     0.4183 C.ar    
   3 C3            -1.5912    -0.2468     0.5233 C.ar    
   4 C4            -2.6857     0.5849     0.3240 C.ar    
   5 C5            -2.4888     1.9259     0.0196 C.ar    
   6 C6            -1.2064     2.4290    -0.0783 C.ar    
   7 C7             1.2790     2.1481     0.0014 C.3     
   8 O8             1.2182     3.5569    -0.2304 O.3     
   9 N9            -3.9814     0.0740     0.4290 N.3     
  10 C10           -4.9818     1.1208     0.1815 C.3     
  11 C11           -6.3761     0.4875     0.1263 C.3     
  12 N12           -6.5838    -0.2930     1.3555 N.am    
  13 C13           -5.5529    -1.2677     1.7433 C.3     
  14 C14           -4.1910    -0.5653     1.7349 C.3     
  15 S15           -7.9419    -0.0796     2.2786 S.o2    
  16 O16           -7.6076    -0.5120     3.5903 O.2     
  17 O17           -8.4225     1.2261     1.9895 O.2     
  18 C18           -9.1610    -1.2022     1.6801 C.2     
  19 C19          -10.0204    -0.8792     0.7124 C.2     
  20 C20           -9.2958    -2.4881     2.1746 C.2     
  21 C21          -10.2682    -3.2074     1.6123 C.2     
  22 S22          -11.0792    -2.2447     0.3840 S.3     
  23 C23            2.0413     1.8774     1.3001 C.3     
  24 F24            2.2125     0.4983     1.4614 F       
  25 F25            3.2931     2.4993     1.2444 F       
  26 F26            1.3151     2.3869     2.3819 F       
  27 C27            2.0012     1.4701    -1.1647 C.3     
  28 F28            1.3043     1.7177    -2.3522 F       
  29 F29            3.2990     1.9818    -1.2703 F       
  30 F30            2.0608     0.0909    -0.9378 F       
  31 H31            0.5400    -0.3847     0.5728 H       
  32 H32           -1.7408    -1.2899     0.7598 H       
  33 H33           -3.3376     2.5753    -0.1359 H       
  34 H34           -1.0525     3.4716    -0.3146 H       
  35 H35            0.7480     3.8026    -1.0388 H       
  36 H36           -4.9473     1.8546     0.9868 H       
  37 H37           -4.7674     1.6117    -0.7678 H       
  38 H38           -7.1314     1.2704     0.0577 H       
  39 H39           -6.4458    -0.1694    -0.7407 H       
  40 H40           -5.7639    -1.6453     2.7438 H       
  41 H41           -5.5434    -2.0934     1.0318 H       
  42 H42           -3.4031    -1.2973     1.9122 H       
  43 H43           -4.1675     0.1920     2.5186 H       
  44 H44          -10.0601     0.0749     0.2080 H       
  45 H45           -8.6614    -2.8794     2.9562 H       
  46 H46          -10.5175    -4.2262     1.8700 H       
@<TRIPOS>BOND
   1    1    2 ar
   2    1    7 1
   3    1    6 ar
   4    2    3 ar
   5    2   31 1
   6    3    4 ar
   7    3   32 1
   8    4    5 ar
   9    4    9 1
  10    5    6 ar
  11    5   33 1
  12    6   34 1
  13    7    8 1
  14    7   23 1
  15    7   27 1
  16    8   35 1
  17    9   10 1
  18    9   14 1
  19   10   11 1
  20   10   36 1
  21   10   37 1
  22   11   12 1
  23   11   38 1
  24   11   39 1
  25   12   13 1
  26   12   15 am
  27   13   14 1
  28   13   40 1
  29   13   41 1
  30   14   42 1
  31   14   43 1
  32   15   16 2
  33   15   17 2
  34   15   18 1
  35   18   20 1
  36   18   19 2
  37   19   22 1
  38   19   44 1
  39   20   21 2
  40   20   45 1
  41   21   22 1
  42   21   46 1
  43   23   24 1
  44   23   25 1
  45   23   26 1
  46   27   28 1
  47   27   29 1
  48   27   30 1

#	End of record

