#	Name: ASD03330816
#	Creating user name:	WinNT
#	Creation time:	15. 06. 2019 20:38

#	Modifying user name:	WinNT
#	Modification time:	15. 06. 2019 20:38

#	Program:	/corina/corina34_cracker 3.40 0067  02.08.2006

@<TRIPOS>MOLECULE
ASD03330816
  55   57    0    0    0
SMALL
NO_CHARGES


@<TRIPOS>ATOM
   1 C1            -0.7433     2.5966     1.7373 C.2     
   2 N2            -1.0443     1.4788     2.4392 N.pl3   
   3 C3             0.6095     2.7500     1.7860 C.2     
   4 N4             1.1151     1.7197     2.4984 N.2     
   5 C5             0.1288     0.9477     2.8900 C.2     
   6 C6             0.2660    -0.2916     3.6865 C.ar    
   7 C7             1.3827     3.8434     1.1711 C.2     
   8 O8             0.8102     4.7183     0.5498 O.2     
   9 N9             2.7242     3.8739     1.2971 N.am    
  10 C10           -2.3947     0.9593     2.6726 C.3     
  11 C11           -3.1672     0.9538     1.3499 C.3     
  12 C12           -3.8461     2.3043     1.1443 C.3     
  13 N13           -3.0355     3.3899     1.7002 N.3     
  14 C14           -1.7325     3.4826     1.0252 C.3     
  15 C15           -0.7462    -0.6738     4.5673 C.ar    
  16 C16           -0.6122    -1.8306     5.3073 C.ar    
  17 C17            0.5229    -2.6108     5.1773 C.ar    
  18 C18            1.5303    -2.2370     4.3060 C.ar    
  19 C19            1.4056    -1.0857     3.5557 C.ar    
  20 C20            3.4929     4.9609     0.6858 C.3     
  21 C21            4.7917     5.1377     1.4294 C.2     
  22 C22            3.7849     4.6192    -0.7767 C.3     
  23 C23            2.4680     4.5119    -1.5481 C.3     
  24 O24            4.5926     5.6471    -1.3539 O.3     
  25 C25            4.5290     3.2844    -0.8498 C.3     
  26 O26            5.2592     4.2141     2.0613 O.2     
  27 N27            5.4337     6.3221     1.3921 N.am    
  28 C28            6.7518     6.4607     2.0164 C.3     
  29 H29            3.1807     3.1761     1.7927 H       
  30 H30           -2.3317    -0.0569     3.0619 H       
  31 H31           -2.9100     1.5948     3.3928 H       
  32 H32           -2.4768     0.7662     0.5276 H       
  33 H33           -3.9225     0.1684     1.3745 H       
  34 H34           -3.9887     2.4744     0.0771 H       
  35 H35           -4.8182     2.2949     1.6373 H       
  36 H36           -3.5290     4.2688     1.6559 H       
  37 H37           -1.3817     4.5143     1.0506 H       
  38 H38           -1.8343     3.1567    -0.0099 H       
  39 H39           -1.6326    -0.0654     4.6699 H       
  40 H40           -1.3949    -2.1274     5.9898 H       
  41 H41            0.6231    -3.5154     5.7588 H       
  42 H42            2.4143    -2.8499     4.2095 H       
  43 H43            2.1927    -0.7949     2.8758 H       
  44 H44            2.9173     5.8853     0.7350 H       
  45 H45            1.8865     5.4223    -1.4028 H       
  46 H46            2.6783     4.3806    -2.6095 H       
  47 H47            1.9009     3.6562    -1.1815 H       
  48 H48            4.1826     6.5228    -1.3418 H       
  49 H49            3.9130     2.5004    -0.4095 H       
  50 H50            4.7371     3.0410    -1.8917 H       
  51 H51            5.4672     3.3609    -0.3002 H       
  52 H52            5.0231     7.0827     0.9520 H       
  53 H53            6.6755     6.2359     3.0802 H       
  54 H54            7.4505     5.7676     1.5478 H       
  55 H55            7.1102     7.4818     1.8856 H       
@<TRIPOS>BOND
   1    1    2 1
   2    1    3 2
   3    1   14 1
   4    2   10 1
   5    2    5 1
   6    3    4 1
   7    3    7 1
   8    4    5 2
   9    5    6 1
  10    6   15 ar
  11    6   19 ar
  12    7    8 2
  13    7    9 am
  14    9   20 1
  15    9   29 1
  16   10   11 1
  17   10   30 1
  18   10   31 1
  19   11   12 1
  20   11   32 1
  21   11   33 1
  22   12   13 1
  23   12   34 1
  24   12   35 1
  25   13   14 1
  26   13   36 1
  27   14   37 1
  28   14   38 1
  29   15   16 ar
  30   15   39 1
  31   16   17 ar
  32   16   40 1
  33   17   18 ar
  34   17   41 1
  35   18   19 ar
  36   18   42 1
  37   19   43 1
  38   20   21 1
  39   20   22 1
  40   20   44 1
  41   21   26 2
  42   21   27 am
  43   22   23 1
  44   22   24 1
  45   22   25 1
  46   23   45 1
  47   23   46 1
  48   23   47 1
  49   24   48 1
  50   25   49 1
  51   25   50 1
  52   25   51 1
  53   27   28 1
  54   27   52 1
  55   28   53 1
  56   28   54 1
  57   28   55 1

#	End of record

