#	Name: ASD01841004
#	Creating user name:	WinNT
#	Creation time:	15. 06. 2019 19:38

#	Modifying user name:	WinNT
#	Modification time:	15. 06. 2019 19:38

#	Program:	/corina/corina34_cracker 3.40 0067  02.08.2006

@<TRIPOS>MOLECULE
ASD01841004
  54   56    0    0    0
SMALL
NO_CHARGES


@<TRIPOS>ATOM
   1 C1            -0.0178     1.4648     0.0101 C.3     
   2 N2             0.0021    -0.0041     0.0020 N.4     
   3 C3             0.6897    -0.4778    -1.2066 C.3     
   4 C4             2.1250     0.0518    -1.2175 C.3     
   5 C5             1.4175     1.9944    -0.0008 C.3     
   6 C6            -1.3761    -0.5125     0.0124 C.3     
   7 C7            -1.3584    -2.0365    -0.1216 C.3     
   8 C8            -2.7938    -2.5661    -0.1108 C.3     
   9 C9            -2.7762    -4.0901    -0.2449 C.3     
  10 C10           -2.0118    -4.6871     0.9086 C.ar    
  11 C11           -4.1900    -4.6118    -0.2342 C.ar    
  12 O12           -2.1439    -4.4529    -1.4740 O.3     
  13 C13           -1.3283    -5.8772     0.7428 C.ar    
  14 C14           -0.6272    -6.4248     1.8008 C.ar    
  15 C15           -0.6091    -5.7820     3.0245 C.ar    
  16 C16           -1.2918    -4.5914     3.1900 C.ar    
  17 C17           -1.9893    -4.0416     2.1308 C.ar    
  18 C18           -4.5056    -5.7673    -0.9241 C.ar    
  19 C19           -5.8025    -6.2458    -0.9143 C.ar    
  20 C20           -6.7836    -5.5689    -0.2142 C.ar    
  21 C21           -6.4678    -4.4138     0.4764 C.ar    
  22 C22           -5.1700    -3.9378     0.4702 C.ar    
  23 C23            3.4833     2.0291    -1.2198 C.3     
  24 N24            2.1051     1.5206    -1.2094 N.4     
  25 H25           -0.5450     1.8259    -0.8730 H       
  26 H26           -0.5280     1.8163     0.9069 H       
  27 H27            0.4901    -0.3383     0.8195 H       
  28 H28            0.7044    -1.5677    -1.2126 H       
  29 H29            0.1625    -0.1167    -2.0897 H       
  30 H30            2.6522    -0.3093    -0.3344 H       
  31 H31            2.6352    -0.2998    -2.1143 H       
  32 H32            1.4028     3.0842     0.0052 H       
  33 H33            1.9447     1.6333     0.8823 H       
  34 H34           -1.8584    -0.2358     0.9500 H       
  35 H35           -1.9290    -0.0808    -0.8218 H       
  36 H36           -0.8762    -2.3132    -1.0592 H       
  37 H37           -0.8055    -2.4683     0.7126 H       
  38 H38           -3.2761    -2.2894     0.8267 H       
  39 H39           -3.3467    -2.1344    -0.9450 H       
  40 H40           -2.5833    -4.1023    -2.2608 H       
  41 H41           -1.3425    -6.3794    -0.2133 H       
  42 H42           -0.0939    -7.3549     1.6715 H       
  43 H43           -0.0619    -6.2102     3.8513 H       
  44 H44           -1.2779    -4.0894     4.1462 H       
  45 H45           -2.5227    -3.1115     2.2601 H       
  46 H46           -3.7390    -6.2961    -1.4710 H       
  47 H47           -6.0492    -7.1482    -1.4539 H       
  48 H48           -7.7970    -5.9423    -0.2072 H       
  49 H49           -7.2345    -3.8848     1.0230 H       
  50 H50           -4.9233    -3.0353     1.0098 H       
  51 H51            3.9935     1.6776    -2.1166 H       
  52 H52            3.4685     3.1190    -1.2138 H       
  53 H53            4.0105     1.6680    -0.3367 H       
  54 H54            1.6171     1.8549    -2.0268 H       
@<TRIPOS>BOND
   1    1    2 1
   2    1    5 1
   3    1   25 1
   4    1   26 1
   5    2    3 1
   6    2    6 1
   7    2   27 1
   8    3    4 1
   9    3   28 1
  10    3   29 1
  11    4   24 1
  12    4   30 1
  13    4   31 1
  14    5   24 1
  15    5   32 1
  16    5   33 1
  17    6    7 1
  18    6   34 1
  19    6   35 1
  20    7    8 1
  21    7   36 1
  22    7   37 1
  23    8    9 1
  24    8   38 1
  25    8   39 1
  26    9   10 1
  27    9   11 1
  28    9   12 1
  29   10   13 ar
  30   10   17 ar
  31   11   18 ar
  32   11   22 ar
  33   12   40 1
  34   13   14 ar
  35   13   41 1
  36   14   15 ar
  37   14   42 1
  38   15   16 ar
  39   15   43 1
  40   16   17 ar
  41   16   44 1
  42   17   45 1
  43   18   19 ar
  44   18   46 1
  45   19   20 ar
  46   19   47 1
  47   20   21 ar
  48   20   48 1
  49   21   22 ar
  50   21   49 1
  51   22   50 1
  52   23   24 1
  53   23   51 1
  54   23   52 1
  55   23   53 1
  56   24   54 1

#	End of record

