#	Name: ASD01140272
#	Creating user name:	WinNT
#	Creation time:	15. 06. 2019 19:00

#	Modifying user name:	WinNT
#	Modification time:	15. 06. 2019 19:00

#	Program:	/corina/corina34_cracker 3.40 0067  02.08.2006

@<TRIPOS>MOLECULE
ASD01140272
  43   46    0    0    0
SMALL
NO_CHARGES


@<TRIPOS>ATOM
   1 C1            -0.0167     1.3810     0.0096 C.ar    
   2 C2             0.0021    -0.0041     0.0020 C.ar    
   3 C3             1.1990    -0.6806    -0.0007 C.ar    
   4 C4             2.4164     0.0216     0.0037 C.ar    
   5 C5             2.3884     1.4170    -0.0126 C.ar    
   6 C6             1.1679     2.0865     0.0021 C.ar    
   7 C7             3.6540    -0.7592     0.0564 C.2     
   8 N8             4.7821    -0.5213    -0.6115 N.am    
   9 C9             4.8979     0.5998    -1.5507 C.3     
  10 C10            4.6736     1.8721    -0.7754 C.2     
  11 N11            3.5540     2.1838    -0.0764 N.pl3   
  12 C12           -1.2944    -0.7723    -0.0029 C.3     
  13 C13            3.7667     3.3890     0.5210 C.2     
  14 O14            3.6522    -1.7293     0.7892 O.2     
  15 C15            5.5385     2.9140    -0.6355 C.2     
  16 N16            4.9439     3.8277     0.1775 N.2     
  17 C17            6.8705     3.0300    -1.2503 C.2     
  18 O18            7.6241     4.1245    -1.0243 O.3     
  19 O19            7.2912     2.1390    -1.9619 O.2     
  20 C20            8.9272     4.1711    -1.6631 C.3     
  21 C21           -2.2487    -0.5552     1.1732 C.3     
  22 C22           -2.5861     0.0230    -0.2026 C.3     
  23 C23            9.6304     5.4784    -1.2926 C.3     
  24 C24            5.9352    -1.4004    -0.4025 C.3     
  25 H25           -0.9592     1.9083     0.0170 H       
  26 H26            1.2037    -1.7605    -0.0058 H       
  27 H27            1.1489     3.1663     0.0070 H       
  28 H28            5.8933     0.6083    -1.9948 H       
  29 H29            4.1445     0.5059    -2.3327 H       
  30 H30           -1.2467    -1.7722    -0.4344 H       
  31 H31            3.0723     3.8982     1.1730 H       
  32 H32            9.5280     3.3269    -1.3248 H       
  33 H33            8.8037     4.1189    -2.7448 H       
  34 H34           -2.8291    -1.4121     1.5152 H       
  35 H35           -1.9388     0.1433     1.9504 H       
  36 H36           -2.4982     1.1019    -0.3305 H       
  37 H37           -3.3885    -0.4535    -0.7657 H       
  38 H38            9.0296     6.3227    -1.6308 H       
  39 H39            9.7540     5.5306    -0.2108 H       
  40 H40           10.6086     5.5134    -1.7721 H       
  41 H41            5.6764    -2.1732     0.3213 H       
  42 H42            6.2128    -1.8665    -1.3480 H       
  43 H43            6.7743    -0.8157    -0.0255 H       
@<TRIPOS>BOND
   1    1    2 ar
   2    1    6 ar
   3    1   25 1
   4    2    3 ar
   5    2   12 1
   6    3    4 ar
   7    3   26 1
   8    4    5 ar
   9    4    7 1
  10    5    6 ar
  11    5   11 1
  12    6   27 1
  13    7    8 am
  14    7   14 2
  15    8    9 1
  16    8   24 1
  17    9   10 1
  18    9   28 1
  19    9   29 1
  20   10   11 1
  21   10   15 2
  22   11   13 1
  23   12   21 1
  24   12   22 1
  25   12   30 1
  26   13   16 2
  27   13   31 1
  28   15   16 1
  29   15   17 1
  30   17   18 1
  31   17   19 2
  32   18   20 1
  33   20   23 1
  34   20   32 1
  35   20   33 1
  36   21   22 1
  37   21   34 1
  38   21   35 1
  39   22   36 1
  40   22   37 1
  41   23   38 1
  42   23   39 1
  43   23   40 1
  44   24   41 1
  45   24   42 1
  46   24   43 1

#	End of record

