#	Name: ASD03730620
#	Creating user name:	WinNT
#	Creation time:	15. 06. 2019 20:44

#	Modifying user name:	WinNT
#	Modification time:	15. 06. 2019 20:44

#	Program:	/corina/corina34_cracker 3.40 0067  02.08.2006

@<TRIPOS>MOLECULE
ASD03730620
  65   70    0    0    0
SMALL
NO_CHARGES


@<TRIPOS>ATOM
   1 O1            -0.4727     1.1468     1.3302 O.3     
   2 C2            -0.4058    -0.2895     1.4046 C.3     
   3 O3             0.6716    -0.6288     0.5119 O.3     
   4 C4             1.4940     0.4615     0.5013 C.ar    
   5 C5             0.7890     1.5536     1.0016 C.ar    
   6 C6             2.8095     0.6119     0.1012 C.ar    
   7 C7             3.4359     1.8514     0.1897 C.ar    
   8 C8             2.7173     2.9383     0.6784 C.ar    
   9 C9             1.4080     2.7895     1.0860 C.ar    
  10 O10            4.7138     2.2069    -0.1278 O.3     
  11 C11            3.6415     4.1252     0.6196 C.3     
  12 C12            4.7847     3.6375    -0.2811 C.3     
  13 N13            3.0752     6.3078     0.9904 N.am    
  14 C14            2.9675     5.3428     0.0554 C.2     
  15 C15            4.1330     4.5358     1.9753 C.ar    
  16 C16            4.8251     3.8801     2.9844 C.ar    
  17 C17            5.1434     4.5581     4.1609 C.ar    
  18 C18            4.7671     5.8779     4.3130 C.ar    
  19 C19            4.0796     6.5296     3.3095 C.ar    
  20 C20            3.7543     5.8648     2.1283 C.ar    
  21 O21            2.4316     5.4391    -1.0284 O.2     
  22 C22            2.5423     7.6632     0.8319 C.3     
  23 C23            1.1066     7.7116     1.3585 C.3     
  24 C24            0.5501     9.1271     1.1930 C.3     
  25 C25           -0.8856     9.1755     1.7197 C.3     
  26 C26           -1.4421    10.5911     1.5542 C.3     
  27 C27            5.2246     2.4617     2.8120 C.ar    
  28 C28            4.7013     1.4818     3.6541 C.ar    
  29 C29            5.0757     0.1607     3.4900 C.ar    
  30 C30            5.9742    -0.1882     2.4843 C.ar    
  31 C31            6.4942     0.7872     1.6478 C.ar    
  32 C32            6.1188     2.1064     1.8044 C.ar    
  33 O33            6.3420    -1.4872     2.3233 O.3     
  34 C34            7.2669    -1.7740     1.2725 C.3     
  35 O35            4.5672    -0.7974     4.3103 O.3     
  36 C36            3.6516    -0.3679     5.3198 C.3     
  37 H37           -0.1764    -0.6100     2.4209 H       
  38 H38           -1.3404    -0.7345     1.0635 H       
  39 H39            3.3542    -0.2382    -0.2821 H       
  40 H40            0.8643     3.6390     1.4721 H       
  41 H41            5.7438     4.0175     0.0708 H       
  42 H42            4.6101     3.9249    -1.3180 H       
  43 H43            5.6815     4.0530     4.9495 H       
  44 H44            5.0129     6.4040     5.2237 H       
  45 H45            3.7912     7.5621     3.4404 H       
  46 H46            3.1594     8.3642     1.3940 H       
  47 H47            2.5516     7.9362    -0.2234 H       
  48 H48            0.4896     7.0106     0.7964 H       
  49 H49            1.0973     7.4386     2.4138 H       
  50 H50            1.1672     9.8282     1.7551 H       
  51 H51            0.5594     9.4001     0.1378 H       
  52 H52           -1.5026     8.4745     1.1576 H       
  53 H53           -0.8949     8.9026     2.7749 H       
  54 H54           -0.8250    11.2921     2.1162 H       
  55 H55           -1.4328    10.8641     0.4989 H       
  56 H56           -2.4649    10.6256     1.9294 H       
  57 H57            4.0050     1.7539     4.4336 H       
  58 H58            7.1912     0.5140     0.8693 H       
  59 H59            6.5219     2.8639     1.1486 H       
  60 H60            6.8375    -1.4707     0.3177 H       
  61 H61            8.1935    -1.2264     1.4445 H       
  62 H62            7.4752    -2.8438     1.2538 H       
  63 H63            4.1448     0.3485     5.9768 H       
  64 H64            2.7884     0.1040     4.8505 H       
  65 H65            3.3231    -1.2287     5.9023 H       
@<TRIPOS>BOND
   1    1    2 1
   2    1    5 1
   3    2    3 1
   4    2   37 1
   5    2   38 1
   6    3    4 1
   7    4    5 ar
   8    4    6 ar
   9    5    9 ar
  10    6    7 ar
  11    6   39 1
  12    7    8 ar
  13    7   10 1
  14    8    9 ar
  15    8   11 1
  16    9   40 1
  17   10   12 1
  18   11   12 1
  19   11   14 1
  20   11   15 1
  21   12   41 1
  22   12   42 1
  23   13   14 am
  24   13   20 1
  25   13   22 1
  26   14   21 2
  27   15   16 ar
  28   15   20 ar
  29   16   17 ar
  30   16   27 1
  31   17   18 ar
  32   17   43 1
  33   18   19 ar
  34   18   44 1
  35   19   20 ar
  36   19   45 1
  37   22   23 1
  38   22   46 1
  39   22   47 1
  40   23   24 1
  41   23   48 1
  42   23   49 1
  43   24   25 1
  44   24   50 1
  45   24   51 1
  46   25   26 1
  47   25   52 1
  48   25   53 1
  49   26   54 1
  50   26   55 1
  51   26   56 1
  52   27   28 ar
  53   27   32 ar
  54   28   29 ar
  55   28   57 1
  56   29   30 ar
  57   29   35 1
  58   30   31 ar
  59   30   33 1
  60   31   32 ar
  61   31   58 1
  62   32   59 1
  63   33   34 1
  64   34   60 1
  65   34   61 1
  66   34   62 1
  67   35   36 1
  68   36   63 1
  69   36   64 1
  70   36   65 1

#	End of record

