#	Name: ASD04880524
#	Creating user name:	WinNT
#	Creation time:	15. 06. 2019 20:53

#	Modifying user name:	WinNT
#	Modification time:	15. 06. 2019 20:53

#	Program:	/corina/corina34_cracker 3.40 0067  02.08.2006

@<TRIPOS>MOLECULE
ASD04880524
  43   46    0    0    0
SMALL
NO_CHARGES


@<TRIPOS>ATOM
   1 C1            -0.0144     1.2117     0.0087 C.2     
   2 O2             0.0580    -0.0018    -0.0140 O.2     
   3 C3             1.2185     2.0262    -0.0194 C.ar    
   4 C4             2.4678     1.4100     0.0723 C.ar    
   5 C5             3.6162     2.1775     0.0450 C.ar    
   6 C6             3.5284     3.5557    -0.0728 C.ar    
   7 C7             2.2927     4.1704    -0.1634 C.ar    
   8 C8             1.1388     3.4142    -0.1435 C.ar    
   9 F9             4.8266     1.5839     0.1335 F       
  10 N10           -1.2192     1.8142     0.0539 N.am    
  11 N11           -1.4359     3.1833     0.1955 N.2     
  12 C12           -2.6791     3.5205     0.2120 C.2     
  13 C13           -3.5394     2.2855     0.0679 C.3     
  14 C14           -2.5205     1.1342    -0.0447 C.3     
  15 C15           -2.7779     7.2594     0.6063 C.ar    
  16 C16           -2.2919     5.9627     0.4770 C.ar    
  17 C17           -3.1852     4.8989     0.3506 C.ar    
  18 C18           -4.5614     5.1431     0.3551 C.ar    
  19 C19           -5.0347     6.4329     0.4844 C.ar    
  20 C20           -4.1531     7.4893     0.6098 C.ar    
  21 C21           -1.8341     8.3960     0.7474 C.ar    
  22 C22           -2.3193     9.6956     0.8770 C.ar    
  23 C23           -1.4370    10.7490     1.0079 C.ar    
  24 C24           -0.0736    10.5162     1.0101 C.ar    
  25 C25            0.4135     9.2280     0.8813 C.ar    
  26 C26           -0.4599     8.1666     0.7565 C.ar    
  27 H27            2.5363     0.3361     0.1648 H       
  28 H28            4.4285     4.1521    -0.0934 H       
  29 H29            2.2311     5.2448    -0.2543 H       
  30 H30            0.1751     3.8959    -0.2193 H       
  31 H31           -4.1727     2.1562     0.9456 H       
  32 H32           -4.1451     2.3449    -0.8364 H       
  33 H33           -2.6165     0.6270    -1.0047 H       
  34 H34           -2.6483     0.4296     0.7771 H       
  35 H35           -1.2275     5.7803     0.4734 H       
  36 H36           -5.2553     4.3213     0.2571 H       
  37 H37           -6.0988     6.6173     0.4875 H       
  38 H38           -4.5303     8.4963     0.7102 H       
  39 H39           -3.3837     9.8785     0.8747 H       
  40 H40           -1.8120    11.7568     1.1085 H       
  41 H41            0.6133    11.3434     1.1125 H       
  42 H42            1.4791     9.0520     0.8829 H       
  43 H43           -0.0786     7.1607     0.6608 H       
@<TRIPOS>BOND
   1    1    2 2
   2    1    3 1
   3    1   10 am
   4    3    4 ar
   5    3    8 ar
   6    4    5 ar
   7    4   27 1
   8    5    6 ar
   9    5    9 1
  10    6    7 ar
  11    6   28 1
  12    7    8 ar
  13    7   29 1
  14    8   30 1
  15   10   11 1
  16   10   14 1
  17   11   12 2
  18   12   13 1
  19   12   17 1
  20   13   14 1
  21   13   31 1
  22   13   32 1
  23   14   33 1
  24   14   34 1
  25   15   16 ar
  26   15   20 ar
  27   15   21 1
  28   16   17 ar
  29   16   35 1
  30   17   18 ar
  31   18   19 ar
  32   18   36 1
  33   19   20 ar
  34   19   37 1
  35   20   38 1
  36   21   22 ar
  37   21   26 ar
  38   22   23 ar
  39   22   39 1
  40   23   24 ar
  41   23   40 1
  42   24   25 ar
  43   24   41 1
  44   25   26 ar
  45   25   42 1
  46   26   43 1

#	End of record

