#	Name: ASD07020008
#	Creating user name:	WinNT
#	Creation time:	15. 06. 2019 21:08

#	Modifying user name:	WinNT
#	Modification time:	15. 06. 2019 21:08

#	Program:	/corina/corina34_cracker 3.40 0067  02.08.2006

@<TRIPOS>MOLECULE
ASD07020008
  20   21    0    0    0
SMALL
NO_CHARGES


@<TRIPOS>ATOM
   1 C1            -0.0163     1.3538     0.0095 C.2     
   2 N2             0.0021    -0.0041     0.0020 N.pl3   
   3 C3             1.3177    -0.3884    -0.0126 C.2     
   4 C4             2.0536     0.7396    -0.0136 C.2     
   5 C5            -1.1152    -0.8536     0.0085 C.ar    
   6 C6            -2.3953    -0.3170     0.0236 C.ar    
   7 C7            -3.4942    -1.1531     0.0295 C.ar    
   8 C8            -3.3190    -2.5294     0.0209 C.ar    
   9 C9            -2.0397    -3.0661     0.0063 C.ar    
  10 C10           -0.9404    -2.2306    -0.0059 C.ar    
  11 O11           -4.4011    -3.3522     0.0272 O.3     
  12 N12            1.2152     1.7863     0.0000 N.2     
  13 H13           -0.9017     1.9722     0.0172 H       
  14 H14            1.6924    -1.4013    -0.0211 H       
  15 H15            3.1323     0.7921    -0.0236 H       
  16 H16           -2.5318     0.7543     0.0310 H       
  17 H17           -4.4902    -0.7357     0.0412 H       
  18 H18           -1.9037    -4.1375     0.0003 H       
  19 H19            0.0554    -2.6485    -0.0221 H       
  20 H20           -4.7227    -3.5858    -0.8543 H       
@<TRIPOS>BOND
   1    1    2 1
   2    1   12 2
   3    1   13 1
   4    2    3 1
   5    2    5 1
   6    3    4 2
   7    3   14 1
   8    4   12 1
   9    4   15 1
  10    5    6 ar
  11    5   10 ar
  12    6    7 ar
  13    6   16 1
  14    7    8 ar
  15    7   17 1
  16    8    9 ar
  17    8   11 1
  18    9   10 ar
  19    9   18 1
  20   10   19 1
  21   11   20 1

#	End of record

