#	Name: ASD01680048
#	Creating user name:	WinNT
#	Creation time:	15. 06. 2019 19:22

#	Modifying user name:	WinNT
#	Modification time:	15. 06. 2019 19:22

#	Program:	/corina/corina34_cracker 3.40 0067  02.08.2006

@<TRIPOS>MOLECULE
ASD01680048
  84   87    0    0    0
SMALL
NO_CHARGES


@<TRIPOS>ATOM
   1 N1            -0.4706    -1.5615    -2.3229 N.am    
   2 C2            -0.1856    -2.9275    -2.7986 C.3     
   3 C3             1.1049    -3.3465    -2.0512 C.3     
   4 C4             1.8952    -2.0116    -2.0217 C.3     
   5 C5             0.7831    -0.9552    -1.8516 C.3     
   6 C6            -1.6792    -0.9651    -2.3251 C.2     
   7 O7            -2.6308    -1.5224    -2.8355 O.2     
   8 O8            -1.8323     0.2481    -1.7618 O.3     
   9 C9            -1.3380    -3.8676    -2.4395 C.3     
  10 N10           -1.6729    -3.7105    -1.0220 N.pl3   
  11 C11           -2.7518    -4.3919    -0.4861 C.ar    
  12 N12           -3.0407    -4.2384     0.7978 N.ar    
  13 C13           -4.0650    -4.8751     1.3411 C.ar    
  14 C14           -4.8388    -5.7099     0.5503 C.ar    
  15 C15           -4.5086    -5.8476    -0.7887 C.ar    
  16 N16           -3.4745    -5.1781    -1.2705 N.ar    
  17 O17            2.7953    -1.9813    -0.9123 O.3     
  18 C18            3.9736    -1.2057    -1.1408 C.3     
  19 C19            4.8459    -1.2435     0.0876 C.2     
  20 N20            6.0179    -0.5781     0.1025 N.am    
  21 O21            4.4932    -1.8726     1.0626 O.2     
  22 C22            6.8658    -0.6148     1.2966 C.3     
  23 C23            8.1274     0.2156     1.0520 C.3     
  24 N24            7.7485     1.5713     0.6459 N.am    
  25 S25            8.6714     2.3939    -0.4558 S.o2    
  26 O26            8.0305     3.6455    -0.6613 O.2     
  27 O27           10.0187     2.2729    -0.0208 O.2     
  28 C28            8.5614     1.5220    -1.9830 C.ar    
  29 C29            9.4555     0.5061    -2.2648 C.ar    
  30 C30            9.3692    -0.1780    -3.4629 C.ar    
  31 C31            8.3885     0.1536    -4.3791 C.ar    
  32 C32            7.4939     1.1688    -4.0968 C.ar    
  33 C33            7.5774     1.8500    -2.8969 C.ar    
  34 C34            6.5989     2.9534    -2.5870 C.3     
  35 C35            8.2951    -0.5915    -5.6856 C.3     
  36 C36           10.5246     0.1446    -1.2661 C.3     
  37 C37            8.9403     0.2795     2.3193 C.2     
  38 O38            9.1788     1.3478     2.8308 O.2     
  39 O39            9.3995    -0.8505     2.8798 O.3     
  40 C40           -3.1621     0.8300    -1.8009 C.3     
  41 C41           -3.1404     2.1781    -1.1277 C.ar    
  42 C42           -2.8725     3.3154    -1.8665 C.ar    
  43 C43           -2.8527     4.5520    -1.2490 C.ar    
  44 C44           -3.1011     4.6513     0.1072 C.ar    
  45 C45           -3.3699     3.5142     0.8458 C.ar    
  46 C46           -3.3941     2.2781     0.2275 C.ar    
  47 H47           -0.0170    -2.9267    -3.8755 H       
  48 H48            0.8780    -3.6885    -1.0414 H       
  49 H49            1.6483    -4.1100    -2.6078 H       
  50 H50            2.4311    -1.8599    -2.9587 H       
  51 H51            1.0155    -0.0730    -2.4481 H       
  52 H52            0.6902    -0.6808    -0.8008 H       
  53 H53           -2.2090    -3.6237    -3.0478 H       
  54 H54           -1.0389    -4.8983    -2.6301 H       
  55 H55           -1.1384    -3.1289    -0.4590 H       
  56 H56           -4.2953    -4.7462     2.3884 H       
  57 H57           -5.6805    -6.2419     0.9686 H       
  58 H58           -5.0910    -6.4906    -1.4320 H       
  59 H59            4.5214    -1.6181    -1.9881 H       
  60 H60            3.6937    -0.1745    -1.3561 H       
  61 H61            6.2999    -0.0750    -0.6774 H       
  62 H62            6.3181    -0.2024     2.1440 H       
  63 H63            7.1457    -1.6460     1.5120 H       
  64 H64            8.7200    -0.2477     0.2631 H       
  65 H65            6.9572     1.9870     1.0225 H       
  66 H66           10.0682    -0.9712    -3.6834 H       
  67 H67            6.7279     1.4281    -4.8127 H       
  68 H68            7.0548     3.9174    -2.8129 H       
  69 H69            5.7022     2.8246    -3.1931 H       
  70 H70            6.3320     2.9163    -1.5308 H       
  71 H71            7.6370    -1.4523    -5.5668 H       
  72 H72            7.8932     0.0699    -6.4531 H       
  73 H73            9.2875    -0.9311    -5.9820 H       
  74 H74           10.0978    -0.4927    -0.4916 H       
  75 H75           11.3295    -0.3881    -1.7723 H       
  76 H76           10.9197     1.0533    -0.8119 H       
  77 H77            9.9162    -0.7591     3.6920 H       
  78 H78           -3.4772     0.9467    -2.8378 H       
  79 H79           -3.8608     0.1751    -1.2804 H       
  80 H80           -2.6784     3.2377    -2.9261 H       
  81 H81           -2.6427     5.4404    -1.8260 H       
  82 H82           -3.0849     5.6174     0.5898 H       
  83 H83           -3.5637     3.5918     1.9054 H       
  84 H84           -3.6077     1.3900     0.8038 H       
@<TRIPOS>BOND
   1    1    2 1
   2    1    5 1
   3    1    6 am
   4    2    3 1
   5    2    9 1
   6    2   47 1
   7    3    4 1
   8    3   48 1
   9    3   49 1
  10    4    5 1
  11    4   17 1
  12    4   50 1
  13    5   51 1
  14    5   52 1
  15    6    7 2
  16    6    8 1
  17    8   40 1
  18    9   10 1
  19    9   53 1
  20    9   54 1
  21   10   11 1
  22   10   55 1
  23   11   12 ar
  24   11   16 ar
  25   12   13 ar
  26   13   14 ar
  27   13   56 1
  28   14   15 ar
  29   14   57 1
  30   15   16 ar
  31   15   58 1
  32   17   18 1
  33   18   19 1
  34   18   59 1
  35   18   60 1
  36   19   20 am
  37   19   21 2
  38   20   22 1
  39   20   61 1
  40   22   23 1
  41   22   62 1
  42   22   63 1
  43   23   24 1
  44   23   37 1
  45   23   64 1
  46   24   25 am
  47   24   65 1
  48   25   26 2
  49   25   27 2
  50   25   28 1
  51   28   29 ar
  52   28   33 ar
  53   29   30 ar
  54   29   36 1
  55   30   31 ar
  56   30   66 1
  57   31   32 ar
  58   31   35 1
  59   32   33 ar
  60   32   67 1
  61   33   34 1
  62   34   68 1
  63   34   69 1
  64   34   70 1
  65   35   71 1
  66   35   72 1
  67   35   73 1
  68   36   74 1
  69   36   75 1
  70   36   76 1
  71   37   38 2
  72   37   39 1
  73   39   77 1
  74   40   41 1
  75   40   78 1
  76   40   79 1
  77   41   42 ar
  78   41   46 ar
  79   42   43 ar
  80   42   80 1
  81   43   44 ar
  82   43   81 1
  83   44   45 ar
  84   44   82 1
  85   45   46 ar
  86   45   83 1
  87   46   84 1

#	End of record

