#	Name: ASD01208661
#	Creating user name:	WinNT
#	Creation time:	15. 06. 2019 19:10

#	Modifying user name:	WinNT
#	Modification time:	15. 06. 2019 19:10

#	Program:	/corina/corina34_cracker 3.40 0067  02.08.2006

@<TRIPOS>MOLECULE
ASD01208661
  61   64    0    0    0
SMALL
NO_CHARGES


@<TRIPOS>ATOM
   1 C1             1.4208    -0.7969    -3.9592 C.ar    
   2 C2             2.6123    -0.0721    -3.9978 C.ar    
   3 C3             3.3810     0.0213    -2.8519 C.ar    
   4 C4             2.9318    -0.6160    -1.6980 C.ar    
   5 C5             1.7317    -1.3221    -1.7342 C.ar    
   6 N6             1.0250    -1.3916    -2.8391 N.ar    
   7 C7             0.5872    -0.8992    -5.1755 C.2     
   8 O8             0.9406    -0.3538    -6.2016 O.2     
   9 O9            -0.5646    -1.5973    -5.1459 O.3     
  10 O10            3.6551    -0.5503    -0.5519 O.3     
  11 C11            4.8047     0.1742    -0.5636 C.ar    
  12 C12            4.7515     1.5596    -0.4977 C.ar    
  13 C13            5.9221     2.3039    -0.5089 C.ar    
  14 C14            7.1496     1.6667    -0.5860 C.ar    
  15 C15            7.2078     0.2743    -0.6525 C.ar    
  16 C16            6.0281    -0.4711    -0.6356 C.ar    
  17 N17            8.7092    -1.7606    -0.8047 N.pl3   
  18 C18            8.5156    -0.4098    -0.7349 C.2     
  19 C19            9.7472     0.2048    -0.7545 C.2     
  20 C20           10.7170    -0.7955    -0.8384 C.2     
  21 C21           10.0604    -2.0067    -0.8686 C.2     
  22 O22            9.9928    -4.4843    -0.9811 O.3     
  23 C23           10.6938    -3.3303    -0.9547 C.2     
  24 N24           11.9826    -3.4999    -1.0131 N.2     
  25 C25           12.2581    -4.9468    -1.1070 C.3     
  26 C26           10.8678    -5.5173    -1.4786 C.3     
  27 C27           10.7258    -5.6745    -2.9938 C.3     
  28 O28            5.8644     3.6601    -0.4446 O.3     
  29 C29            7.1083     4.3595    -0.3692 C.3     
  30 C30            6.8866     5.7255     0.2834 C.3     
  31 C31            7.6709     4.5530    -1.7787 C.3     
  32 O32            6.0534     6.5257    -0.5579 O.3     
  33 C33            5.7830     7.8289    -0.0378 C.3     
  34 C34           -1.3322    -1.6552    -6.3771 C.3     
  35 H35            2.9304     0.4094    -4.9107 H       
  36 H36            4.3081     0.5753    -2.8520 H       
  37 H37            1.3778    -1.8186    -0.8427 H       
  38 H38            3.7961     2.0595    -0.4379 H       
  39 H39            8.0605     2.2470    -0.5951 H       
  40 H40            6.0689    -1.5493    -0.6827 H       
  41 H41            8.0105    -2.4335    -0.8049 H       
  42 H42            9.9299     1.2684    -0.7132 H       
  43 H43           11.7862    -0.6474    -0.8732 H       
  44 H44           12.9860    -5.1542    -1.8913 H       
  45 H45           12.5971    -5.3413    -0.1491 H       
  46 H46           10.6845    -6.4637    -0.9698 H       
  47 H47           10.9574    -4.7271    -3.4807 H       
  48 H48           11.4153    -6.4419    -3.3457 H       
  49 H49            9.7036    -5.9664    -3.2346 H       
  50 H50            7.8142     3.7820     0.2277 H       
  51 H51            6.4038     5.5917     1.2514 H       
  52 H52            7.8469     6.2222     0.4219 H       
  53 H53            6.9650     5.1305    -2.3756 H       
  54 H54            8.6197     5.0864    -1.7212 H       
  55 H55            7.8289     3.5798    -2.2436 H       
  56 H56            5.2773     7.7387     0.9236 H       
  57 H57            6.7204     8.3692     0.0941 H       
  58 H58            5.1450     8.3728    -0.7343 H       
  59 H59           -2.2335    -2.2465    -6.2159 H       
  60 H60           -1.6093    -0.6455    -6.6803 H       
  61 H61           -0.7298    -2.1170    -7.1594 H       
@<TRIPOS>BOND
   1    1    2 ar
   2    1    6 ar
   3    1    7 1
   4    2    3 ar
   5    2   35 1
   6    3    4 ar
   7    3   36 1
   8    4    5 ar
   9    4   10 1
  10    5    6 ar
  11    5   37 1
  12    7    8 2
  13    7    9 1
  14    9   34 1
  15   10   11 1
  16   11   12 ar
  17   11   16 ar
  18   12   13 ar
  19   12   38 1
  20   13   14 ar
  21   13   28 1
  22   14   15 ar
  23   14   39 1
  24   15   16 ar
  25   15   18 1
  26   16   40 1
  27   17   18 1
  28   17   21 1
  29   17   41 1
  30   18   19 2
  31   19   20 1
  32   19   42 1
  33   20   21 2
  34   20   43 1
  35   21   23 1
  36   22   23 1
  37   22   26 1
  38   23   24 2
  39   24   25 1
  40   25   26 1
  41   25   44 1
  42   25   45 1
  43   26   27 1
  44   26   46 1
  45   27   47 1
  46   27   48 1
  47   27   49 1
  48   28   29 1
  49   29   30 1
  50   29   31 1
  51   29   50 1
  52   30   32 1
  53   30   51 1
  54   30   52 1
  55   31   53 1
  56   31   54 1
  57   31   55 1
  58   32   33 1
  59   33   56 1
  60   33   57 1
  61   33   58 1
  62   34   59 1
  63   34   60 1
  64   34   61 1

#	End of record

