#	Name: ASD00843502
#	Creating user name:	WinNT
#	Creation time:	15. 06. 2019 18:46

#	Modifying user name:	WinNT
#	Modification time:	15. 06. 2019 18:46

#	Program:	/corina/corina34_cracker 3.40 0067  02.08.2006

@<TRIPOS>MOLECULE
ASD00843502
 101  106    0    0    0
SMALL
NO_CHARGES


@<TRIPOS>ATOM
   1 F1             5.5966    -2.6315    -1.9552 F       
   2 N2             0.8269     1.0217    -0.4951 N.ar    
   3 C3             0.9953    -0.2738    -0.7005 C.ar    
   4 C4             0.8329    -1.1821     0.3380 C.ar    
   5 C5             0.4916    -0.7139     1.5947 C.ar    
   6 C6             0.3239     0.6532     1.7689 C.ar    
   7 C7             0.5013     1.4981     0.6917 C.ar    
   8 C8             1.0255    -2.6575     0.0992 C.3     
   9 C9             0.6579    -3.4473     1.3370 C.2     
  10 C10            0.1916    -3.1185    -1.0979 C.3     
  11 C11           -1.2494    -2.7321    -0.8849 C.2     
  12 N12           -2.1910    -3.1314    -1.7626 N.am    
  13 O13           -1.5617    -2.0617     0.0763 O.2     
  14 C14           -3.5835    -2.6755    -1.6354 C.3     
  15 C15           -4.0377    -2.1149    -2.9873 C.3     
  16 N16           -3.8063    -3.1200    -4.0333 N.3     
  17 C17           -2.3755    -3.4206    -4.1763 C.3     
  18 C18           -1.8520    -4.0299    -2.8766 C.3     
  19 C19           -4.3844    -2.6902    -5.3135 C.3     
  20 C20           -4.0177    -3.6994    -6.4051 C.3     
  21 C21           -4.6730    -3.2791    -7.7226 C.3     
  22 N22           -6.1303    -3.2251    -7.5506 N.3     
  23 C23           -6.5092    -2.2286    -6.5407 C.3     
  24 C24           -5.9087    -2.6175    -5.1879 C.3     
  25 C25           -6.8020    -2.9598    -8.8298 C.3     
  26 O26           -0.4312    -3.4857     1.8696 O.2     
  27 N27            1.7636    -4.0983     1.7352 N.am    
  28 C28            2.4883    -2.9723    -0.1181 C.ar    
  29 C29            2.8564    -3.8420     0.9034 C.ar    
  30 C30            3.3980    -2.5678    -1.0701 C.ar    
  31 C31            4.7029    -3.0263    -1.0221 C.ar    
  32 C32            5.0910    -3.9011    -0.0022 C.ar    
  33 C33            4.1649    -4.3071     0.9582 C.ar    
  34 C34            1.4185    -6.7160     2.5119 C.ar    
  35 C35            0.1499    -6.9847     2.0182 C.ar    
  36 C36            2.3659    -7.7204     2.5693 C.ar    
  37 C37            2.0529    -8.9941     2.1352 C.ar    
  38 C38            0.7853    -9.2679     1.6405 C.ar    
  39 C39           -0.1668    -8.2622     1.5823 C.ar    
  40 O40            0.4778   -10.5210     1.2140 O.3     
  41 O41           -0.7814    -5.9966     1.9624 O.3     
  42 C42            1.5076   -11.5077     1.3036 C.3     
  43 C43           -2.0663    -6.3448     1.4427 C.3     
  44 C44           -2.9735    -5.1129     1.4580 C.3     
  45 C45           -8.3102    -3.1565    -8.6643 C.3     
  46 C46           -9.0098    -2.8803    -9.9967 C.3     
  47 C47            6.4391    -4.3807     0.0553 C.1     
  48 N48            7.5086    -4.7611     0.1010 N.1     
  49 S49            1.8241    -5.0910     3.0593 S.o2    
  50 O50            3.1845    -5.1330     3.4675 O.2     
  51 O51            0.7677    -4.6811     3.9167 O.2     
  52 O52            1.3296    -0.7202    -1.9374 O.3     
  53 C53            1.4167     0.2557    -2.9776 C.3     
  54 C54            1.9058    -0.4125    -4.2641 C.3     
  55 F55            3.1256    -1.0534    -4.0222 F       
  56 F56            0.9612    -1.3529    -4.6893 F       
  57 H57            0.3583    -1.3965     2.4210 H       
  58 H58            0.0571     1.0514     2.7367 H       
  59 H59            0.3724     2.5624     0.8220 H       
  60 H60            0.5648    -2.6436    -2.0052 H       
  61 H61            0.2664    -4.2014    -1.1974 H       
  62 H62           -4.2195    -3.5151    -1.3549 H       
  63 H63           -3.6456    -1.8959    -0.8761 H       
  64 H64           -5.0998    -1.8740    -2.9429 H       
  65 H65           -3.4692    -1.2136    -3.2168 H       
  66 H66           -2.2322    -4.1267    -4.9942 H       
  67 H67           -1.8302    -2.5012    -4.3892 H       
  68 H68           -0.7702    -4.1483    -2.9375 H       
  69 H69           -2.3207    -5.0002    -2.7123 H       
  70 H70           -3.9926    -1.7083    -5.5787 H       
  71 H71           -2.9350    -3.7243    -6.5288 H       
  72 H72           -4.3748    -4.6891    -6.1205 H       
  73 H73           -4.3049    -2.2952    -8.0136 H       
  74 H74           -4.4255    -4.0034    -8.4986 H       
  75 H75           -6.1326    -1.2497    -6.8373 H       
  76 H76           -7.5954    -2.1899    -6.4583 H       
  77 H77           -6.2956    -3.5903    -4.8841 H       
  78 H78           -6.1771    -1.8694    -4.4420 H       
  79 H79           -6.6011    -1.9344    -9.1399 H       
  80 H80           -6.4267    -3.6484    -9.5869 H       
  81 H81            3.0924    -1.8921    -1.8552 H       
  82 H82            4.4650    -4.9827     1.7456 H       
  83 H83            3.3528    -7.5093     2.9539 H       
  84 H84            2.7952    -9.7772     2.1804 H       
  85 H85           -1.1538    -8.4734     1.1980 H       
  86 H86            1.8144   -11.6193     2.3435 H       
  87 H87            1.1311   -12.4606     0.9315 H       
  88 H88            2.3628   -11.1959     0.7039 H       
  89 H89           -1.9590    -6.7043     0.4193 H       
  90 H90           -2.5072    -7.1284     2.0587 H       
  91 H91           -3.0808    -4.7534     2.4814 H       
  92 H92           -2.5326    -4.3292     0.8419 H       
  93 H93           -3.9535    -5.3785     1.0616 H       
  94 H94           -8.5111    -4.1820    -8.3543 H       
  95 H95           -8.6855    -2.4680    -7.9073 H       
  96 H96           -8.8090    -1.8548   -10.3068 H       
  97 H97           -8.6345    -3.5688   -10.7538 H       
  98 H98          -10.0843    -3.0204    -9.8788 H       
  99 H99            0.4336     0.6947    -3.1473 H       
 100 H100           2.1180     1.0372    -2.6849 H       
 101 H101           2.0397     0.3434    -5.0380 H       
@<TRIPOS>BOND
   1    1   31 1
   2    2    3 ar
   3    2    7 ar
   4    3    4 ar
   5    3   52 1
   6    4    5 ar
   7    4    8 1
   8    5    6 ar
   9    5   57 1
  10    6    7 ar
  11    6   58 1
  12    7   59 1
  13    8    9 1
  14    8   10 1
  15    8   28 1
  16    9   26 2
  17    9   27 am
  18   10   11 1
  19   10   60 1
  20   10   61 1
  21   11   12 am
  22   11   13 2
  23   12   14 1
  24   12   18 1
  25   14   15 1
  26   14   62 1
  27   14   63 1
  28   15   16 1
  29   15   64 1
  30   15   65 1
  31   16   17 1
  32   16   19 1
  33   17   18 1
  34   17   66 1
  35   17   67 1
  36   18   68 1
  37   18   69 1
  38   19   20 1
  39   19   24 1
  40   19   70 1
  41   20   21 1
  42   20   71 1
  43   20   72 1
  44   21   22 1
  45   21   73 1
  46   21   74 1
  47   22   23 1
  48   22   25 1
  49   23   24 1
  50   23   75 1
  51   23   76 1
  52   24   77 1
  53   24   78 1
  54   25   45 1
  55   25   79 1
  56   25   80 1
  57   27   49 am
  58   27   29 1
  59   28   29 ar
  60   28   30 ar
  61   29   33 ar
  62   30   31 ar
  63   30   81 1
  64   31   32 ar
  65   32   33 ar
  66   32   47 1
  67   33   82 1
  68   34   35 ar
  69   34   36 ar
  70   34   49 1
  71   35   41 1
  72   35   39 ar
  73   36   37 ar
  74   36   83 1
  75   37   38 ar
  76   37   84 1
  77   38   39 ar
  78   38   40 1
  79   39   85 1
  80   40   42 1
  81   41   43 1
  82   42   86 1
  83   42   87 1
  84   42   88 1
  85   43   44 1
  86   43   89 1
  87   43   90 1
  88   44   91 1
  89   44   92 1
  90   44   93 1
  91   45   46 1
  92   45   94 1
  93   45   95 1
  94   46   96 1
  95   46   97 1
  96   46   98 1
  97   47   48 3
  98   49   50 2
  99   49   51 2
 100   52   53 1
 101   53   54 1
 102   53   99 1
 103   53  100 1
 104   54   55 1
 105   54   56 1
 106   54  101 1

#	End of record

