#	Name: ASD01913671
#	Creating user name:	WinNT
#	Creation time:	15. 06. 2019 20:02

#	Modifying user name:	WinNT
#	Modification time:	15. 06. 2019 20:02

#	Program:	/corina/corina34_cracker 3.40 0067  02.08.2006

@<TRIPOS>MOLECULE
ASD01913671
  38   40    0    0    0
SMALL
NO_CHARGES


@<TRIPOS>ATOM
   1 C1            -0.0156     1.3754     0.0417 C.ar    
   2 C2             0.0033    -0.0062     0.0306 C.ar    
   3 C3             1.2097    -0.6814     0.0092 C.ar    
   4 C4             2.3980     0.0246    -0.0010 C.ar    
   5 C5             2.3815     1.4067     0.0097 C.ar    
   6 C6             1.1742     2.0838     0.0311 C.ar    
   7 C7             3.6772     2.1761    -0.0009 C.3     
   8 O8             4.7745     1.2609    -0.0218 O.3     
   9 C9             6.0201     1.7941    -0.0335 C.ar    
  10 N10            6.1665     3.1102    -0.0254 N.ar    
  11 C11            7.3570     3.6734    -0.0363 C.ar    
  12 C12            8.5113     2.8893    -0.0569 C.ar    
  13 C13            8.3846     1.4923    -0.0658 C.ar    
  14 C14            7.1268     0.9506    -0.0483 C.ar    
  15 C15            9.8453     3.5204    -0.0695 C.2     
  16 N16            9.9554     4.8637    -0.0612 N.am    
  17 O17           10.8449     2.8287    -0.0874 O.2     
  18 C18           11.2112     5.4591     0.0358 C.ar    
  19 F19            1.1569     3.4346     0.0411 F       
  20 N20           12.2829     4.7037     0.2166 N.ar    
  21 C21           13.4901     5.2271     0.3136 C.ar    
  22 C22           13.6788     6.5922     0.2291 C.ar    
  23 C23           12.5803     7.4199     0.0396 C.ar    
  24 C24           11.3279     6.8412    -0.0640 C.ar    
  25 H25           -0.9581     1.9027     0.0543 H       
  26 H26           -0.9245    -0.5588     0.0389 H       
  27 H27            1.2236    -1.7613     0.0009 H       
  28 H28            3.3397    -0.5039    -0.0169 H       
  29 H29            3.7161     2.8101    -0.8867 H       
  30 H30            3.7386     2.7966     0.8931 H       
  31 H31            7.4406     4.7502    -0.0295 H       
  32 H32            9.2589     0.8584    -0.0817 H       
  33 H33            6.9949    -0.1213    -0.0542 H       
  34 H34            9.1602     5.4159    -0.1227 H       
  35 H35           14.3416     4.5794     0.4613 H       
  36 H36           14.6707     7.0119     0.3099 H       
  37 H37           12.7012     8.4908    -0.0298 H       
  38 H38           10.4518     7.4552    -0.2118 H       
@<TRIPOS>BOND
   1    1    2 ar
   2    1    6 ar
   3    1   25 1
   4    2    3 ar
   5    2   26 1
   6    3    4 ar
   7    3   27 1
   8    4    5 ar
   9    4   28 1
  10    5    6 ar
  11    5    7 1
  12    6   19 1
  13    7    8 1
  14    7   29 1
  15    7   30 1
  16    8    9 1
  17    9   10 ar
  18    9   14 ar
  19   10   11 ar
  20   11   12 ar
  21   11   31 1
  22   12   13 ar
  23   12   15 1
  24   13   14 ar
  25   13   32 1
  26   14   33 1
  27   15   16 am
  28   15   17 2
  29   16   18 1
  30   16   34 1
  31   18   20 ar
  32   18   24 ar
  33   20   21 ar
  34   21   22 ar
  35   21   35 1
  36   22   23 ar
  37   22   36 1
  38   23   24 ar
  39   23   37 1
  40   24   38 1

#	End of record

