#	Name: ASD01028334
#	Creating user name:	WinNT
#	Creation time:	15. 06. 2019 18:57

#	Modifying user name:	WinNT
#	Modification time:	15. 06. 2019 18:57

#	Program:	/corina/corina34_cracker 3.40 0067  02.08.2006

@<TRIPOS>MOLECULE
ASD01028334
  50   54    0    0    0
SMALL
NO_CHARGES


@<TRIPOS>ATOM
   1 C1            -0.0171     1.4117     0.0098 C.ar    
   2 C2             0.0021    -0.0041     0.0020 C.ar    
   3 C3             1.2097     2.1121     0.0019 C.ar    
   4 C4             2.3788     1.3727    -0.0133 C.ar    
   5 C5             2.3161    -0.0151    -0.0202 C.ar    
   6 N6             1.1708    -0.6559    -0.0123 N.ar    
   7 O7             1.2404     3.4679     0.0084 O.3     
   8 C8             2.5280     4.0877    -0.0005 C.3     
   9 C9             2.3644     5.5858     0.0087 C.2     
  10 N10            2.2881     6.3728     1.1041 N.pl3   
  11 C11            2.1435     7.6582     0.6382 C.2     
  12 N12            2.1395     7.5883    -0.6829 N.2     
  13 N13            2.2762     6.3602    -1.0440 N.2     
  14 N14            2.3271     6.1263     2.4779 N.2     
  15 C15            2.2265     7.1172     3.3361 C.2     
  16 C16            2.0768     8.4472     2.8892 C.2     
  17 C17            2.0362     8.7185     1.5580 C.2     
  18 C18            2.2703     6.8335     4.7917 C.ar    
  19 C19           -1.2152    -0.7059     0.0100 C.ar    
  20 C20           -2.3942    -0.0188     0.0250 C.ar    
  21 C21           -2.4100     1.3837     0.0326 C.ar    
  22 O22           -3.5685    -0.7025     0.0322 O.3     
  23 C23           -1.2441     2.0927     0.0310 C.ar    
  24 C24           -3.4886    -2.1292     0.0233 C.3     
  25 C25            2.1589     7.8751     5.7108 C.ar    
  26 O26           -3.5990     2.0434     0.0470 O.3     
  27 C27           -3.5484     3.4715     0.0542 C.3     
  28 C28            2.4174     5.5240     5.2448 C.ar    
  29 C29            2.4576     5.2659     6.6000 C.ar    
  30 C30            2.3518     6.3042     7.5079 C.ar    
  31 C31            2.2003     7.6054     7.0637 C.ar    
  32 H32            3.3363     1.8722    -0.0201 H       
  33 H33            3.2351    -0.5823    -0.0321 H       
  34 H34            3.0865     3.7778     0.8827 H       
  35 H35            3.0698     3.7869    -0.8971 H       
  36 H36            1.9950     9.2509     3.6060 H       
  37 H37            1.9221     9.7346     1.2103 H       
  38 H38           -1.2177    -1.7859     0.0039 H       
  39 H39           -1.2654     3.1725     0.0372 H       
  40 H40           -4.4943    -2.5495     0.0304 H       
  41 H41           -2.9637    -2.4582    -0.8735 H       
  42 H42           -2.9469    -2.4683     0.9064 H       
  43 H43            2.0406     8.8914     5.3651 H       
  44 H44           -3.0303     3.8212    -0.8388 H       
  45 H45           -4.5626     3.8709     0.0656 H       
  46 H46           -3.0139     3.8117     0.9411 H       
  47 H47            2.4993     4.7125     4.5369 H       
  48 H48            2.5715     4.2514     6.9524 H       
  49 H49            2.3830     6.0976     8.5675 H       
  50 H50            2.1182     8.4123     7.7769 H       
@<TRIPOS>BOND
   1    1    2 ar
   2    1    3 ar
   3    1   23 ar
   4    2   19 ar
   5    2    6 ar
   6    3    4 ar
   7    3    7 1
   8    4    5 ar
   9    4   32 1
  10    5    6 ar
  11    5   33 1
  12    7    8 1
  13    8    9 1
  14    8   34 1
  15    8   35 1
  16    9   10 1
  17    9   13 2
  18   10   11 1
  19   10   14 1
  20   11   12 2
  21   11   17 1
  22   12   13 1
  23   14   15 2
  24   15   16 1
  25   15   18 1
  26   16   17 2
  27   16   36 1
  28   17   37 1
  29   18   28 ar
  30   18   25 ar
  31   19   20 ar
  32   19   38 1
  33   20   21 ar
  34   20   22 1
  35   21   23 ar
  36   21   26 1
  37   22   24 1
  38   23   39 1
  39   24   40 1
  40   24   41 1
  41   24   42 1
  42   25   31 ar
  43   25   43 1
  44   26   27 1
  45   27   44 1
  46   27   45 1
  47   27   46 1
  48   28   29 ar
  49   28   47 1
  50   29   30 ar
  51   29   48 1
  52   30   31 ar
  53   30   49 1
  54   31   50 1

#	End of record

