#	Name: ASD01680138
#	Creating user name:	WinNT
#	Creation time:	15. 06. 2019 19:22

#	Modifying user name:	WinNT
#	Modification time:	15. 06. 2019 19:22

#	Program:	/corina/corina34_cracker 3.40 0067  02.08.2006

@<TRIPOS>MOLECULE
ASD01680138
  77   80    0    0    0
SMALL
NO_CHARGES


@<TRIPOS>ATOM
   1 N1             0.7782    -0.1507     1.8309 N.am    
   2 C2             0.9911    -1.5616     1.4599 C.3     
   3 C3             2.5237    -1.7682     1.5490 C.3     
   4 C4             3.0525    -0.4075     1.0233 C.3     
   5 C5             2.0145     0.5987     1.5635 C.3     
   6 C6            -0.3626     0.3674     2.3274 C.2     
   7 O7            -1.3573    -0.3251     2.4138 O.2     
   8 O8            -0.4001     1.6523     2.7277 O.3     
   9 C9             0.2712    -2.4855     2.4444 C.3     
  10 N10            0.6894    -2.1638     3.8110 N.pl3   
  11 C11            0.0929    -2.8061     4.8898 C.ar    
  12 C12           -0.9009    -3.7535     4.6646 C.ar    
  13 C13           -1.4859    -4.3849     5.7471 C.ar    
  14 C14           -1.0560    -4.0465     7.0236 C.ar    
  15 C15           -0.0653    -3.0974     7.1739 C.ar    
  16 N16            0.4791    -2.5148     6.1222 N.ar    
  17 O17            4.3497    -0.1299     1.5545 O.3     
  18 C18            5.1745     0.6570     0.6927 C.3     
  19 C19            6.5112     0.8874     1.3494 C.2     
  20 N20            7.4574     1.6090     0.7166 N.am    
  21 O21            6.7354     0.4235     2.4473 O.2     
  22 C22            8.7568     1.8330     1.3550 C.3     
  23 C23            9.6399     2.6755     0.4323 C.3     
  24 N24            8.9395     3.9138     0.0829 N.am    
  25 C25            9.2457     4.5623    -1.0582 C.2     
  26 O26           10.1032     4.1194    -1.7978 O.2     
  27 N27            8.6013     5.7015    -1.3797 N.am    
  28 C28            8.8398     6.3159    -2.6142 C.ar    
  29 C29            9.1018     5.5423    -3.7373 C.ar    
  30 C30            9.3363     6.1516    -4.9544 C.ar    
  31 C31            9.3103     7.5304    -5.0553 C.ar    
  32 C32            9.0496     8.3036    -3.9389 C.ar    
  33 C33            8.8092     7.7002    -2.7200 C.ar    
  34 C34           10.9290     3.0093     1.1379 C.2     
  35 O35           11.2316     4.1633     1.3293 O.2     
  36 O36           11.7410     2.0247     1.5537 O.3     
  37 C37           -1.6622     2.1429     3.2519 C.3     
  38 C38           -1.5139     3.5899     3.6460 C.ar    
  39 C39           -1.7740     4.5872     2.7248 C.ar    
  40 C40           -1.6380     5.9145     3.0863 C.ar    
  41 C41           -1.2424     6.2445     4.3691 C.ar    
  42 C42           -0.9832     5.2471     5.2905 C.ar    
  43 C43           -1.1234     3.9199     4.9303 C.ar    
  44 H44            0.6422    -1.7433     0.4434 H       
  45 H45            2.8360    -1.9369     2.5795 H       
  46 H46            2.8456    -2.5872     0.9058 H       
  47 H47            3.0702    -0.3956    -0.0665 H       
  48 H48            1.8255     1.3720     0.8190 H       
  49 H49            2.3809     1.0503     2.4854 H       
  50 H50           -0.8060    -2.3465     2.3518 H       
  51 H51            0.5242    -3.5220     2.2214 H       
  52 H52            1.3826    -1.5026     3.9632 H       
  53 H53           -1.2115    -3.9924     3.6581 H       
  54 H54           -2.2599    -5.1242     5.6030 H       
  55 H55           -1.4929    -4.5209     7.8899 H       
  56 H56            0.2720    -2.8313     8.1647 H       
  57 H57            5.3192     0.1314    -0.2512 H       
  58 H58            4.6921     1.6161     0.5043 H       
  59 H59            7.2780     1.9800    -0.1615 H       
  60 H60            8.6121     2.3586     2.2989 H       
  61 H61            9.2392     0.8739     1.5434 H       
  62 H62            9.8577     2.1127    -0.4755 H       
  63 H63            8.2554     4.2671     0.6729 H       
  64 H64            7.9723     6.0957    -0.7553 H       
  65 H65            9.1226     4.4653    -3.6590 H       
  66 H66            9.5405     5.5505    -5.8281 H       
  67 H67            9.4943     8.0045    -6.0081 H       
  68 H68            9.0300     9.3803    -4.0210 H       
  69 H69            8.6012     8.3044    -1.8494 H       
  70 H70           12.5566     2.2880     2.0014 H       
  71 H71           -2.4333     2.0518     2.4870 H       
  72 H72           -1.9456     1.5556     4.1254 H       
  73 H73           -2.0831     4.3294     1.7226 H       
  74 H74           -1.8405     6.6937     2.3664 H       
  75 H75           -1.1354     7.2815     4.6513 H       
  76 H76           -0.6738     5.5049     6.2926 H       
  77 H77           -0.9245     3.1408     5.6513 H       
@<TRIPOS>BOND
   1    1    2 1
   2    1    5 1
   3    1    6 am
   4    2    3 1
   5    2    9 1
   6    2   44 1
   7    3    4 1
   8    3   45 1
   9    3   46 1
  10    4    5 1
  11    4   17 1
  12    4   47 1
  13    5   48 1
  14    5   49 1
  15    6    7 2
  16    6    8 1
  17    8   37 1
  18    9   10 1
  19    9   50 1
  20    9   51 1
  21   10   11 1
  22   10   52 1
  23   11   12 ar
  24   11   16 ar
  25   12   13 ar
  26   12   53 1
  27   13   14 ar
  28   13   54 1
  29   14   15 ar
  30   14   55 1
  31   15   16 ar
  32   15   56 1
  33   17   18 1
  34   18   19 1
  35   18   57 1
  36   18   58 1
  37   19   20 am
  38   19   21 2
  39   20   22 1
  40   20   59 1
  41   22   23 1
  42   22   60 1
  43   22   61 1
  44   23   24 1
  45   23   34 1
  46   23   62 1
  47   24   25 am
  48   24   63 1
  49   25   26 2
  50   25   27 am
  51   27   28 1
  52   27   64 1
  53   28   29 ar
  54   28   33 ar
  55   29   30 ar
  56   29   65 1
  57   30   31 ar
  58   30   66 1
  59   31   32 ar
  60   31   67 1
  61   32   33 ar
  62   32   68 1
  63   33   69 1
  64   34   35 2
  65   34   36 1
  66   36   70 1
  67   37   38 1
  68   37   71 1
  69   37   72 1
  70   38   39 ar
  71   38   43 ar
  72   39   40 ar
  73   39   73 1
  74   40   41 ar
  75   40   74 1
  76   41   42 ar
  77   41   75 1
  78   42   43 ar
  79   42   76 1
  80   43   77 1

#	End of record

