#	Name: ASD01200514
#	Creating user name:	WinNT
#	Creation time:	15. 06. 2019 19:09

#	Modifying user name:	WinNT
#	Modification time:	15. 06. 2019 19:09

#	Program:	/corina/corina34_cracker 3.40 0067  02.08.2006

@<TRIPOS>MOLECULE
ASD01200514
  25   26    0    0    0
SMALL
NO_CHARGES


@<TRIPOS>ATOM
   1 N1            -0.2536     1.2218    -0.5260 N.ar    
   2 C2            -0.1382    -0.0728    -0.3080 C.ar    
   3 C3             1.1095    -0.6834    -0.3123 C.ar    
   4 C4             2.2407     0.0929    -0.5513 C.ar    
   5 C5             2.0723     1.4496    -0.7760 C.ar    
   6 C6             0.7978     1.9843    -0.7553 C.ar    
   7 N7             1.2280    -2.0574    -0.0796 N.am    
   8 C8             0.1518    -2.7706     0.3072 C.2     
   9 C9             2.5218    -2.7214    -0.2564 C.3     
  10 O10           -0.8958    -2.2040     0.5577 O.2     
  11 O11            1.3698    -4.9639     0.3235 O.3     
  12 C12            0.2430    -4.2291     0.4262 C.2     
  13 C13           -0.7976    -5.0818     0.6608 C.2     
  14 C14           -0.2576    -6.3769     0.6977 C.2     
  15 C15            1.0720    -6.2596     0.4867 C.2     
  16 H16           -1.0225    -0.6648    -0.1238 H       
  17 H17            3.2249    -0.3516    -0.5610 H       
  18 H18            2.9271     2.0822    -0.9643 H       
  19 H19            0.6610     3.0413    -0.9302 H       
  20 H20            3.0266    -2.7957     0.7068 H       
  21 H21            2.3649    -3.7207    -0.6624 H       
  22 H22            3.1366    -2.1418    -0.9450 H       
  23 H23           -1.8350    -4.8120     0.7925 H       
  24 H24           -0.8022    -7.2945     0.8641 H       
  25 H25            1.7782    -7.0761     0.4546 H       
@<TRIPOS>BOND
   1    1    2 ar
   2    1    6 ar
   3    2    3 ar
   4    2   16 1
   5    3    4 ar
   6    3    7 1
   7    4    5 ar
   8    4   17 1
   9    5    6 ar
  10    5   18 1
  11    6   19 1
  12    7    8 am
  13    7    9 1
  14    8   10 2
  15    8   12 1
  16    9   20 1
  17    9   21 1
  18    9   22 1
  19   11   12 1
  20   11   15 1
  21   12   13 2
  22   13   14 1
  23   13   23 1
  24   14   15 2
  25   14   24 1
  26   15   25 1

#	End of record

