#	Name: ASD01882954
#	Creating user name:	WinNT
#	Creation time:	15. 06. 2019 19:45

#	Modifying user name:	WinNT
#	Modification time:	15. 06. 2019 19:45

#	Program:	/corina/corina34_cracker 3.40 0067  02.08.2006

@<TRIPOS>MOLECULE
ASD01882954
  51   54    0    0    0
SMALL
NO_CHARGES


@<TRIPOS>ATOM
   1 C1            -0.0084     1.1312     0.0693 C.2     
   2 C2             0.1140    -0.3241    -0.1358 C.ar    
   3 C3             1.3928    -0.8709    -0.3376 C.ar    
   4 N4             2.5052    -0.0549    -0.3425 N.pl3   
   5 C5             2.4328     1.2719    -0.1595 C.2     
   6 C6             1.2331     1.9206     0.0482 C.2     
   7 C7             3.7624    -0.6362    -0.5467 C.ar    
   8 C8             4.4528    -0.4028    -1.7290 C.ar    
   9 C9             5.6929    -0.9767    -1.9281 C.ar    
  10 C10            6.2481    -1.7849    -0.9501 C.ar    
  11 C11            5.5614    -2.0189     0.2296 C.ar    
  12 C12            4.3236    -1.4424     0.4352 C.ar    
  13 C13           -1.0096    -1.1502    -0.1310 C.ar    
  14 C14           -0.8585    -2.5056    -0.3253 C.ar    
  15 C15            0.4030    -3.0477    -0.5243 C.ar    
  16 C16            1.5216    -2.2433    -0.5324 C.ar    
  17 O17           -1.0930     1.6587     0.2438 O.2     
  18 C18            1.1956     3.3783     0.2445 C.2     
  19 O19            2.2332     4.0081     0.3249 O.2     
  20 N20            0.0117     4.0158     0.3354 N.am    
  21 F21            7.4611    -2.3461    -1.1473 F       
  22 C22           -2.0688    -3.4035    -0.3212 C.3     
  23 N23           -2.6476    -3.4513    -1.6705 N.3     
  24 C24           -1.7007    -4.0462    -2.6308 C.3     
  25 C25           -3.1641    -2.2144    -2.0347 C.3     
  26 C26           -4.0641    -2.2827    -3.2812 C.3     
  27 C27           -2.4948    -4.8651    -3.6214 C.3     
  28 C28           -3.2020    -2.2230    -4.5189 C.3     
  29 S29           -2.8184    -3.8994    -5.1330 S.3     
  30 H30            3.3439     1.8515    -0.1746 H       
  31 H31            4.0199     0.2268    -2.4923 H       
  32 H32            6.2300    -0.7954    -2.8474 H       
  33 H33            5.9960    -2.6498     0.9909 H       
  34 H34            3.7904    -1.6215     1.3572 H       
  35 H35           -1.9922    -0.7299     0.0245 H       
  36 H36            0.5093    -4.1118    -0.6753 H       
  37 H37            2.4981    -2.6774    -0.6886 H       
  38 H38           -0.8140     3.5068     0.3413 H       
  39 H39           -0.0147     4.9836     0.3948 H       
  40 H40           -1.7751    -4.4078    -0.0161 H       
  41 H41           -2.8085    -3.0131     0.3778 H       
  42 H42           -1.1612    -3.2566    -3.1538 H       
  43 H43           -0.9954    -4.6884    -2.1032 H       
  44 H44           -3.7464    -1.8184    -1.2027 H       
  45 H45           -2.3367    -1.5340    -2.2361 H       
  46 H46           -4.6265    -3.2164    -3.2737 H       
  47 H47           -4.7555    -1.4400    -3.2779 H       
  48 H48           -1.9323    -5.7620    -3.8804 H       
  49 H49           -3.4433    -5.1562    -3.1699 H       
  50 H50           -3.7293    -1.6694    -5.2958 H       
  51 H51           -2.2714    -1.7071    -4.2822 H       
@<TRIPOS>BOND
   1    1    2 1
   2    1    6 1
   3    1   17 2
   4    2    3 ar
   5    2   13 ar
   6    3    4 1
   7    3   16 ar
   8    4    5 1
   9    4    7 1
  10    5    6 2
  11    5   30 1
  12    6   18 1
  13    7    8 ar
  14    7   12 ar
  15    8    9 ar
  16    8   31 1
  17    9   10 ar
  18    9   32 1
  19   10   11 ar
  20   10   21 1
  21   11   12 ar
  22   11   33 1
  23   12   34 1
  24   13   14 ar
  25   13   35 1
  26   14   15 ar
  27   14   22 1
  28   15   16 ar
  29   15   36 1
  30   16   37 1
  31   18   19 2
  32   18   20 am
  33   20   38 1
  34   20   39 1
  35   22   23 1
  36   22   40 1
  37   22   41 1
  38   23   25 1
  39   23   24 1
  40   24   27 1
  41   24   42 1
  42   24   43 1
  43   25   26 1
  44   25   44 1
  45   25   45 1
  46   26   28 1
  47   26   46 1
  48   26   47 1
  49   27   29 1
  50   27   48 1
  51   27   49 1
  52   28   29 1
  53   28   50 1
  54   28   51 1

#	End of record

