#	Name: ASD00069019
#	Creating user name:	WinNT
#	Creation time:	15. 06. 2019 18:29

#	Modifying user name:	WinNT
#	Modification time:	15. 06. 2019 18:29

#	Program:	/corina/corina34_cracker 3.40 0067  02.08.2006

@<TRIPOS>MOLECULE
ASD00069019
  47   51    0    0    0
SMALL
NO_CHARGES


@<TRIPOS>ATOM
   1 C1            -0.0099     1.3863     0.0200 C.ar    
   2 C2             0.0044    -0.0080     0.0085 C.ar    
   3 C3             1.2047    -0.6925    -0.0041 C.ar    
   4 C4             2.4038     0.0226    -0.0052 C.ar    
   5 C5             2.3794     1.4288     0.0065 C.ar    
   6 C6             1.1567     2.0957     0.0190 C.ar    
   7 C7             3.8195    -0.3656    -0.0170 C.2     
   8 N8             4.5320     0.7377    -0.0124 N.2     
   9 N9             3.6863     1.8512     0.0019 N.pl3   
  10 C10            4.3462    -1.7444    -0.0311 C.2     
  11 N11            3.6132    -2.8324    -0.0355 N.2     
  12 C12            4.4174    -3.9232    -0.0497 C.ar    
  13 C13            5.7454    -3.4607    -0.0543 C.ar    
  14 N14            5.6738    -2.0808    -0.0475 N.pl3   
  15 C15            4.1690    -5.2997    -0.0596 C.ar    
  16 C16            5.2136    -6.1798    -0.0735 C.ar    
  17 C17            6.5240    -5.7233    -0.0781 C.ar    
  18 C18            6.7932    -4.3707    -0.0689 C.ar    
  19 N19           -1.2035    -0.7181     0.0101 N.am    
  20 C20           -1.3028    -1.8805    -0.6646 C.2     
  21 O21           -0.3776    -2.2643    -1.3539 O.2     
  22 N22           -2.4276    -2.6176    -0.5754 N.am    
  23 C23           -2.5355    -3.8812    -1.3089 C.3     
  24 C24           -3.5478    -4.8089    -0.6144 C.3     
  25 C25           -4.6695    -5.0819    -1.6377 C.3     
  26 C26           -3.9983    -4.8357    -3.0118 C.3     
  27 C27           -3.0774    -3.6227    -2.7299 C.3     
  28 H28           -0.9540     1.9108     0.0252 H       
  29 H29            1.2151    -1.7724    -0.0126 H       
  30 H30            1.1313     3.1754     0.0280 H       
  31 H31            3.9770     2.7766     0.0074 H       
  32 H32            6.4237    -1.4655    -0.0484 H       
  33 H33            3.1530    -5.6660    -0.0558 H       
  34 H34            5.0175    -7.2418    -0.0808 H       
  35 H35            7.3387    -6.4321    -0.0892 H       
  36 H36            7.8150    -4.0211    -0.0728 H       
  37 H37           -1.9683    -0.3730     0.4969 H       
  38 H38           -3.1657    -2.3114    -0.0255 H       
  39 H39           -1.5607    -4.3658    -1.3626 H       
  40 H40           -3.0645    -5.7442    -0.3319 H       
  41 H41           -3.9588    -4.3190     0.2683 H       
  42 H42           -5.0137    -6.1132    -1.5605 H       
  43 H43           -5.4985    -4.3899    -1.4887 H       
  44 H44           -3.4124    -5.7030    -3.3163 H       
  45 H45           -4.7440    -4.5874    -3.7670 H       
  46 H46           -3.6492    -2.6951    -2.7573 H       
  47 H47           -2.2596    -3.5892    -3.4498 H       
@<TRIPOS>BOND
   1    1    2 ar
   2    1    6 ar
   3    1   28 1
   4    2    3 ar
   5    2   19 1
   6    3    4 ar
   7    3   29 1
   8    4    5 ar
   9    4    7 1
  10    5    6 ar
  11    5    9 1
  12    6   30 1
  13    7    8 2
  14    7   10 1
  15    8    9 1
  16    9   31 1
  17   10   11 2
  18   10   14 1
  19   11   12 1
  20   12   13 ar
  21   12   15 ar
  22   13   14 1
  23   13   18 ar
  24   14   32 1
  25   15   16 ar
  26   15   33 1
  27   16   17 ar
  28   16   34 1
  29   17   18 ar
  30   17   35 1
  31   18   36 1
  32   19   20 am
  33   19   37 1
  34   20   21 2
  35   20   22 am
  36   22   23 1
  37   22   38 1
  38   23   24 1
  39   23   27 1
  40   23   39 1
  41   24   25 1
  42   24   40 1
  43   24   41 1
  44   25   26 1
  45   25   42 1
  46   25   43 1
  47   26   27 1
  48   26   44 1
  49   26   45 1
  50   27   46 1
  51   27   47 1

#	End of record

