#	Name: ASD04590665
#	Creating user name:	WinNT
#	Creation time:	15. 06. 2019 20:51

#	Modifying user name:	WinNT
#	Modification time:	15. 06. 2019 20:51

#	Program:	/corina/corina34_cracker 3.40 0067  02.08.2006

@<TRIPOS>MOLECULE
ASD04590665
  62   67    0    0    0
SMALL
NO_CHARGES


@<TRIPOS>ATOM
   1 N1            -2.3782    -2.7058     0.0195 N.ar    
   2 C2            -1.2116    -2.0738     0.0036 C.ar    
   3 N3            -0.0573    -2.7201    -0.0183 N.ar    
   4 C4            -0.0259    -4.0495    -0.0249 C.ar    
   5 C5            -1.2486    -4.7505    -0.0080 C.ar    
   6 C6            -2.4370    -4.0273     0.0144 C.ar    
   7 N7             0.9975    -4.9638    -0.0455 N.pl3   
   8 C8             0.4934    -6.2540    -0.0429 C.ar    
   9 C9            -0.9095    -6.1793    -0.0197 C.ar    
  10 N10           -1.2019    -0.6887     0.0098 N.pl3   
  11 C11           -2.4017     0.0177    -0.0802 C.ar    
  12 C12            2.4222    -4.6232    -0.0680 C.3     
  13 C13            2.9424    -4.5108     1.3664 C.3     
  14 N14           -3.5394    -0.6297    -0.2720 N.ar    
  15 N15           -4.6658    -0.0208    -0.3610 N.ar    
  16 C16           -4.7648     1.2954    -0.2669 C.ar    
  17 C17           -3.6187     2.0652    -0.0642 C.ar    
  18 C18           -2.4049     1.4080     0.0375 C.ar    
  19 N19           -6.0102     1.9112    -0.3704 N.3     
  20 C20           -7.0720     0.9189    -0.5811 C.3     
  21 C21           -8.3996     1.6365    -0.8348 C.3     
  22 C22           -8.7341     2.5215     0.3691 C.3     
  23 C23           -7.5904     3.5139     0.5965 C.3     
  24 C24           -6.2862     2.7418     0.8087 C.3     
  25 C25            1.0905    -7.5108    -0.0580 C.ar    
  26 N26            0.3517    -8.6037    -0.0511 N.ar    
  27 C27           -0.9695    -8.5656    -0.0294 C.ar    
  28 C28           -1.6452    -7.3648    -0.0132 C.ar    
  29 F29            2.4375    -7.6126    -0.0803 F       
  30 C30            4.4421    -4.2757     1.5577 C.3     
  31 C31            3.4495    -3.1433     1.8289 C.3     
  32 N32           -9.9780     3.2576     0.1068 N.3     
  33 C33          -10.3932     4.0271     1.2873 C.3     
  34 C34           -9.8361     4.1296    -1.0668 C.3     
  35 H35           -3.3899    -4.5355     0.0280 H       
  36 H36           -0.3610    -0.2099     0.0768 H       
  37 H37            2.9737    -5.4022    -0.5945 H       
  38 H38            2.5601    -3.6710    -0.5802 H       
  39 H39            2.4329    -5.1339     2.1015 H       
  40 H40           -3.6776     3.1407     0.0151 H       
  41 H41           -1.4872     1.9552     0.1948 H       
  42 H42           -6.8238     0.2989    -1.4426 H       
  43 H43           -7.1625     0.2901     0.3047 H       
  44 H44           -8.3142     2.2548    -1.7284 H       
  45 H45           -9.1904     0.8997    -0.9757 H       
  46 H46           -8.8580     1.8992     1.2554 H       
  47 H47           -7.4922     4.1617    -0.2746 H       
  48 H48           -7.8030     4.1184     1.4782 H       
  49 H49           -6.3804     2.1045     1.6880 H       
  50 H50           -5.4674     3.4459     0.9567 H       
  51 H51           -1.5279    -9.4900    -0.0247 H       
  52 H52           -2.7248    -7.3418     0.0048 H       
  53 H53            4.9191    -4.7437     2.4187 H       
  54 H54            5.0581    -4.2011     0.6615 H       
  55 H55            3.4125    -2.3238     1.1112 H       
  56 H56            3.2736    -2.8665     2.8683 H       
  57 H57           -9.6126     4.7417     1.5482 H       
  58 H58          -11.3165     4.5624     1.0657 H       
  59 H59          -10.5587     3.3482     2.1238 H       
  60 H60           -9.5966     3.5252    -1.9417 H       
  61 H61          -10.7712     4.6627    -1.2385 H       
  62 H62           -9.0353     4.8479    -0.8912 H       
@<TRIPOS>BOND
   1    1    2 ar
   2    1    6 ar
   3    2    3 ar
   4    2   10 1
   5    3    4 ar
   6    4    5 ar
   7    4    7 1
   8    5    6 ar
   9    5    9 1
  10    6   35 1
  11    7    8 1
  12    7   12 1
  13    8    9 ar
  14    8   25 ar
  15    9   28 ar
  16   10   11 1
  17   10   36 1
  18   11   14 ar
  19   11   18 ar
  20   12   13 1
  21   12   37 1
  22   12   38 1
  23   13   30 1
  24   13   31 1
  25   13   39 1
  26   14   15 ar
  27   15   16 ar
  28   16   17 ar
  29   16   19 1
  30   17   18 ar
  31   17   40 1
  32   18   41 1
  33   19   20 1
  34   19   24 1
  35   20   21 1
  36   20   42 1
  37   20   43 1
  38   21   22 1
  39   21   44 1
  40   21   45 1
  41   22   23 1
  42   22   32 1
  43   22   46 1
  44   23   24 1
  45   23   47 1
  46   23   48 1
  47   24   49 1
  48   24   50 1
  49   25   26 ar
  50   25   29 1
  51   26   27 ar
  52   27   28 ar
  53   27   51 1
  54   28   52 1
  55   30   31 1
  56   30   53 1
  57   30   54 1
  58   31   55 1
  59   31   56 1
  60   32   33 1
  61   32   34 1
  62   33   57 1
  63   33   58 1
  64   33   59 1
  65   34   60 1
  66   34   61 1
  67   34   62 1

#	End of record

