#	Name: ASD05720100
#	Creating user name:	WinNT
#	Creation time:	15. 06. 2019 21:01

#	Modifying user name:	WinNT
#	Modification time:	15. 06. 2019 21:01

#	Program:	/corina/corina34_cracker 3.40 0067  02.08.2006

@<TRIPOS>MOLECULE
ASD05720100
  27   25    0    0    0
SMALL
NO_CHARGES


@<TRIPOS>ATOM
   1 C1            -0.0187     1.5258     0.0104 C.3     
   2 C2             0.0021    -0.0041     0.0020 C.3     
   3 C3            -2.2435    -0.5698    -0.9617 C.ar    
   4 C4            -1.4051    -0.5263     0.1365 C.ar    
   5 C5            -1.8751    -0.9696     1.3630 C.ar    
   6 C6            -3.1766    -1.4421     1.4395 C.ar    
   7 C7            -3.9563    -1.4554     0.2987 C.ar    
   8 N8            -3.4759    -1.0253    -0.8518 N.ar    
   9 C9            -5.3720    -1.9668     0.3702 C.3     
  10 N10            0.5820    -0.4790    -1.2614 N.3     
  11 O11            1.3220     2.0204     0.0003 O.3     
  12 H12           -0.5459     1.8868    -0.8726 H       
  13 H13           -0.5289     1.8773     0.9072 H       
  14 H14            0.6044    -0.3639     0.8362 H       
  15 H15           -1.8864    -0.2221    -1.9198 H       
  16 H16           -1.2426    -0.9477     2.2381 H       
  17 H17           -3.5757    -1.7957     2.3787 H       
  18 H18           -6.0451    -1.1417     0.6031 H       
  19 H19           -5.6498    -2.4025    -0.5896 H       
  20 H20           -5.4452    -2.7262     1.1487 H       
  21 H21            0.0411    -0.1584    -2.0506 H       
  22 H22            1.5468    -0.1960    -1.3453 H       
  23 H23            1.3852     2.9853     0.0049 H       
  24 Cl24           6.5468     7.9853     7.3787 Cl      
  25 H25            6.5468     9.3553     7.3787 H       
  26 Cl26          11.5468    14.3553    12.3787 Cl      
  27 H27           11.5468    15.7253    12.3787 H       
@<TRIPOS>BOND
   1    1    2 1
   2    1   11 1
   3    1   12 1
   4    1   13 1
   5    2    4 1
   6    2   10 1
   7    2   14 1
   8    3    4 ar
   9    3    8 ar
  10    3   15 1
  11    4    5 ar
  12    5    6 ar
  13    5   16 1
  14    6    7 ar
  15    6   17 1
  16    7    8 ar
  17    7    9 1
  18    9   18 1
  19    9   19 1
  20    9   20 1
  21   10   21 1
  22   10   22 1
  23   11   23 1
  24   24   25 1
  25   26   27 1

#	End of record

