#	Name: ASD01912991
#	Creating user name:	WinNT
#	Creation time:	15. 06. 2019 20:00

#	Modifying user name:	WinNT
#	Modification time:	15. 06. 2019 20:00

#	Program:	/corina/corina34_cracker 3.40 0067  02.08.2006

@<TRIPOS>MOLECULE
ASD01912991
  44   47    0    0    0
SMALL
NO_CHARGES


@<TRIPOS>ATOM
   1 C1             0.0270     1.4260     0.0145 C.2     
   2 C2             0.0608    -0.0056     0.0071 C.1     
   3 C3             0.0884    -1.1793     0.0010 C.1     
   4 C4             0.1221    -2.6109    -0.0064 C.ar    
   5 C5            -1.0694    -3.3418     0.0164 C.ar    
   6 C6             1.3466    -3.2845    -0.0422 C.ar    
   7 C7             1.3709    -4.6633    -0.0496 C.ar    
   8 C8             0.1873    -5.3800    -0.0221 C.ar    
   9 C9            -1.0288    -4.7202     0.0086 C.ar    
  10 N10            1.0679     2.2065    -0.0047 N.2     
  11 C11            0.8641     3.5127     0.0074 C.2     
  12 C12           -0.4381     3.8673     0.0331 C.2     
  13 S13           -1.4298     2.4145     0.0434 S.3     
  14 C14            1.9951     4.5329     0.0008 C.3     
  15 C15            1.4483     5.8865    -0.4567 C.3     
  16 N16            0.2051     6.1750     0.2741 N.am    
  17 C17           -0.9493     5.2908     0.0409 C.3     
  18 C18            0.1251     7.2137     1.1292 C.2     
  19 C19           -1.1704     7.5612     1.7510 C.ar    
  20 O20            1.1181     7.8649     1.3891 O.2     
  21 C21           -1.2123     8.0477     3.0583 C.ar    
  22 C22           -2.4247     8.3701     3.6327 C.ar    
  23 C23           -3.5971     8.2120     2.9156 C.ar    
  24 C24           -3.5626     7.7297     1.6191 C.ar    
  25 C25           -2.3567     7.4095     1.0309 C.ar    
  26 C26           -4.8448     7.5602     0.8456 C.3     
  27 F27           -5.9255     7.9529     1.6425 F       
  28 F28           -4.8027     8.3528    -0.3064 F       
  29 F29           -4.9966     6.2177     0.4827 F       
  30 H30           -2.0192    -2.8282     0.0403 H       
  31 H31            2.2710    -2.7266    -0.0644 H       
  32 H32            2.3160    -5.1852    -0.0773 H       
  33 H33            0.2127    -6.4597    -0.0288 H       
  34 H34           -1.9483    -5.2862     0.0299 H       
  35 H35            2.4064     4.6271     1.0058 H       
  36 H36            2.7770     4.2055    -0.6845 H       
  37 H37            2.1823     6.6651    -0.2489 H       
  38 H38            1.2429     5.8538    -1.5266 H       
  39 H39           -1.4066     5.5250    -0.9204 H       
  40 H40           -1.6798     5.4174     0.8399 H       
  41 H41           -0.2977     8.1713     3.6193 H       
  42 H42           -2.4585     8.7464     4.6445 H       
  43 H43           -4.5435     8.4658     3.3699 H       
  44 H44           -2.3311     7.0332     0.0189 H       
@<TRIPOS>BOND
   1    1    2 1
   2    1   10 2
   3    1   13 1
   4    2    3 3
   5    3    4 1
   6    4    5 ar
   7    4    6 ar
   8    5    9 ar
   9    5   30 1
  10    6    7 ar
  11    6   31 1
  12    7    8 ar
  13    7   32 1
  14    8    9 ar
  15    8   33 1
  16    9   34 1
  17   10   11 1
  18   11   12 2
  19   11   14 1
  20   12   13 1
  21   12   17 1
  22   14   15 1
  23   14   35 1
  24   14   36 1
  25   15   16 1
  26   15   37 1
  27   15   38 1
  28   16   17 1
  29   16   18 am
  30   17   39 1
  31   17   40 1
  32   18   19 1
  33   18   20 2
  34   19   21 ar
  35   19   25 ar
  36   21   22 ar
  37   21   41 1
  38   22   23 ar
  39   22   42 1
  40   23   24 ar
  41   23   43 1
  42   24   25 ar
  43   24   26 1
  44   25   44 1
  45   26   27 1
  46   26   28 1
  47   26   29 1

#	End of record

