#	Name: ASD05060047
#	Creating user name:	WinNT
#	Creation time:	15. 06. 2019 20:56

#	Modifying user name:	WinNT
#	Modification time:	15. 06. 2019 20:56

#	Program:	/corina/corina34_cracker 3.40 0067  02.08.2006

@<TRIPOS>MOLECULE
ASD05060047
  39   41    0    0    0
SMALL
NO_CHARGES


@<TRIPOS>ATOM
   1 C1             0.1409     1.7310     0.1019 C.2     
   2 N2            -0.0797     0.4449     0.0896 N.2     
   3 C3             1.0911    -0.2101     0.0168 C.2     
   4 C4             2.0963     0.7473    -0.0177 C.2     
   5 N5             1.4654     1.9645     0.0375 N.pl3   
   6 C6             1.2749    -1.6764    -0.0198 C.2     
   7 O7             2.3937    -2.1473    -0.0861 O.2     
   8 N8             0.2021    -2.4912     0.0203 N.am    
   9 C9             3.5467     0.5051    -0.0970 C.2     
  10 O10            4.1261     0.6256    -1.1594 O.2     
  11 N11            4.2320     0.1499     1.0079 N.am    
  12 C12            5.6963     0.0076     0.9779 C.3     
  13 C13            6.2843     0.8130     2.1422 C.3     
  14 O14            5.6338     0.4290     3.3560 O.3     
  15 C15            4.2312     0.7045     3.3808 C.3     
  16 C16            3.5386    -0.1010     2.2813 C.3     
  17 C17            0.3708    -3.8768    -0.0902 C.ar    
  18 C18           -0.6639    -4.6696    -0.5832 C.ar    
  19 C19           -0.4911    -6.0396    -0.6908 C.ar    
  20 C20            0.7059    -6.6178    -0.3095 C.ar    
  21 C21            1.7328    -5.8321     0.1795 C.ar    
  22 C22            1.5704    -4.4634     0.2852 C.ar    
  23 O23           -1.8404    -4.0996    -0.9572 O.3     
  24 H24           -0.6232     2.4926     0.1515 H       
  25 H25            1.8951     2.8341     0.0313 H       
  26 H26           -0.6869    -2.1178     0.1258 H       
  27 H27            5.9652    -1.0432     1.0856 H       
  28 H28            6.0831     0.3912     0.0338 H       
  29 H29            7.3524     0.6109     2.2219 H       
  30 H30            6.1264     1.8769     1.9653 H       
  31 H31            3.8222     0.4244     4.3516 H       
  32 H32            4.0659     1.7680     3.2084 H       
  33 H33            2.4973     0.2108     2.2000 H       
  34 H34            3.5866    -1.1629     2.5225 H       
  35 H35           -1.2914    -6.6564    -1.0721 H       
  36 H36            0.8387    -7.6863    -0.3938 H       
  37 H37            2.6658    -6.2883     0.4760 H       
  38 H38            2.3758    -3.8515     0.6637 H       
  39 H39           -1.8696    -3.8308    -1.8856 H       
@<TRIPOS>BOND
   1    1    2 2
   2    1    5 1
   3    1   24 1
   4    2    3 1
   5    3    4 2
   6    3    6 1
   7    4    5 1
   8    4    9 1
   9    5   25 1
  10    6    7 2
  11    6    8 am
  12    8   17 1
  13    8   26 1
  14    9   10 2
  15    9   11 am
  16   11   12 1
  17   11   16 1
  18   12   13 1
  19   12   27 1
  20   12   28 1
  21   13   14 1
  22   13   29 1
  23   13   30 1
  24   14   15 1
  25   15   16 1
  26   15   31 1
  27   15   32 1
  28   16   33 1
  29   16   34 1
  30   17   18 ar
  31   17   22 ar
  32   18   19 ar
  33   18   23 1
  34   19   20 ar
  35   19   35 1
  36   20   21 ar
  37   20   36 1
  38   21   22 ar
  39   21   37 1
  40   22   38 1
  41   23   39 1

#	End of record

