#	Name: ASD03331519
#	Creating user name:	WinNT
#	Creation time:	15. 06. 2019 20:39

#	Modifying user name:	WinNT
#	Modification time:	15. 06. 2019 20:39

#	Program:	/corina/corina34_cracker 3.40 0067  02.08.2006

@<TRIPOS>MOLECULE
ASD03331519
  72   74    0    0    0
SMALL
NO_CHARGES


@<TRIPOS>ATOM
   1 C1             0.2655     1.5565     0.4525 C.ar    
   2 C2             0.2267     0.0778     0.4179 C.2     
   3 N3            -0.8092    -0.7031     0.8562 N.pl3   
   4 C4            -0.4394    -1.9924     0.6802 C.2     
   5 C5             0.7966    -1.9870     0.1045 C.2     
   6 N6             1.1759    -0.6999    -0.0424 N.2     
   7 C7             1.5762    -3.1733    -0.2912 C.2     
   8 N8             2.7919    -3.0240    -0.8535 N.am    
   9 C9             1.4898     2.2243     0.4911 C.ar    
  10 O10            1.1225    -4.2872    -0.1104 O.2     
  11 C11            3.5669    -4.2033    -1.2469 C.3     
  12 C12            1.5193     3.6034     0.5228 C.ar    
  13 C13            0.3382     4.3238     0.5168 C.ar    
  14 C14           -0.8791     3.6674     0.4786 C.ar    
  15 C15           -0.9219     2.2888     0.4409 C.ar    
  16 C16           -2.0814    -0.2035     1.3849 C.3     
  17 C17           -2.6831    -1.2199     2.3581 C.3     
  18 N18           -3.4091    -2.2459     1.5938 N.am    
  19 C19           -2.6837    -3.0347     0.5962 C.3     
  20 C20           -1.2384    -3.2051     1.0760 C.3     
  21 C21            3.1375    -4.6527    -2.6450 C.3     
  22 N22            5.9526    -4.8167    -1.0216 N.am    
  23 C23            5.0341    -3.8593    -1.2584 C.2     
  24 C24            7.3707    -4.4628    -0.9224 C.3     
  25 O25            5.3883    -2.7209    -1.4808 O.2     
  26 C26            3.2796    -3.4842    -3.6224 C.3     
  27 C27            4.0250    -5.8116    -3.1032 C.3     
  28 C28            1.6784    -5.1116    -2.6074 C.3     
  29 C29           -4.7227    -2.4570     1.8090 C.2     
  30 O30           -5.3776    -3.3986     1.1038 O.3     
  31 O31           -5.3160    -1.7975     2.6393 O.2     
  32 C32           -6.7909    -3.5712     1.3883 C.3     
  33 C33           -7.5307    -2.2610     1.1107 C.3     
  34 C34           -7.3594    -4.6766     0.4963 C.3     
  35 C35           -6.9720    -3.9577     2.8575 C.3     
  36 H36            3.1537    -2.1356    -0.9978 H       
  37 H37            2.4125     1.6631     0.4965 H       
  38 H38            3.3883    -5.0094    -0.5353 H       
  39 H39            2.4664     4.1216     0.5526 H       
  40 H40            0.3665     5.4031     0.5424 H       
  41 H41           -1.7977     4.2353     0.4745 H       
  42 H42           -1.8727     1.7775     0.4107 H       
  43 H43           -1.9110     0.7386     1.9060 H       
  44 H44           -2.7751    -0.0379     0.5607 H       
  45 H45           -1.8855    -1.6902     2.9333 H       
  46 H46           -3.3719    -0.7136     3.0343 H       
  47 H47           -3.1530    -4.0126     0.4890 H       
  48 H48           -2.6939    -2.5147    -0.3617 H       
  49 H49           -0.8044    -4.0931     0.6164 H       
  50 H50           -1.2250    -3.3119     2.1607 H       
  51 H51            5.6747    -5.7402    -0.9169 H       
  52 H52            7.6983    -4.0093    -1.8579 H       
  53 H53            7.5122    -3.7545    -0.1061 H       
  54 H54            7.9568    -5.3614    -0.7295 H       
  55 H55            4.3190    -3.1572    -3.6491 H       
  56 H56            2.9736    -3.8043    -4.6184 H       
  57 H57            2.6472    -2.6585    -3.2959 H       
  58 H58            3.8859    -6.6619    -2.4355 H       
  59 H59            3.7522    -6.0987    -4.1187 H       
  60 H60            5.0693    -5.5000    -3.0818 H       
  61 H61            1.0461    -4.2860    -2.2810 H       
  62 H62            1.3725    -5.4318    -3.6034 H       
  63 H63            1.5772    -5.9441    -1.9111 H       
  64 H64           -7.4018    -1.9856     0.0640 H       
  65 H65           -8.5917    -2.3905     1.3243 H       
  66 H66           -7.1257    -1.4734     1.7462 H       
  67 H67           -6.8324    -5.6100     0.6940 H       
  68 H68           -8.4204    -4.8062     0.7098 H       
  69 H69           -7.2305    -4.4012    -0.5504 H       
  70 H70           -6.5670    -3.1702     3.4930 H       
  71 H71           -8.0330    -4.0873     3.0711 H       
  72 H72           -6.4449    -4.8911     3.0552 H       
@<TRIPOS>BOND
   1    1    2 1
   2    1    9 ar
   3    1   15 ar
   4    2    3 1
   5    2    6 2
   6    3    4 1
   7    3   16 1
   8    4    5 2
   9    4   20 1
  10    5    6 1
  11    5    7 1
  12    7    8 am
  13    7   10 2
  14    8   11 1
  15    8   36 1
  16    9   12 ar
  17    9   37 1
  18   11   21 1
  19   11   23 1
  20   11   38 1
  21   12   13 ar
  22   12   39 1
  23   13   14 ar
  24   13   40 1
  25   14   15 ar
  26   14   41 1
  27   15   42 1
  28   16   17 1
  29   16   43 1
  30   16   44 1
  31   17   18 1
  32   17   45 1
  33   17   46 1
  34   18   19 1
  35   18   29 am
  36   19   20 1
  37   19   47 1
  38   19   48 1
  39   20   49 1
  40   20   50 1
  41   21   26 1
  42   21   27 1
  43   21   28 1
  44   22   23 am
  45   22   24 1
  46   22   51 1
  47   23   25 2
  48   24   52 1
  49   24   53 1
  50   24   54 1
  51   26   55 1
  52   26   56 1
  53   26   57 1
  54   27   58 1
  55   27   59 1
  56   27   60 1
  57   28   61 1
  58   28   62 1
  59   28   63 1
  60   29   30 1
  61   29   31 2
  62   30   32 1
  63   32   33 1
  64   32   34 1
  65   32   35 1
  66   33   64 1
  67   33   65 1
  68   33   66 1
  69   34   67 1
  70   34   68 1
  71   34   69 1
  72   35   70 1
  73   35   71 1
  74   35   72 1

#	End of record

