#	Name: ASD03730078
#	Creating user name:	WinNT
#	Creation time:	15. 06. 2019 20:43

#	Modifying user name:	WinNT
#	Modification time:	15. 06. 2019 20:43

#	Program:	/corina/corina34_cracker 3.40 0067  02.08.2006

@<TRIPOS>MOLECULE
ASD03730078
  53   58    0    0    0
SMALL
NO_CHARGES


@<TRIPOS>ATOM
   1 C1            -0.0184     1.5028     0.0103 C.2     
   2 C2             0.0021    -0.0041     0.0020 C.3     
   3 O3             1.0236     2.1234     0.0037 O.2     
   4 N4            -1.1946     2.1607     0.0195 N.am    
   5 C5            -1.2145     3.6256     0.0275 C.3     
   6 O6            -3.3074     3.7579     1.2794 O.3     
   7 C7            -2.6637     4.1159     0.0371 C.3     
   8 C8            -2.7094     5.6596    -0.0007 C.3     
   9 C9            -3.9003     6.0224     0.9145 C.3     
  10 C10           -4.4332     4.6550     1.3969 C.3     
  11 O11            6.2459     2.8794     2.0976 O.3     
  12 C12            7.6663     2.8233     2.3260 C.3     
  13 O13            7.8789     1.4934     2.8350 O.3     
  14 C14            6.8679     0.7368     2.3152 C.ar    
  15 C15            5.8636     1.5896     1.8629 C.ar    
  16 C16            6.7212    -0.6329     2.1884 C.ar    
  17 C17            5.5735    -1.1688     1.6121 C.ar    
  18 C18            4.5736    -0.3071     1.1716 C.ar    
  19 C19            4.7194     1.0592     1.2910 C.ar    
  20 O20            5.2412    -2.4710     1.3795 O.3     
  21 C21            3.4673    -1.1739     0.6323 C.3     
  22 C22            3.8195    -2.5682     1.1684 C.3     
  23 N23            1.3897    -0.4735    -0.0138 N.am    
  24 C24            2.1130    -0.7212     1.0965 C.2     
  25 C25            3.4026    -1.1504    -0.8661 C.ar    
  26 C26            4.3041    -1.4527    -1.8622 C.ar    
  27 C27            3.9367    -1.3289    -3.1903 C.ar    
  28 C28            2.6624    -0.9003    -3.5148 C.ar    
  29 C29            1.7562    -0.5954    -2.5207 C.ar    
  30 C30            2.1172    -0.7175    -1.1811 C.ar    
  31 O31            1.7424    -0.6020     2.2452 O.2     
  32 H32           -0.4983    -0.3791     0.8948 H       
  33 H33           -0.5153    -0.3696    -0.8850 H       
  34 H34           -2.0280     1.6644     0.0207 H       
  35 H35           -0.7014     3.9910     0.9171 H       
  36 H36           -0.7098     4.0007    -0.8628 H       
  37 H37           -3.2106     3.6976    -0.8080 H       
  38 H38           -1.7835     6.0788     0.3931 H       
  39 H39           -2.8875     6.0116    -1.0168 H       
  40 H40           -3.5631     6.6210     1.7607 H       
  41 H41           -4.6670     6.5539     0.3508 H       
  42 H42           -5.2525     4.3211     0.7603 H       
  43 H43           -4.7600     4.7199     2.4347 H       
  44 H44            8.2103     2.9676     1.3925 H       
  45 H45            7.9653     3.5680     3.0637 H       
  46 H46            7.5027    -1.2907     2.5390 H       
  47 H47            3.9391     1.7171     0.9379 H       
  48 H48            3.5894    -3.3363     0.4301 H       
  49 H49            3.3012    -2.7643     2.1070 H       
  50 H50            5.2987    -1.7870    -1.6065 H       
  51 H51            4.6432    -1.5667    -3.9717 H       
  52 H52            2.3756    -0.8035    -4.5515 H       
  53 H53            0.7631    -0.2608    -2.7820 H       
@<TRIPOS>BOND
   1    1    2 1
   2    1    3 2
   3    1    4 am
   4    2   23 1
   5    2   32 1
   6    2   33 1
   7    4    5 1
   8    4   34 1
   9    5    7 1
  10    5   35 1
  11    5   36 1
  12    6    7 1
  13    6   10 1
  14    7    8 1
  15    7   37 1
  16    8    9 1
  17    8   38 1
  18    8   39 1
  19    9   10 1
  20    9   40 1
  21    9   41 1
  22   10   42 1
  23   10   43 1
  24   11   12 1
  25   11   15 1
  26   12   13 1
  27   12   44 1
  28   12   45 1
  29   13   14 1
  30   14   15 ar
  31   14   16 ar
  32   15   19 ar
  33   16   17 ar
  34   16   46 1
  35   17   18 ar
  36   17   20 1
  37   18   19 ar
  38   18   21 1
  39   19   47 1
  40   20   22 1
  41   21   22 1
  42   21   24 1
  43   21   25 1
  44   22   48 1
  45   22   49 1
  46   23   24 am
  47   23   30 1
  48   24   31 2
  49   25   26 ar
  50   25   30 ar
  51   26   27 ar
  52   26   50 1
  53   27   28 ar
  54   27   51 1
  55   28   29 ar
  56   28   52 1
  57   29   30 ar
  58   29   53 1

#	End of record

