#	Name: ASD01913064
#	Creating user name:	WinNT
#	Creation time:	15. 06. 2019 20:00

#	Modifying user name:	WinNT
#	Modification time:	15. 06. 2019 20:00

#	Program:	/corina/corina34_cracker 3.40 0067  02.08.2006

@<TRIPOS>MOLECULE
ASD01913064
  28   30    0    0    0
SMALL
NO_CHARGES


@<TRIPOS>ATOM
   1 C1            -0.0173     1.4278     0.0099 C.ar    
   2 C2             0.0021    -0.0041     0.0020 C.1     
   3 C3             0.0180    -1.1779    -0.0044 C.1     
   4 C4             0.0374    -2.6098    -0.0123 C.ar    
   5 C5            -1.2278     2.1120     0.0309 C.ar    
   6 C6            -1.1609    -3.3278    -0.0047 C.ar    
   7 C7             1.1895     2.1539     0.0023 C.ar    
   8 N8             1.1975     3.4617     0.0101 N.ar    
   9 C9             0.0648     4.1712     0.0252 C.ar    
  10 C10           -1.1926     3.5178     0.0384 C.ar    
  11 C11           -1.1339    -4.7092    -0.0124 C.ar    
  12 C12            0.0781    -5.3808    -0.0275 C.ar    
  13 C13            1.2678    -4.6742    -0.0351 C.ar    
  14 C14            1.2554    -3.2952    -0.0334 C.ar    
  15 C15            0.0940     5.5794     0.0333 C.ar    
  16 C16           -1.0947     6.2516     0.0488 C.ar    
  17 C17           -2.2956     5.5447     0.0566 C.ar    
  18 N18           -2.3209     4.2340     0.0535 N.ar    
  19 F19           -2.2912    -5.4063    -0.0046 F       
  20 H20           -2.1673     1.5794     0.0409 H       
  21 H21           -2.1056    -2.8046     0.0074 H       
  22 H22            2.1279     1.6195    -0.0099 H       
  23 H23            0.0943    -6.4607    -0.0330 H       
  24 H24            2.2087    -5.2042    -0.0465 H       
  25 H25            2.1852    -2.7459    -0.0397 H       
  26 H26            1.0324     6.1138     0.0279 H       
  27 H27           -1.1040     7.3316     0.0554 H       
  28 H28           -3.2279     6.0898     0.0695 H       
@<TRIPOS>BOND
   1    1    2 1
   2    1    7 ar
   3    1    5 ar
   4    2    3 3
   5    3    4 1
   6    4    6 ar
   7    4   14 ar
   8    5   10 ar
   9    5   20 1
  10    6   11 ar
  11    6   21 1
  12    7    8 ar
  13    7   22 1
  14    8    9 ar
  15    9   10 ar
  16    9   15 ar
  17   10   18 ar
  18   11   12 ar
  19   11   19 1
  20   12   13 ar
  21   12   23 1
  22   13   14 ar
  23   13   24 1
  24   14   25 1
  25   15   16 ar
  26   15   26 1
  27   16   17 ar
  28   16   27 1
  29   17   18 ar
  30   17   28 1

#	End of record

