#	Name: ASD03500002
#	Creating user name:	WinNT
#	Creation time:	15. 06. 2019 20:42

#	Modifying user name:	WinNT
#	Modification time:	15. 06. 2019 20:42

#	Program:	/corina/corina34_cracker 3.40 0067  02.08.2006

@<TRIPOS>MOLECULE
ASD03500002
  55   59    0    0    0
SMALL
NO_CHARGES


@<TRIPOS>ATOM
   1 C1            -0.6216     1.2106     0.2485 C.ar    
   2 C2            -0.3645    -0.1488     0.5120 C.ar    
   3 C3             0.9482    -0.6148     0.4820 C.ar    
   4 C4             1.9670     0.3058     0.1864 C.ar    
   5 C5             1.6242     1.6587    -0.0673 C.ar    
   6 N6             0.3446     2.0483    -0.0243 N.ar    
   7 C7             3.3139    -0.0912     0.1390 C.ar    
   8 C8             4.2791     0.8309    -0.1513 C.ar    
   9 C9             3.9406     2.1644    -0.4009 C.ar    
  10 C10            2.6452     2.5783    -0.3630 C.ar    
  11 C11            1.2653    -2.0618     0.7587 C.3     
  12 C12           -1.4715    -1.0680     0.8165 C.2     
  13 C13           -2.7221    -0.5873     0.9814 C.2     
  14 C14           -3.8224    -1.5009     1.2840 C.2     
  15 O15           -3.6110    -2.6942     1.3872 O.2     
  16 O16           -5.0722    -1.0204     1.4488 O.3     
  17 O17            5.5822     0.4482    -0.1975 O.3     
  18 C18            6.5547     1.4785    -0.3845 C.3     
  19 C19            7.8731     1.0361     0.1961 C.ar    
  20 C20            6.7231     1.7555    -1.8797 C.3     
  21 C21            8.3440    -0.2410    -0.0506 C.ar    
  22 C22            9.5549    -0.6463     0.4824 C.ar    
  23 C23           10.2931     0.2248     1.2609 C.ar    
  24 C24            9.8219     1.5012     1.5071 C.ar    
  25 C25            8.6149     1.9083     0.9706 C.ar    
  26 C26            8.1023     3.2998     1.2391 C.3     
  27 C27            7.8553     3.6926     2.6971 C.3     
  28 C28            9.0479     4.2784     1.9385 C.3     
  29 C29            0.7167    -3.1044    -0.2176 C.3     
  30 C30            2.2109    -2.7755    -0.2095 C.3     
  31 Cl31           7.4158    -1.3349    -1.0281 Cl      
  32 H32           -1.6404     1.5684     0.2680 H       
  33 H33            3.5846    -1.1189     0.3311 H       
  34 H34            4.7198     2.8769    -0.6281 H       
  35 H35            2.4019     3.6122    -0.5587 H       
  36 H36            1.3200    -2.3381     1.8117 H       
  37 H37           -1.2839    -2.1277     0.9081 H       
  38 H38           -2.9097     0.4723     0.8898 H       
  39 H39           -5.7319    -1.6995     1.6457 H       
  40 H40            6.2228     2.3869     0.1182 H       
  41 H41            5.7695     2.0755    -2.2996 H       
  42 H42            7.4649     2.5414    -2.0223 H       
  43 H43            7.0550     0.8471    -2.3824 H       
  44 H44            9.9229    -1.6434     0.2905 H       
  45 H45           11.2380    -0.0915     1.6773 H       
  46 H46           10.3990     2.1815     2.1158 H       
  47 H47            7.4248     3.7045     0.4872 H       
  48 H48            7.0156     4.3560     2.9043 H       
  49 H49            8.0636     2.9446     3.4620 H       
  50 H50           10.0408     3.9157     2.2044 H       
  51 H51            8.9928     5.3271     1.6466 H       
  52 H52            0.4110    -4.0667     0.1931 H       
  53 H53            0.1265    -2.7436    -1.0600 H       
  54 H54            2.6038    -2.1983    -1.0466 H       
  55 H55            2.8882    -3.5214     0.2065 H       
@<TRIPOS>BOND
   1    1    2 ar
   2    1    6 ar
   3    1   32 1
   4    2    3 ar
   5    2   12 1
   6    3    4 ar
   7    3   11 1
   8    4    5 ar
   9    4    7 ar
  10    5    6 ar
  11    5   10 ar
  12    7    8 ar
  13    7   33 1
  14    8    9 ar
  15    8   17 1
  16    9   10 ar
  17    9   34 1
  18   10   35 1
  19   11   29 1
  20   11   30 1
  21   11   36 1
  22   12   13 2
  23   12   37 1
  24   13   14 1
  25   13   38 1
  26   14   15 2
  27   14   16 1
  28   16   39 1
  29   17   18 1
  30   18   19 1
  31   18   20 1
  32   18   40 1
  33   19   21 ar
  34   19   25 ar
  35   20   41 1
  36   20   42 1
  37   20   43 1
  38   21   22 ar
  39   21   31 1
  40   22   23 ar
  41   22   44 1
  42   23   24 ar
  43   23   45 1
  44   24   25 ar
  45   24   46 1
  46   25   26 1
  47   26   27 1
  48   26   28 1
  49   26   47 1
  50   27   28 1
  51   27   48 1
  52   27   49 1
  53   28   50 1
  54   28   51 1
  55   29   30 1
  56   29   52 1
  57   29   53 1
  58   30   54 1
  59   30   55 1

#	End of record

