#	Name: ASD01330010
#	Creating user name:	WinNT
#	Creation time:	15. 06. 2019 19:16

#	Modifying user name:	WinNT
#	Modification time:	15. 06. 2019 19:16

#	Program:	/corina/corina34_cracker 3.40 0067  02.08.2006

@<TRIPOS>MOLECULE
ASD01330010
  11   10    0    0    0
SMALL
NO_CHARGES


@<TRIPOS>ATOM
   1 C1            -0.0184     1.5028     0.0103 C.2     
   2 C2             0.0021    -0.0041     0.0020 C.3     
   3 C3             1.4295    -0.4870    -0.0142 C.2     
   4 O4             1.0197     2.1211     0.0037 O.2     
   5 O5            -1.1898     2.1580     0.0194 O.3     
   6 O6             2.3371     0.3106    -0.0186 O.2     
   7 O7             1.6926    -1.8032    -0.0238 O.3     
   8 H8            -0.4983    -0.3791     0.8948 H       
   9 H9            -0.5153    -0.3696    -0.8850 H       
  10 H10           -1.1523     3.1243     0.0245 H       
  11 H11            2.6236    -2.0647    -0.0341 H       
@<TRIPOS>BOND
   1    1    2 1
   2    1    4 2
   3    1    5 1
   4    2    3 1
   5    2    8 1
   6    2    9 1
   7    3    6 2
   8    3    7 1
   9    5   10 1
  10    7   11 1

#	End of record

