#	Name: ASD03430112
#	Creating user name:	WinNT
#	Creation time:	15. 06. 2019 20:40

#	Modifying user name:	WinNT
#	Modification time:	15. 06. 2019 20:40

#	Program:	/corina/corina34_cracker 3.40 0067  02.08.2006

@<TRIPOS>MOLECULE
ASD03430112
  58   63    0    0    0
SMALL
NO_CHARGES


@<TRIPOS>ATOM
   1 C1             0.0439     1.3764    -0.0532 C.ar    
   2 C2             0.0417    -0.0099    -0.0382 C.ar    
   3 C3             1.2322    -0.7061    -0.0367 C.ar    
   4 C4             2.4483    -0.0294    -0.0401 C.ar    
   5 C5             2.4467     1.3617    -0.0601 C.ar    
   6 C6             1.2528     2.0628    -0.0652 C.ar    
   7 O7             3.4979    -0.8996    -0.0084 O.3     
   8 C8             1.5585    -2.1753    -0.0442 C.3     
   9 C9             3.0467    -2.2040    -0.4200 C.3     
  10 C10            0.4050    -3.8566     1.0329 C.ar    
  11 C11            1.3035    -2.8240     1.2836 C.ar    
  12 C12            0.7211    -2.9406    -1.0283 C.2     
  13 N13            0.0847    -3.8993    -0.3262 N.am    
  14 O14            0.6341    -2.7360    -2.2206 O.2     
  15 C15            1.7631    -2.5881     2.5665 C.ar    
  16 C16            1.3274    -3.3878     3.6170 C.ar    
  17 C17            0.4365    -4.4151     3.3734 C.ar    
  18 C18           -0.0239    -4.6511     2.0938 C.ar    
  19 N19            2.6657    -1.5463     2.8068 N.am    
  20 O20           -1.1403     2.0482    -0.0616 O.3     
  21 C21           -1.0966     3.4340     0.2957 C.3     
  22 C22            0.0690     4.0873    -0.4592 C.3     
  23 O23            1.2789     3.4242    -0.0783 O.3     
  24 C24           -0.8353    -4.8729    -0.9195 C.3     
  25 C25            3.4959    -1.6050     3.8668 C.2     
  26 C26            4.5293    -0.5281     4.0752 C.3     
  27 O27            3.4115    -2.5247     4.6530 O.2     
  28 C28            5.3340    -0.8314     5.3406 C.3     
  29 C29            6.3831     0.2621     5.5521 C.3     
  30 C30            7.3248     0.3054     4.3470 C.3     
  31 C31            6.5200     0.6087     3.0816 C.3     
  32 C32            5.4709    -0.4848     2.8700 C.3     
  33 H33           -0.8955    -0.5464    -0.0273 H       
  34 H34            3.3837     1.8986    -0.0714 H       
  35 H35            3.1720    -2.3356    -1.4948 H       
  36 H36            3.5698    -2.9860     0.1303 H       
  37 H37            1.6845    -3.2068     4.6201 H       
  38 H38            0.0979    -5.0369     4.1889 H       
  39 H39           -0.7206    -5.4565     1.9140 H       
  40 H40            2.6938    -0.7818     2.2105 H       
  41 H41           -2.0330     3.9160     0.0145 H       
  42 H42           -0.9400     3.5320     1.3700 H       
  43 H43           -0.0838     3.9822    -1.5333 H       
  44 H44            0.1303     5.1436    -0.1976 H       
  45 H45           -1.8490    -4.4726    -0.9016 H       
  46 H46           -0.5406    -5.0700    -1.9502 H       
  47 H47           -0.8008    -5.8004    -0.3480 H       
  48 H48            4.0325     0.4362     4.1829 H       
  49 H49            4.6632    -0.8622     6.1991 H       
  50 H50            5.8308    -1.7956     5.2328 H       
  51 H51            5.8863     1.2263     5.6599 H       
  52 H52            6.9564     0.0460     6.4536 H       
  53 H53            8.0722     1.0843     4.4977 H       
  54 H54            7.8215    -0.6589     4.2393 H       
  55 H55            6.0232     1.5729     3.1893 H       
  56 H56            7.1909     0.6395     2.2230 H       
  57 H57            5.9677    -1.4490     2.7623 H       
  58 H58            4.8976    -0.2687     1.9685 H       
@<TRIPOS>BOND
   1    1    2 ar
   2    1    6 ar
   3    1   20 1
   4    2    3 ar
   5    2   33 1
   6    3    4 ar
   7    3    8 1
   8    4    5 ar
   9    4    7 1
  10    5    6 ar
  11    5   34 1
  12    6   23 1
  13    7    9 1
  14    8    9 1
  15    8   11 1
  16    8   12 1
  17    9   35 1
  18    9   36 1
  19   10   11 ar
  20   10   13 1
  21   10   18 ar
  22   11   15 ar
  23   12   13 am
  24   12   14 2
  25   13   24 1
  26   15   16 ar
  27   15   19 1
  28   16   17 ar
  29   16   37 1
  30   17   18 ar
  31   17   38 1
  32   18   39 1
  33   19   25 am
  34   19   40 1
  35   20   21 1
  36   21   22 1
  37   21   41 1
  38   21   42 1
  39   22   23 1
  40   22   43 1
  41   22   44 1
  42   24   45 1
  43   24   46 1
  44   24   47 1
  45   25   26 1
  46   25   27 2
  47   26   28 1
  48   26   32 1
  49   26   48 1
  50   28   29 1
  51   28   49 1
  52   28   50 1
  53   29   30 1
  54   29   51 1
  55   29   52 1
  56   30   31 1
  57   30   53 1
  58   30   54 1
  59   31   32 1
  60   31   55 1
  61   31   56 1
  62   32   57 1
  63   32   58 1

#	End of record

