#	Name: ASD01912539
#	Creating user name:	WinNT
#	Creation time:	15. 06. 2019 19:59

#	Modifying user name:	WinNT
#	Modification time:	15. 06. 2019 19:59

#	Program:	/corina/corina34_cracker 3.40 0067  02.08.2006

@<TRIPOS>MOLECULE
ASD01912539
  53   56    0    0    0
SMALL
NO_CHARGES


@<TRIPOS>ATOM
   1 C1             0.5640     0.3512     1.0700 C.ar    
   2 C2            -0.1124     0.2029    -0.1437 C.ar    
   3 C3             0.4531     0.7086    -1.3172 C.ar    
   4 C4             1.6733     1.3498    -1.2700 C.ar    
   5 C5             2.3373     1.4929    -0.0644 C.ar    
   6 C6             1.7835     0.9947     1.1018 C.ar    
   7 C7            -1.3787    -0.4644    -0.1848 C.1     
   8 C8            -2.4169    -1.0115    -0.2185 C.1     
   9 C9            -3.6832    -1.6789    -0.2596 C.ar    
  10 C10           -4.3596    -1.8271    -1.4733 C.ar    
  11 C11           -4.2458    -2.1900     0.9129 C.ar    
  12 C12           -5.4658    -2.8315     0.8656 C.ar    
  13 C13           -6.1323    -2.9700    -0.3391 C.ar    
  14 C14           -5.5789    -2.4710    -1.5052 C.ar    
  15 C15            3.6702     2.1947    -0.0212 C.3     
  16 N16            3.4923     3.5509     0.5146 N.3     
  17 N17            4.5912     1.4439     0.8424 N.3     
  18 C18            3.0229     3.5098     1.9072 C.3     
  19 C19            2.9086     4.9391     2.4439 C.3     
  20 O20            2.0332     5.6914     1.5995 O.3     
  21 C21            2.4606     5.7527     0.2361 C.3     
  22 C22            2.5703     4.3317    -0.3230 C.3     
  23 C23            5.9496     2.0020     0.7752 C.3     
  24 C24            6.8609     1.2296     1.7327 C.3     
  25 O25            6.8292    -0.1600     1.3961 O.3     
  26 C26            5.5215    -0.7362     1.4520 C.3     
  27 C27            4.5967     0.0163     0.4916 C.3     
  28 H28            0.1308    -0.0332     1.9816 H       
  29 H29           -0.0639     0.5974    -2.2589 H       
  30 H30            2.1118     1.7408    -2.1762 H       
  31 H31            2.3076     1.1097     2.0391 H       
  32 H32           -3.9289    -1.4382    -2.3842 H       
  33 H33           -3.7264    -2.0833     1.8538 H       
  34 H34           -5.9019    -3.2271     1.7711 H       
  35 H35           -7.0873    -3.4735    -0.3702 H       
  36 H36           -6.1048    -2.5827    -2.4419 H       
  37 H37            4.0828     2.2533    -1.0284 H       
  38 H38            2.0468     3.0265     1.9482 H       
  39 H39            3.7334     2.9488     2.5144 H       
  40 H40            2.5066     4.9164     3.4569 H       
  41 H41            3.8943     5.4043     2.4531 H       
  42 H42            1.7345     6.3184    -0.3478 H       
  43 H43            3.4332     6.2416     0.1811 H       
  44 H44            2.9504     4.3705    -1.3439 H       
  45 H45            1.5870     3.8615    -0.3177 H       
  46 H46            6.3303     1.9115    -0.2422 H       
  47 H47            5.9260     3.0530     1.0634 H       
  48 H48            7.8813     1.6024     1.6442 H       
  49 H49            6.5110     1.3643     2.7562 H       
  50 H50            5.5733    -1.7852     1.1604 H       
  51 H51            5.1327    -0.6587     2.4673 H       
  52 H52            3.5854    -0.3824     0.5728 H       
  53 H53            4.9558    -0.1060    -0.5303 H       
@<TRIPOS>BOND
   1    1    2 ar
   2    1    6 ar
   3    1   28 1
   4    2    3 ar
   5    2    7 1
   6    3    4 ar
   7    3   29 1
   8    4    5 ar
   9    4   30 1
  10    5    6 ar
  11    5   15 1
  12    6   31 1
  13    7    8 3
  14    8    9 1
  15    9   10 ar
  16    9   11 ar
  17   10   14 ar
  18   10   32 1
  19   11   12 ar
  20   11   33 1
  21   12   13 ar
  22   12   34 1
  23   13   14 ar
  24   13   35 1
  25   14   36 1
  26   15   16 1
  27   15   17 1
  28   15   37 1
  29   16   18 1
  30   16   22 1
  31   17   23 1
  32   17   27 1
  33   18   19 1
  34   18   38 1
  35   18   39 1
  36   19   20 1
  37   19   40 1
  38   19   41 1
  39   20   21 1
  40   21   22 1
  41   21   42 1
  42   21   43 1
  43   22   44 1
  44   22   45 1
  45   23   24 1
  46   23   46 1
  47   23   47 1
  48   24   25 1
  49   24   48 1
  50   24   49 1
  51   25   26 1
  52   26   27 1
  53   26   50 1
  54   26   51 1
  55   27   52 1
  56   27   53 1

#	End of record

