#	Name: ASD03320206
#	Creating user name:	WinNT
#	Creation time:	15. 06. 2019 20:36

#	Modifying user name:	WinNT
#	Modification time:	15. 06. 2019 20:36

#	Program:	/corina/corina34_cracker 3.40 0067  02.08.2006

@<TRIPOS>MOLECULE
ASD03320206
  42   44    0    0    0
SMALL
NO_CHARGES


@<TRIPOS>ATOM
   1 C1            -0.0073     1.3431    -0.1945 C.ar    
   2 C2             0.0219    -0.0350     0.0266 C.ar    
   3 N3            -1.0906    -0.7400     0.0429 N.ar    
   4 C4            -2.2715    -0.1864    -0.1460 C.ar    
   5 C5            -2.3920     1.1844    -0.3738 C.ar    
   6 C6            -1.2405     1.9717    -0.3937 C.ar    
   7 C7             1.2459     2.1270    -0.2117 C.2     
   8 O8             1.2098     3.3267    -0.4051 O.2     
   9 N9             2.4284     1.5117    -0.0130 N.am    
  10 C10            3.6219     2.2353    -0.1262 C.ar    
  11 C11           -3.7261     1.7973    -0.5861 C.ar    
  12 C12            3.6729     3.5602     0.2867 C.ar    
  13 C13            4.8502     4.2731     0.1747 C.ar    
  14 C14            5.9817     3.6662    -0.3506 C.ar    
  15 C15            5.9315     2.3428    -0.7633 C.ar    
  16 C16            4.7566     1.6267    -0.6462 C.ar    
  17 O17            7.1403     4.3691    -0.4614 O.3     
  18 C18            8.2661     3.6817    -1.0110 C.3     
  19 F19            7.9623     3.2510    -2.3069 F       
  20 F20            9.3655     4.5460    -1.0525 F       
  21 F21            8.5727     2.5752    -0.2117 F       
  22 C22           -4.1110     2.9268     0.1367 C.ar    
  23 C23           -5.3677     3.4621    -0.0978 C.ar    
  24 C24           -6.1948     2.8679    -1.0311 C.ar    
  25 N25           -5.8083     1.7992    -1.7024 N.ar    
  26 C26           -4.6180     1.2554    -1.5193 C.ar    
  27 O27           -4.2626     0.1575    -2.2316 O.3     
  28 C28           -5.2230    -0.3537    -3.1581 C.3     
  29 H29            0.9688    -0.5294     0.1860 H       
  30 H30           -3.1581    -0.8026    -0.1244 H       
  31 H31           -1.2991     3.0361    -0.5670 H       
  32 H32            2.4527     0.5676     0.2084 H       
  33 H33            2.7919     4.0330     0.6951 H       
  34 H34            4.8900     5.3035     0.4959 H       
  35 H35            6.8127     1.8711    -1.1725 H       
  36 H36            4.7177     0.5964    -0.9676 H       
  37 H37           -3.4461     3.3728     0.8615 H       
  38 H38           -5.6975     4.3358     0.4446 H       
  39 H39           -7.1742     3.2845    -1.2144 H       
  40 H40           -5.4577     0.4118    -3.8976 H       
  41 H41           -4.8130    -1.2301    -3.6599 H       
  42 H42           -6.1309    -0.6328    -2.6233 H       
@<TRIPOS>BOND
   1    1    2 ar
   2    1    7 1
   3    1    6 ar
   4    2    3 ar
   5    2   29 1
   6    3    4 ar
   7    4    5 ar
   8    4   30 1
   9    5    6 ar
  10    5   11 1
  11    6   31 1
  12    7    8 2
  13    7    9 am
  14    9   10 1
  15    9   32 1
  16   10   12 ar
  17   10   16 ar
  18   11   22 ar
  19   11   26 ar
  20   12   13 ar
  21   12   33 1
  22   13   14 ar
  23   13   34 1
  24   14   15 ar
  25   14   17 1
  26   15   16 ar
  27   15   35 1
  28   16   36 1
  29   17   18 1
  30   18   19 1
  31   18   20 1
  32   18   21 1
  33   22   23 ar
  34   22   37 1
  35   23   24 ar
  36   23   38 1
  37   24   25 ar
  38   24   39 1
  39   25   26 ar
  40   26   27 1
  41   27   28 1
  42   28   40 1
  43   28   41 1
  44   28   42 1

#	End of record

