#	Name: ASD05380324
#	Creating user name:	WinNT
#	Creation time:	15. 06. 2019 20:59

#	Modifying user name:	WinNT
#	Modification time:	15. 06. 2019 20:59

#	Program:	/corina/corina34_cracker 3.40 0067  02.08.2006

@<TRIPOS>MOLECULE
ASD05380324
  57   61    0    0    0
SMALL
NO_CHARGES


@<TRIPOS>ATOM
   1 N1            -0.2156     2.3025    -0.9963 N.ar    
   2 C2            -0.0083     1.0026    -0.7842 C.ar    
   3 C3             1.2774     0.4876    -0.9420 C.ar    
   4 C4             2.2978     1.3581    -1.3169 C.ar    
   5 N5             2.0145     2.6423    -1.5107 N.ar    
   6 C6             0.7805     3.0979    -1.3517 C.ar    
   7 N7             3.5964     0.8900    -1.4859 N.am    
   8 C8             4.0028    -0.5237    -1.4864 C.3     
   9 C9             4.6806     1.6530    -1.6807 C.2     
  10 O10            5.8150     0.9570    -1.8150 O.3     
  11 C11            5.5264    -0.4673    -1.7097 C.3     
  12 C12            6.2558    -1.0688    -0.5362 C.2     
  13 O13            4.6372     2.8661    -1.7314 O.2     
  14 N14            0.5265     4.4420    -1.5631 N.3     
  15 C15           -0.9062     4.7369    -1.4157 C.3     
  16 C16            1.0132     4.8689    -2.8830 C.3     
  17 C17            0.7664     6.3706    -3.0506 C.3     
  18 O18           -0.6264     6.6424    -2.8732 O.3     
  19 C19           -1.1337     6.2399    -1.5980 C.3     
  20 C20           -1.1288     0.1178    -0.3859 C.ar    
  21 C21           -1.9521     0.4465     0.6949 C.ar    
  22 N22           -2.9407    -0.3676     1.0187 N.ar    
  23 C23           -3.1561    -1.4821     0.3341 C.ar    
  24 N24           -2.3973    -1.8280    -0.6967 N.ar    
  25 C25           -1.3927    -1.0638    -1.0853 C.ar    
  26 C26           -1.7150     1.7110     1.4797 C.3     
  27 F27           -2.1164     2.8142     0.7188 F       
  28 F28           -2.4547     1.6689     2.6664 F       
  29 F29           -0.3538     1.8236     1.7823 F       
  30 N30           -4.2009    -2.3071     0.7055 N.pl3   
  31 C31            3.3198    -1.2789    -2.6283 C.3     
  32 C32            3.6969    -2.7600    -2.5576 C.3     
  33 N33            6.8822    -2.1967    -0.5552 N.2     
  34 C34            7.4693    -2.5768     0.5617 C.2     
  35 C35            7.3306    -1.7219     1.5795 C.2     
  36 S36            6.3794    -0.3520     1.0111 S.3     
  37 H37            1.4774    -0.5608    -0.7771 H       
  38 H38            3.7710    -0.9890    -0.5283 H       
  39 H39            5.7960    -0.9810    -2.6325 H       
  40 H40           -1.4701     4.1892    -2.1707 H       
  41 H41           -1.2394     4.4362    -0.4223 H       
  42 H42            2.0810     4.6646    -2.9607 H       
  43 H43            0.4799     4.3233    -3.6615 H       
  44 H44            1.3422     6.9195    -2.3054 H       
  45 H45            1.0734     6.6806    -4.0495 H       
  46 H46           -2.2009     6.4553    -1.5463 H       
  47 H47           -0.6131     6.7850    -0.8106 H       
  48 H48           -0.7788    -1.3515    -1.9260 H       
  49 H49           -4.7644    -2.0673     1.4577 H       
  50 H50           -4.3707    -3.1259     0.2140 H       
  51 H51            2.2386    -1.1746    -2.5374 H       
  52 H52            3.6456    -0.8662    -3.5830 H       
  53 H53            3.1369    -3.3139    -3.3110 H       
  54 H54            4.7651    -2.8722    -2.7434 H       
  55 H55            3.4575    -3.1491    -1.5679 H       
  56 H56            8.0175    -3.5034     0.6475 H       
  57 H57            7.7335    -1.8469     2.5737 H       
@<TRIPOS>BOND
   1    1    2 ar
   2    1    6 ar
   3    2    3 ar
   4    2   20 1
   5    3    4 ar
   6    3   37 1
   7    4    5 ar
   8    4    7 1
   9    5    6 ar
  10    6   14 1
  11    7    8 1
  12    7    9 am
  13    8   31 1
  14    8   11 1
  15    8   38 1
  16    9   10 1
  17    9   13 2
  18   10   11 1
  19   11   12 1
  20   11   39 1
  21   12   33 2
  22   12   36 1
  23   14   15 1
  24   14   16 1
  25   15   19 1
  26   15   40 1
  27   15   41 1
  28   16   17 1
  29   16   42 1
  30   16   43 1
  31   17   18 1
  32   17   44 1
  33   17   45 1
  34   18   19 1
  35   19   46 1
  36   19   47 1
  37   20   21 ar
  38   20   25 ar
  39   21   22 ar
  40   21   26 1
  41   22   23 ar
  42   23   24 ar
  43   23   30 1
  44   24   25 ar
  45   25   48 1
  46   26   27 1
  47   26   28 1
  48   26   29 1
  49   30   49 1
  50   30   50 1
  51   31   32 1
  52   31   51 1
  53   31   52 1
  54   32   53 1
  55   32   54 1
  56   32   55 1
  57   33   34 1
  58   34   35 2
  59   34   56 1
  60   35   36 1
  61   35   57 1

#	End of record

