#	Name: ASD01811280
#	Creating user name:	WinNT
#	Creation time:	15. 06. 2019 19:26

#	Modifying user name:	WinNT
#	Modification time:	15. 06. 2019 19:26

#	Program:	/corina/corina34_cracker 3.40 0067  02.08.2006

@<TRIPOS>MOLECULE
ASD01811280
  58   61    0    0    0
SMALL
NO_CHARGES


@<TRIPOS>ATOM
   1 C1             5.7329     6.2030    -4.1096 C.ar    
   2 C2             6.8090     5.6913    -4.8376 C.ar    
   3 C3             7.4292     4.5313    -4.4221 C.ar    
   4 C4             6.9873     3.8752    -3.2869 C.ar    
   5 C5             5.9216     4.3767    -2.5609 C.ar    
   6 C6             5.2922     5.5357    -2.9650 C.ar    
   7 N7             8.0340     0.3937    -1.1179 N.am    
   8 C8             8.9610     1.5270    -0.9947 C.3     
   9 C9             8.2384     2.8049    -1.4324 C.3     
  10 C10            7.6697     2.6082    -2.8395 C.3     
  11 C11            6.6569     1.4609    -2.8264 C.3     
  12 C12            7.3615     0.1678    -2.4046 C.3     
  13 C13            7.8091    -0.4263    -0.0722 C.2     
  14 C14            8.5927    -0.2698     1.1719 C.ar    
  15 C15            7.9628    -0.3764     2.4140 C.ar    
  16 C16            8.6932    -0.2305     3.5763 C.ar    
  17 C17           10.0500     0.0216     3.5195 C.ar    
  18 C18           10.6918     0.1309     2.2846 C.ar    
  19 C19            9.9621    -0.0213     1.1079 C.ar    
  20 O20            6.9621    -1.2944    -0.1519 O.2     
  21 C21           12.1452     0.4016     2.2259 C.2     
  22 N22           12.9531     0.5604     3.2505 N.2     
  23 C23           10.8393     0.1794     4.7935 C.3     
  24 C24            5.0880     7.4099    -4.5317 C.1     
  25 N25            4.5764     8.3673    -4.8666 N.1     
  26 N26           14.1480     0.7799     2.8306 N.2     
  27 C27           14.1722     0.7741     1.5248 C.2     
  28 N28           12.9048     0.5282     1.0945 N.pl3   
  29 C29           15.3826     0.9934     0.6543 C.3     
  30 C30           15.9846    -0.3591     0.2678 C.3     
  31 C31           14.9708     1.7486    -0.6110 C.3     
  32 H32            7.1546     6.2023    -5.7240 H       
  33 H33            8.2614     4.1342    -4.9844 H       
  34 H34            5.5818     3.8595    -1.6758 H       
  35 H35            4.4606     5.9263    -2.3972 H       
  36 H36            9.2819     1.6255     0.0423 H       
  37 H37            9.8284     1.3607    -1.6335 H       
  38 H38            7.4258     3.0192    -0.7382 H       
  39 H39            8.9422     3.6372    -1.4375 H       
  40 H40            8.4798     2.3692    -3.5285 H       
  41 H41            5.8591     1.6879    -2.1192 H       
  42 H42            6.2350     1.3367    -3.8238 H       
  43 H43            8.0985    -0.1094    -3.1583 H       
  44 H44            6.6271    -0.6305    -2.2978 H       
  45 H45            6.9021    -0.5731     2.4652 H       
  46 H46            8.2015    -0.3135     4.5342 H       
  47 H47           10.4549     0.0573     0.1501 H       
  48 H48           11.2177    -0.7928     5.1093 H       
  49 H49           11.6760     0.8564     4.6210 H       
  50 H50           10.1951     0.5888     5.5716 H       
  51 H51           12.6012     0.4624     0.1756 H       
  52 H52           16.1226     1.5774     1.2014 H       
  53 H53           16.2780    -0.8971     1.1692 H       
  54 H54           15.2447    -0.9431    -0.2794 H       
  55 H55           16.8602    -0.2004    -0.3618 H       
  56 H56           14.5419     2.7121    -0.3356 H       
  57 H57           15.8463     1.9072    -1.2406 H       
  58 H58           14.2308     1.1646    -1.1581 H       
@<TRIPOS>BOND
   1    1    2 ar
   2    1    6 ar
   3    1   24 1
   4    2    3 ar
   5    2   32 1
   6    3    4 ar
   7    3   33 1
   8    4    5 ar
   9    4   10 1
  10    5    6 ar
  11    5   34 1
  12    6   35 1
  13    7    8 1
  14    7   12 1
  15    7   13 am
  16    8    9 1
  17    8   36 1
  18    8   37 1
  19    9   10 1
  20    9   38 1
  21    9   39 1
  22   10   11 1
  23   10   40 1
  24   11   12 1
  25   11   41 1
  26   11   42 1
  27   12   43 1
  28   12   44 1
  29   13   14 1
  30   13   20 2
  31   14   15 ar
  32   14   19 ar
  33   15   16 ar
  34   15   45 1
  35   16   17 ar
  36   16   46 1
  37   17   18 ar
  38   17   23 1
  39   18   19 ar
  40   18   21 1
  41   19   47 1
  42   21   22 2
  43   21   28 1
  44   22   26 1
  45   23   48 1
  46   23   49 1
  47   23   50 1
  48   24   25 3
  49   26   27 2
  50   27   28 1
  51   27   29 1
  52   28   51 1
  53   29   30 1
  54   29   31 1
  55   29   52 1
  56   30   53 1
  57   30   54 1
  58   30   55 1
  59   31   56 1
  60   31   57 1
  61   31   58 1

#	End of record

