#	Name: ASD02198215
#	Creating user name:	WinNT
#	Creation time:	15. 06. 2019 20:19

#	Modifying user name:	WinNT
#	Modification time:	15. 06. 2019 20:19

#	Program:	/corina/corina34_cracker 3.40 0067  02.08.2006

@<TRIPOS>MOLECULE
ASD02198215
  45   48    0    0    0
SMALL
NO_CHARGES


@<TRIPOS>ATOM
   1 C1            -0.0168     1.3750    -0.0243 C.2     
   2 C2             0.0021    -0.0039     0.0119 C.2     
   3 C3            -1.1877    -0.8005     0.0315 C.1     
   4 S4             1.5673     2.0051    -0.0390 S.3     
   5 C5             2.2773     0.3992     0.0038 C.2     
   6 C6             1.2825    -0.5515     0.0277 C.2     
   7 C7             3.6581     0.1254     0.0121 C.2     
   8 C8             4.6308     1.2353    -0.0158 C.2     
   9 O9             4.0508    -1.0292     0.0424 O.2     
  10 N10            1.5297    -1.9144     0.0641 N.pl3   
  11 N11           -1.1595     2.1384    -0.0508 N.pl3   
  12 N12           -2.1316    -1.4324     0.0470 N.1     
  13 C13           -1.0635     3.5998    -0.0885 C.3     
  14 C14           -2.3327     4.1953    -0.7226 C.3     
  15 C15            5.9936     1.1307    -0.0119 C.2     
  16 C16            6.4373     2.4803    -0.0466 C.2     
  17 O17            4.3521     2.5517    -0.0561 O.3     
  18 N18            5.3577     3.2222    -0.0667 N.2     
  19 C19            7.8434     2.9548    -0.0572 C.ar    
  20 C20            8.2501     3.9181    -0.9795 C.ar    
  21 C21            8.7617     2.4432     0.8588 C.ar    
  22 C22           10.0693     2.8888     0.8438 C.ar    
  23 C23           10.4681     3.8404    -0.0772 C.ar    
  24 C24            9.5604     4.3558    -0.9845 C.ar    
  25 C25           -2.9788     5.0978     0.3489 C.3     
  26 C26           -1.8054     5.4721     1.2880 C.3     
  27 C27           -0.9825     4.1612     1.3461 C.3     
  28 Cl28           8.2628     1.2492     2.0160 Cl      
  29 Cl29           7.1123     4.5658    -2.1196 Cl      
  30 H30            2.4428    -2.2417     0.0740 H       
  31 H31            0.7897    -2.5413     0.0797 H       
  32 H32           -2.0296     1.7096    -0.0446 H       
  33 H33           -0.1846     3.9014    -0.6584 H       
  34 H34           -2.0698     4.7866    -1.5997 H       
  35 H35           -3.0202     3.3970    -1.0023 H       
  36 H36            6.5929     0.2326     0.0124 H       
  37 H37           10.7814     2.4936     1.5531 H       
  38 H38           11.4914     4.1856    -0.0850 H       
  39 H39            9.8778     5.0984    -1.7016 H       
  40 H40           -3.4007     5.9922    -0.1096 H       
  41 H41           -3.7460     4.5505     0.8965 H       
  42 H42           -1.2127     6.2816     0.8620 H       
  43 H43           -2.1736     5.7412     2.2780 H       
  44 H44           -1.4274     3.4626     2.0548 H       
  45 H45            0.0525     4.3720     1.6154 H       
@<TRIPOS>BOND
   1    1    2 2
   2    1    4 1
   3    1   11 1
   4    2    3 1
   5    2    6 1
   6    3   12 3
   7    4    5 1
   8    5    6 2
   9    5    7 1
  10    6   10 1
  11    7    8 1
  12    7    9 2
  13    8   15 2
  14    8   17 1
  15   10   30 1
  16   10   31 1
  17   11   13 1
  18   11   32 1
  19   13   14 1
  20   13   27 1
  21   13   33 1
  22   14   25 1
  23   14   34 1
  24   14   35 1
  25   15   16 1
  26   15   36 1
  27   16   19 1
  28   16   18 2
  29   17   18 1
  30   19   20 ar
  31   19   21 ar
  32   20   29 1
  33   20   24 ar
  34   21   22 ar
  35   21   28 1
  36   22   23 ar
  37   22   37 1
  38   23   24 ar
  39   23   38 1
  40   24   39 1
  41   25   26 1
  42   25   40 1
  43   25   41 1
  44   26   27 1
  45   26   42 1
  46   26   43 1
  47   27   44 1
  48   27   45 1

#	End of record

