#	Name: ASD03731496
#	Creating user name:	WinNT
#	Creation time:	15. 06. 2019 20:45

#	Modifying user name:	WinNT
#	Modification time:	15. 06. 2019 20:45

#	Program:	/corina/corina34_cracker 3.40 0067  02.08.2006

@<TRIPOS>MOLECULE
ASD03731496
  58   63    0    0    0
SMALL
NO_CHARGES


@<TRIPOS>ATOM
   1 C1            -0.0180     1.4730     0.0101 C.2     
   2 C2             0.0021    -0.0041     0.0020 C.ar    
   3 C3             1.2196    -0.6884    -0.0133 C.ar    
   4 C4             1.2325    -2.0665    -0.0203 C.ar    
   5 C5             0.0397    -2.7736    -0.0127 C.ar    
   6 C6            -1.1716    -2.0994     0.0025 C.ar    
   7 C7            -1.1960    -0.7211     0.0154 C.ar    
   8 O8             1.0265     2.0951     0.0035 O.2     
   9 N9            -1.1942     2.1309     0.0193 N.am    
  10 C10            2.5167     0.0788    -0.0226 C.3     
  11 F11            3.5894    -0.8191    -0.0374 F       
  12 F12            2.5710     0.8891    -1.1617 F       
  13 F13            2.5937     0.8784     1.1228 F       
  14 C14           -1.2140     3.5958     0.0274 C.3     
  15 C15           -2.6633     4.0861     0.0369 C.3     
  16 C16           -2.6841     5.6160     0.0453 C.3     
  17 O17           -8.8975     2.7095     2.1987 O.3     
  18 C18          -10.3146     2.7630     2.4479 C.3     
  19 O19          -10.5197     4.0874     2.9742 O.3     
  20 C20           -9.5161     4.8496     2.4482 C.ar    
  21 C21           -8.5185     4.0018     1.9724 C.ar    
  22 C22           -9.3713     6.2206     2.3342 C.ar    
  23 C23           -8.2318     6.7628     1.7474 C.ar    
  24 C24           -7.2383     5.9060     1.2833 C.ar    
  25 C25           -7.3826     4.5384     1.3900 C.ar    
  26 O26           -7.9028     8.0675     1.5241 O.3     
  27 C27           -6.1399     6.7786     0.7376 C.3     
  28 C28           -6.4842     8.1670     1.2937 C.3     
  29 N29           -4.0718     6.0855     0.0544 N.am    
  30 C30           -4.7791     6.3210     1.1775 C.2     
  31 C31           -6.0966     6.7714    -0.7617 C.ar    
  32 C32           -7.0122     7.0843    -1.7415 C.ar    
  33 C33           -6.6638     6.9749    -3.0759 C.ar    
  34 C34           -5.3943     6.5499    -3.4232 C.ar    
  35 C35           -4.4740     6.2344    -2.4455 C.ar    
  36 C36           -4.8158     6.3420    -1.0997 C.ar    
  37 O37           -4.3921     6.1895     2.3194 O.2     
  38 F38            0.0580    -4.1245    -0.0206 F       
  39 H39            2.1734    -2.5966    -0.0322 H       
  40 H40           -2.0977    -2.6550     0.0083 H       
  41 H41           -2.1401    -0.1968     0.0318 H       
  42 H42           -2.0276     1.6346     0.0206 H       
  43 H43           -0.7010     3.9612     0.9169 H       
  44 H44           -0.7094     3.9709    -0.8630 H       
  45 H45           -3.1764     3.7207    -0.8527 H       
  46 H46           -3.1679     3.7110     0.9272 H       
  47 H47           -2.1710     5.9814     0.9349 H       
  48 H48           -2.1794     5.9911    -0.8451 H       
  49 H49          -10.8718     2.6288     1.5208 H       
  50 H50          -10.6030     2.0104     3.1817 H       
  51 H51          -10.1476     6.8745     2.7030 H       
  52 H52           -6.6074     3.8845     1.0187 H       
  53 H53           -6.2646     8.9431     0.5605 H       
  54 H54           -5.9526     8.3530     2.2269 H       
  55 H55           -8.0030     7.4157    -1.4680 H       
  56 H56           -7.3814     7.2210    -3.8446 H       
  57 H57           -5.1224     6.4644    -4.4649 H       
  58 H58           -3.4848     5.9027    -2.7246 H       
@<TRIPOS>BOND
   1    1    2 1
   2    1    8 2
   3    1    9 am
   4    2    3 ar
   5    2    7 ar
   6    3    4 ar
   7    3   10 1
   8    4    5 ar
   9    4   39 1
  10    5    6 ar
  11    5   38 1
  12    6    7 ar
  13    6   40 1
  14    7   41 1
  15    9   14 1
  16    9   42 1
  17   10   11 1
  18   10   12 1
  19   10   13 1
  20   14   15 1
  21   14   43 1
  22   14   44 1
  23   15   16 1
  24   15   45 1
  25   15   46 1
  26   16   29 1
  27   16   47 1
  28   16   48 1
  29   17   18 1
  30   17   21 1
  31   18   19 1
  32   18   49 1
  33   18   50 1
  34   19   20 1
  35   20   21 ar
  36   20   22 ar
  37   21   25 ar
  38   22   23 ar
  39   22   51 1
  40   23   24 ar
  41   23   26 1
  42   24   25 ar
  43   24   27 1
  44   25   52 1
  45   26   28 1
  46   27   28 1
  47   27   30 1
  48   27   31 1
  49   28   53 1
  50   28   54 1
  51   29   30 am
  52   29   36 1
  53   30   37 2
  54   31   32 ar
  55   31   36 ar
  56   32   33 ar
  57   32   55 1
  58   33   34 ar
  59   33   56 1
  60   34   35 ar
  61   34   57 1
  62   35   36 ar
  63   35   58 1

#	End of record

