#	Name: ASD01914821
#	Creating user name:	WinNT
#	Creation time:	15. 06. 2019 20:04

#	Modifying user name:	WinNT
#	Modification time:	15. 06. 2019 20:04

#	Program:	/corina/corina34_cracker 3.40 0067  02.08.2006

@<TRIPOS>MOLECULE
ASD01914821
  28   28    0    0    0
SMALL
NO_CHARGES


@<TRIPOS>ATOM
   1 C1            -0.0184     1.5028     0.0103 C.3     
   2 C2             0.0021    -0.0041     0.0020 C.2     
   3 C3            -1.2926    -0.7753     0.0102 C.3     
   4 C4            -0.9927    -2.2755    -0.0007 C.3     
   5 C5            -2.3072    -3.0585     0.0077 C.3     
   6 C6            -2.0072    -4.5588    -0.0033 C.3     
   7 O7             1.0559    -0.5936    -0.0112 O.2     
   8 C8             2.0407     2.2730    -1.1973 C.ar    
   9 C9             1.3954     2.0244    -0.0004 C.ar    
  10 C10            2.0652     2.2614     1.1900 C.ar    
  11 C11            3.3648     2.7417     1.1318 C.ar    
  12 C12            3.9449     2.9667    -0.1020 C.ar    
  13 N13            3.2776     2.7295    -1.2146 N.ar    
  14 H14           -0.5455     1.8639    -0.8728 H       
  15 H15           -0.5286     1.8543     0.9071 H       
  16 H16           -1.8592    -0.5245     0.9070 H       
  17 H17           -1.8762    -0.5150    -0.8728 H       
  18 H18           -0.4261    -2.5263    -0.8975 H       
  19 H19           -0.4091    -2.5358     0.8824 H       
  20 H20           -2.8737    -2.8077     0.9045 H       
  21 H21           -2.8907    -2.7982    -0.8754 H       
  22 H22           -1.4237    -4.8190     0.8798 H       
  23 H23           -2.9437    -5.1165     0.0027 H       
  24 H24           -1.4407    -4.8095    -0.9000 H       
  25 H25            1.5274     2.0868    -2.1291 H       
  26 H26            1.5861     2.0766     2.1401 H       
  27 H27            3.9164     2.9379     2.0393 H       
  28 H28            4.9566     3.3407    -0.1559 H       
@<TRIPOS>BOND
   1    1    2 1
   2    1    9 1
   3    1   14 1
   4    1   15 1
   5    2    3 1
   6    2    7 2
   7    3    4 1
   8    3   16 1
   9    3   17 1
  10    4    5 1
  11    4   18 1
  12    4   19 1
  13    5    6 1
  14    5   20 1
  15    5   21 1
  16    6   22 1
  17    6   23 1
  18    6   24 1
  19    8    9 ar
  20    8   13 ar
  21    8   25 1
  22    9   10 ar
  23   10   11 ar
  24   10   26 1
  25   11   12 ar
  26   11   27 1
  27   12   13 ar
  28   12   28 1

#	End of record

