#	Name: ASD03540307
#	Creating user name:	WinNT
#	Creation time:	15. 06. 2019 20:43

#	Modifying user name:	WinNT
#	Modification time:	15. 06. 2019 20:43

#	Program:	/corina/corina34_cracker 3.40 0067  02.08.2006

@<TRIPOS>MOLECULE
ASD03540307
  56   59    0    0    0
SMALL
NO_CHARGES


@<TRIPOS>ATOM
   1 C1            -0.0167     1.3794     0.0096 C.2     
   2 N2             0.0021    -0.0041     0.0020 N.am    
   3 C3             1.1565    -0.6857    -0.0122 C.2     
   4 N4             2.3495    -0.0696    -0.0203 N.am    
   5 C5             2.4351     1.2736    -0.0139 C.2     
   6 C6             1.1885     2.0715     0.0018 C.2     
   7 C7             1.0216     3.4582     0.0098 C.2     
   8 C8            -0.2600     3.8609     0.0230 C.2     
   9 S9            -1.3307     2.4709     0.0211 S.3     
  10 O10            3.5206     1.8236    -0.0205 O.2     
  11 C11            3.5757    -0.8710    -0.0359 C.3     
  12 C12           -1.2652    -0.7390     0.0102 C.3     
  13 O13            1.1220    -1.9010    -0.0176 O.2     
  14 C14            3.9891    -1.1427    -1.4837 C.3     
  15 O15            4.3347     0.0894    -2.1196 O.3     
  16 C16            4.7273     0.0242    -3.4190 C.ar    
  17 C17            5.0772     1.1822    -4.0981 C.ar    
  18 C18            5.4760     1.1132    -5.4190 C.ar    
  19 C19            5.5266    -0.1086    -6.0641 C.ar    
  20 C20            5.1779    -1.2642    -5.3897 C.ar    
  21 C21            4.7844    -1.2012    -4.0669 C.ar    
  22 C22           -0.6998     5.2580     0.0342 C.2     
  23 O23            0.1229     6.1551     0.0319 O.2     
  24 N24           -2.0155     5.5503     0.0471 N.am    
  25 C25           -2.4553     6.9477     0.0583 C.3     
  26 C26           -3.9614     7.0001     0.0715 C.ar    
  27 C27           -4.6408     7.0178     1.2756 C.ar    
  28 C28           -6.0213     7.0658     1.2904 C.ar    
  29 C29           -6.7260     7.0964     0.0958 C.ar    
  30 C30           -6.0419     7.0786    -1.1110 C.ar    
  31 C31           -4.6612     7.0362    -1.1204 C.ar    
  32 O32           -8.0841     7.1433     0.1077 O.3     
  33 C33           -8.7434     7.1727    -1.1598 C.3     
  34 H34            1.8524     4.1482     0.0058 H       
  35 H35            4.3715    -0.3274     0.4733 H       
  36 H36            3.3978    -1.8174     0.4749 H       
  37 H37           -1.5893    -0.9158    -1.0154 H       
  38 H38           -1.1282    -1.6939     0.5176 H       
  39 H39           -2.0210    -0.1542     0.5344 H       
  40 H40            4.8493    -1.8120    -1.4964 H       
  41 H41            3.1597    -1.6069    -2.0173 H       
  42 H42            5.0376     2.1369    -3.5947 H       
  43 H43            5.7482     2.0145    -5.9482 H       
  44 H44            5.8386    -0.1605    -7.0968 H       
  45 H45            5.2176    -2.2173    -5.8960 H       
  46 H46            4.5122    -2.1041    -3.5405 H       
  47 H47           -2.6711     4.8354     0.0489 H       
  48 H48           -2.0667     7.4438     0.9477 H       
  49 H49           -2.0820     7.4533    -0.8322 H       
  50 H50           -4.0918     6.9936     2.2053 H       
  51 H51           -6.5516     7.0792     2.2312 H       
  52 H52           -6.5883     7.1024    -2.0424 H       
  53 H53           -4.1281     7.0224    -2.0596 H       
  54 H54           -8.4248     8.0551    -1.7147 H       
  55 H55           -8.4862     6.2762    -1.7240 H       
  56 H56           -9.8221     7.2092    -1.0075 H       
@<TRIPOS>BOND
   1    1    2 1
   2    1    6 2
   3    1    9 1
   4    2    3 am
   5    2   12 1
   6    3    4 am
   7    3   13 2
   8    4    5 am
   9    4   11 1
  10    5    6 1
  11    5   10 2
  12    6    7 1
  13    7    8 2
  14    7   34 1
  15    8    9 1
  16    8   22 1
  17   11   14 1
  18   11   35 1
  19   11   36 1
  20   12   37 1
  21   12   38 1
  22   12   39 1
  23   14   15 1
  24   14   40 1
  25   14   41 1
  26   15   16 1
  27   16   17 ar
  28   16   21 ar
  29   17   18 ar
  30   17   42 1
  31   18   19 ar
  32   18   43 1
  33   19   20 ar
  34   19   44 1
  35   20   21 ar
  36   20   45 1
  37   21   46 1
  38   22   23 2
  39   22   24 am
  40   24   25 1
  41   24   47 1
  42   25   26 1
  43   25   48 1
  44   25   49 1
  45   26   27 ar
  46   26   31 ar
  47   27   28 ar
  48   27   50 1
  49   28   29 ar
  50   28   51 1
  51   29   30 ar
  52   29   32 1
  53   30   31 ar
  54   30   52 1
  55   31   53 1
  56   32   33 1
  57   33   54 1
  58   33   55 1
  59   33   56 1

#	End of record

