#	Name: ASD03130004
#	Creating user name:	WinNT
#	Creation time:	15. 06. 2019 20:33

#	Modifying user name:	WinNT
#	Modification time:	15. 06. 2019 20:33

#	Program:	/corina/corina34_cracker 3.40 0067  02.08.2006

@<TRIPOS>MOLECULE
ASD03130004
 315  314    0    0    0
SMALL
NO_CHARGES


@<TRIPOS>ATOM
   1 N1            14.8175    -3.6380    -1.9546 N.am    
   2 C2           -27.6593   -35.2427    15.1534 C.2     
   3 O3           -27.6619   -35.6224    14.0015 O.2     
   4 C4           -27.9323   -36.2184    16.2690 C.3     
   5 C5           -28.1791   -37.6092    15.6812 C.3     
   6 C6           -28.4563   -38.5998    16.8138 C.3     
   7 C7           -28.7031   -39.9906    16.2260 C.3     
   8 C8           -28.9803   -40.9812    17.3586 C.3     
   9 C9           -29.2271   -42.3720    16.7708 C.3     
  10 C10          -29.5042   -43.3625    17.9034 C.3     
  11 C11          -29.7511   -44.7534    17.3156 C.3     
  12 C12          -30.0282   -45.7439    18.4483 C.3     
  13 C13          -30.2750   -47.1348    17.8604 C.3     
  14 C14          -30.5522   -48.1253    18.9931 C.3     
  15 C15          -30.7990   -49.5162    18.4053 C.3     
  16 C16          -31.0762   -50.5067    19.5379 C.3     
  17 C17          -31.3230   -51.8976    18.9501 C.3     
  18 C18          -31.6001   -52.8881    20.0827 C.3     
  19 C19          -28.4728   -32.4739    13.7976 C.3     
  20 C20          -27.1469   -32.9997    14.3511 C.3     
  21 C21          -26.3311   -31.8481    14.8793 C.2     
  22 N22          -27.4123   -33.9482    15.4356 N.am    
  23 O23          -26.2324   -31.6740    16.0705 O.2     
  24 C24          -28.1957   -31.4833    12.6650 C.3     
  25 C25          -29.3012   -33.6431    13.2613 C.3     
  26 C26          -21.5169   -29.1901    11.6877 C.3     
  27 C27          -21.9762   -28.0437    12.5908 C.3     
  28 C28          -22.8463   -28.5902    13.6932 C.2     
  29 N29          -20.8029   -27.3811    13.1760 N.3     
  30 O30          -22.5211   -28.4423    14.8522 O.2     
  31 C31          -20.7226   -30.1812    12.4989 C.2     
  32 N32          -20.3150   -31.3375    11.9390 N.am    
  33 O33          -20.4501   -29.9384    13.6555 O.2     
  34 C34          -17.9477   -26.2799    12.2766 C.3     
  35 C35          -19.1749   -25.6251    12.9139 C.3     
  36 C36          -19.1755   -24.1504    12.6033 C.2     
  37 N37          -20.3944   -26.2399    12.3729 N.3     
  38 O38          -20.1008   -23.6600    11.9915 O.2     
  39 C39          -17.8794   -27.7502    12.6946 C.3     
  40 C40          -16.7258   -28.4361    11.9601 C.3     
  41 C41          -17.6485   -27.8410    14.2043 C.3     
  42 C42          -18.9401   -21.1958    13.7784 C.3     
  43 C43          -18.1485   -21.9431    12.7034 C.3     
  44 C44          -16.7302   -21.4342    12.6791 C.2     
  45 N45          -18.1478   -23.3766    13.0053 N.am    
  46 O46          -15.8095   -22.1942    12.8930 O.2     
  47 O47          -18.2696   -21.3173    15.0345 O.3     
  48 C48          -14.5022   -19.8788    11.0109 C.3     
  49 C49          -15.1061   -19.6399    12.3962 C.3     
  50 C50          -15.0967   -18.1640    12.7006 C.2     
  51 N51          -16.4849   -20.1346    12.4198 N.am    
  52 O52          -16.1390   -17.5826    12.9159 O.2     
  53 C53          -14.3969   -21.3833    10.7530 C.3     
  54 C54          -13.8020   -21.6186     9.3885 C.2     
  55 O55          -13.4927   -20.6759     8.6910 O.2     
  56 N56          -13.6137   -22.8767     8.9433 N.am    
  57 C57          -13.9149   -15.8472    14.5450 C.3     
  58 C58          -13.9208   -16.0554    13.0293 C.3     
  59 C59          -12.6886   -15.4270    12.4311 C.2     
  60 N60          -13.9299   -17.4901    12.7334 N.am    
  61 O61          -11.8270   -16.1270    11.9426 O.2     
  62 C62          -15.2331   -16.3530    15.1344 C.3     
  63 C63          -12.7494   -16.6232    15.1618 C.3     
  64 C64          -11.3841   -13.3166    10.4283 C.3     
  65 C65          -11.3040   -13.4812    11.9474 C.3     
  66 C66          -11.1154   -12.1310    12.5897 C.2     
  67 N67          -12.5439   -14.0870    12.4390 N.am    
  68 O68          -11.9361   -11.7157    13.3802 O.2     
  69 C69          -11.4501   -14.6956     9.7688 C.3     
  70 C70          -11.5290   -14.5335     8.2726 C.2     
  71 O71          -11.5321   -13.4285     7.7840 O.2     
  72 O72          -11.5959   -15.6168     7.4828 O.3     
  73 C73           -9.1683   -10.2447    14.2679 C.3     
  74 C74           -9.8517   -10.0725    12.9099 C.3     
  75 C75           -8.9935    -9.2091    12.0216 C.2     
  76 N76          -10.0349   -11.3850    12.2855 N.am    
  77 O77           -8.5761    -9.6470    10.9705 O.2     
  78 C78          -10.0943   -11.0157    15.2108 C.3     
  79 C79           -9.4212   -11.1853    16.5484 C.2     
  80 O80           -8.3102   -10.7340    16.7297 O.2     
  81 N81          -10.0538   -11.8385    17.5431 N.am    
  82 C82           -8.2314    -5.6131    11.8392 C.3     
  83 C83           -7.9488    -7.0743    11.4844 C.3     
  84 C84           -6.4724    -7.3467    11.6158 C.2     
  85 N85           -8.6899    -7.9502    12.3953 N.am    
  86 O86           -6.0782    -8.1894    12.3938 O.2     
  87 C87           -9.6896    -5.3126    11.6059 C.2     
  88 O88          -10.4048    -6.1452    11.1008 O.2     
  89 O89          -10.1939    -4.1198    11.9593 O.3     
  90 C90           -4.1550    -6.9185    10.9966 C.3     
  91 C91           -3.3926    -6.0175    10.0596 C.2     
  92 N92           -5.5902    -6.6537    10.8688 N.am    
  93 O93           -3.9893    -5.2316     9.3545 O.2     
  94 C94           -1.0649    -3.8579     9.7700 C.3     
  95 C95           -1.3065    -5.2091     9.0943 C.3     
  96 C96            0.0170    -5.8439     8.7529 C.2     
  97 N97           -2.0476    -6.0850    10.0052 N.am    
  98 O98            0.3121    -6.9217     9.2241 O.2     
  99 N99           -3.4466    -1.1360    10.9034 N.pl3   
 100 C100          -3.4805     0.1013    11.5019 C.2     
 101 N101          -2.3710     0.6778    11.8700 N.2     
 102 N102          -4.6847     0.7305    11.7120 N.pl3   
 103 C103          -2.4050    -3.1577    10.0038 C.3     
 104 C104          -2.1634    -1.8064    10.6795 C.3     
 105 C105           1.9732    -6.8016     6.4243 C.3     
 106 C106           2.1593    -5.8308     7.5921 C.3     
 107 C107           3.1447    -4.7592     7.2023 C.2     
 108 N108           0.8727    -5.2137     7.9240 N.am    
 109 O109           2.7715    -3.6136     7.0639 O.2     
 110 O110           1.4766    -6.0909     5.2885 O.3     
 111 C111           0.9746    -7.8909     6.8209 C.3     
 112 C112           6.1860    -3.5121     7.7114 C.3     
 113 C113           5.3783    -4.0546     6.5305 C.3     
 114 C114           6.3145    -4.6664     5.5204 C.2     
 115 N115           4.4406    -5.0740     7.0076 N.am    
 116 O116           6.2221    -5.8435     5.2431 O.2     
 117 C117           5.2545    -2.7597     8.6637 C.3     
 118 C118           6.8451    -4.6751     8.4556 C.3     
 119 C119           7.8932    -5.3295     7.5532 C.3     
 120 C120           8.2343    -4.5213     4.0269 C.3     
 121 C121           9.1657    -3.4616     3.4975 C.2     
 122 N122           7.2544    -3.9056     4.9253 N.am    
 123 O123           9.0249    -2.3058     3.8370 O.2     
 124 C124          12.2808    -2.7340     3.2216 C.3     
 125 C125          11.1274    -2.7895     2.2179 C.3     
 126 C126          11.6627    -3.1541     0.8572 C.2     
 127 N127          10.1552    -3.7981     2.6465 N.am    
 128 O128          11.6917    -4.3153     0.5081 O.2     
 129 C129          13.0459    -4.0587     3.1932 C.3     
 130 C130          13.2267    -1.5907     2.8487 C.3     
 131 C131          12.5005    -0.2540     3.0122 C.3     
 132 C132          12.5583    -1.3819    -2.2361 C.3     
 133 C133          12.7073    -2.5503    -1.2598 C.3     
 134 C134          14.1695    -2.8594    -1.0657 C.2     
 135 N135          12.1092    -2.1899     0.0281 N.am    
 136 O136          14.7631    -2.4073    -0.1095 O.2     
 137 C137          13.3744    -0.1895    -1.7330 C.3     
 138 C138          13.0673    -1.8024    -3.6163 C.3     
 139 C139          12.8088    -0.6769    -4.6200 C.3     
 140 C140         -25.7685   -28.6745    14.9660 C.3     
 141 C141         -24.8318   -29.7746    14.4627 C.3     
 142 C142         -25.6477   -30.9263    13.9345 C.2     
 143 N143         -23.9859   -29.2433    13.3911 N.am    
 144 O144         -25.7463   -31.1003    12.7433 O.2     
 145 C145         -24.9446   -27.5607    15.6152 C.3     
 146 C146         -25.8672   -26.4771    16.1109 C.2     
 147 O147         -27.0657   -26.5851    15.9598 O.2     
 148 N148         -25.3605   -25.3880    16.7221 N.am    
 149 H149          14.3277    -4.0586    -2.6785 H       
 150 H150          15.7743    -3.7746    -1.8728 H       
 151 H151         -27.0731   -36.2542    16.9387 H       
 152 H152         -28.8132   -35.8974    16.8250 H       
 153 H153         -29.0384   -37.5734    15.0115 H       
 154 H154         -27.2983   -37.9302    15.1252 H       
 155 H155         -27.5970   -38.6356    17.4835 H       
 156 H156         -29.3372   -38.2787    17.3698 H       
 157 H157         -29.5624   -39.9548    15.5563 H       
 158 H158         -27.8223   -40.3116    15.6700 H       
 159 H159         -28.1210   -41.0170    18.0283 H       
 160 H160         -29.8611   -40.6601    17.9146 H       
 161 H161         -30.0864   -42.3362    16.1011 H       
 162 H162         -28.3462   -42.6930    16.2148 H       
 163 H163         -28.6450   -43.3984    18.5731 H       
 164 H164         -30.3851   -43.0415    18.4594 H       
 165 H165         -30.6103   -44.7175    16.6459 H       
 166 H166         -28.8702   -45.0744    16.7596 H       
 167 H167         -29.1690   -45.7798    19.1180 H       
 168 H168         -30.9091   -45.4229    19.0043 H       
 169 H169         -31.1343   -47.0989    17.1907 H       
 170 H170         -29.3942   -47.4558    17.3044 H       
 171 H171         -29.6929   -48.1612    19.6628 H       
 172 H172         -31.4331   -47.8043    19.5491 H       
 173 H173         -31.6583   -49.4803    17.7356 H       
 174 H174         -29.9182   -49.8372    17.8493 H       
 175 H175         -30.2169   -50.5426    20.2076 H       
 176 H176         -31.9570   -50.1857    20.0939 H       
 177 H177         -32.1823   -51.8617    18.2804 H       
 178 H178         -30.4421   -52.2186    18.3941 H       
 179 H179         -32.4810   -52.5671    20.6387 H       
 180 H180         -31.7760   -53.8790    19.6640 H       
 181 H181         -30.7409   -52.9239    20.7524 H       
 182 H182         -29.0248   -31.9720    14.5923 H       
 183 H183         -26.5950   -33.5017    13.5564 H       
 184 H184         -27.4102   -33.6445    16.3569 H       
 185 H185         -29.1403   -31.1087    12.2706 H       
 186 H186         -27.6056   -30.6504    13.0470 H       
 187 H187         -27.6438   -31.9853    11.8703 H       
 188 H188         -28.7492   -34.1451    12.4666 H       
 189 H189         -29.4986   -34.3488    14.0682 H       
 190 H190         -30.2458   -33.2685    12.8670 H       
 191 H191         -22.3877   -29.6863    11.2592 H       
 192 H192         -20.8934   -28.7939    10.8863 H       
 193 H193         -22.5446   -27.3232    12.0026 H       
 194 H194         -20.9813   -27.1064    14.1303 H       
 195 H195         -20.5329   -31.5317    11.0140 H       
 196 H196         -19.8038   -31.9754    12.4611 H       
 197 H197         -18.0231   -26.2139    11.1912 H       
 198 H198         -17.0467   -25.7651    12.6102 H       
 199 H199         -19.1438   -25.7689    13.9939 H       
 200 H200         -20.2685   -26.5039    11.4072 H       
 201 H201         -18.8171   -28.2442    12.4401 H       
 202 H202         -15.7881   -27.9421    12.2146 H       
 203 H203         -16.6771   -29.4835    12.2578 H       
 204 H204         -16.8902   -28.3714    10.8845 H       
 205 H205         -17.5998   -28.8884    14.5021 H       
 206 H206         -16.7108   -27.3469    14.4589 H       
 207 H207         -18.4704   -27.3523    14.7276 H       
 208 H208         -19.0162   -20.1427    13.5075 H       
 209 H209         -19.9395   -21.6238    13.8571 H       
 210 H210         -18.6108   -21.7769    11.7303 H       
 211 H211         -17.4078   -23.7689    13.4946 H       
 212 H212         -18.7164   -20.8665    15.7641 H       
 213 H213         -15.1401   -19.4241    10.2531 H       
 214 H214         -13.5090   -19.4321    10.9656 H       
 215 H215         -14.5174   -20.1692    13.1454 H       
 216 H216         -17.2212   -19.5268    12.2487 H       
 217 H217         -13.7590   -21.8380    11.5108 H       
 218 H218         -15.3901   -21.8301    10.7983 H       
 219 H219         -13.8611   -23.6307     9.5012 H       
 220 H220         -13.2308   -23.0282     8.0651 H       
 221 H221         -13.8018   -14.7858    14.7656 H       
 222 H222         -14.8094   -15.5906    12.6022 H       
 223 H223         -13.0963   -17.9552    12.5611 H       
 224 H224         -15.2343   -16.1926    16.2125 H       
 225 H225         -16.0642   -15.8094    14.6852 H       
 226 H226         -15.3398   -17.4175    14.9254 H       
 227 H227         -12.8624   -17.6847    14.9413 H       
 228 H228         -11.8103   -16.2629    14.7419 H       
 229 H229         -12.7452   -16.4750    16.2417 H       
 230 H230         -12.2775   -12.7477    10.1711 H       
 231 H231         -10.5007   -12.7860    10.0733 H       
 232 H232         -10.4607   -14.1243    12.1992 H       
 233 H233         -13.2608   -13.5237    12.7702 H       
 234 H234         -10.5567   -15.2645    10.0260 H       
 235 H235         -12.3335   -15.2263    10.1238 H       
 236 H236         -11.6451   -15.4626     6.5294 H       
 237 H237          -8.2383   -10.7983    14.1391 H       
 238 H238          -8.9518    -9.2645    14.6926 H       
 239 H239         -10.8229    -9.5978    13.0495 H       
 240 H240          -9.3786   -11.7172    11.6532 H       
 241 H241         -11.0244   -10.4620    15.3396 H       
 242 H242         -10.3109   -11.9959    14.7861 H       
 243 H243         -10.9424   -12.1995    17.3981 H       
 244 H244          -9.6206   -11.9477    18.4041 H       
 245 H245          -7.9880    -5.4402    12.8875 H       
 246 H246          -7.6215    -4.9625    11.2124 H       
 247 H247          -8.2638    -7.2667    10.4588 H       
 248 H248          -8.9622    -7.6242    13.2673 H       
 249 H249         -11.1346    -3.9733    11.7899 H       
 250 H250          -3.9537    -7.9594    10.7439 H       
 251 H251          -3.8400    -6.7261    12.0222 H       
 252 H252          -5.9056    -5.9797    10.2466 H       
 253 H253          -0.5648    -4.0139    10.7259 H       
 254 H254          -0.4380    -3.2380     9.1289 H       
 255 H255          -1.8845    -5.0610     8.1821 H       
 256 H256          -1.5704    -6.7136    10.5691 H       
 257 H257          -4.2723    -1.5650    10.6294 H       
 258 H258          -2.3950     1.5508    12.2923 H       
 259 H259          -5.5104     0.3014    11.4380 H       
 260 H260          -4.7087     1.6034    12.1342 H       
 261 H261          -2.9051    -3.0017     9.0480 H       
 262 H262          -3.0318    -3.7776    10.6449 H       
 263 H263          -1.5366    -1.1865    10.0385 H       
 264 H264          -1.6633    -1.9624    11.6354 H       
 265 H265           2.9308    -7.2594     6.1763 H       
 266 H266           2.5365    -6.3732     8.4590 H       
 267 H267           0.6367    -4.3516     7.5471 H       
 268 H268           2.0600    -5.3835     4.9812 H       
 269 H269          -0.0095    -7.4458     6.9675 H       
 270 H270           0.9207    -8.6396     6.0305 H       
 271 H271           1.3013    -8.3634     7.7473 H       
 272 H272           6.9555    -2.8332     7.3439 H       
 273 H273           4.8236    -3.2400     6.0650 H       
 274 H274           4.7524    -5.9756     7.1832 H       
 275 H275           4.5650    -3.4639     9.1294 H       
 276 H276           5.8453    -2.2657     9.4350 H       
 277 H277           4.6894    -2.0134     8.1051 H       
 278 H278           7.3262    -4.3019     9.3597 H       
 279 H279           6.0870    -5.4106     8.7246 H       
 280 H280           7.3933    -5.8955     6.7671 H       
 281 H281           8.5185    -4.5581     7.1040 H       
 282 H282           8.5142    -6.0013     8.1457 H       
 283 H283           7.7155    -4.9977     3.1950 H       
 284 H284           8.8084    -5.2695     4.5734 H       
 285 H285           7.2821    -2.9504     5.0917 H       
 286 H286          11.8837    -2.5651     4.2225 H       
 287 H287          10.6418    -1.8149     2.1681 H       
 288 H288          10.2237    -4.7082     2.3179 H       
 289 H289          13.5203    -4.1835     2.2198 H       
 290 H290          13.8090    -4.0543     3.9715 H       
 291 H291          12.3533    -4.8820     3.3681 H       
 292 H292          14.0987    -1.6127     3.5023 H       
 293 H293          13.5460    -1.7064     1.8130 H       
 294 H294          13.1530     0.5562     2.6867 H       
 295 H295          11.5943    -0.2564     2.4064 H       
 296 H296          12.2368    -0.1095     4.0599 H       
 297 H297          11.5079    -1.0992    -2.3069 H       
 298 H298          12.2010    -3.4274    -1.6627 H       
 299 H299          12.0346    -1.2573     0.2841 H       
 300 H300          13.2682     0.6429    -2.4286 H       
 301 H301          13.0118     0.1101    -0.7498 H       
 302 H302          14.4248    -0.4722    -1.6623 H       
 303 H303          14.1373    -2.0032    -3.5632 H       
 304 H304          12.5441    -2.7030    -3.9377 H       
 305 H305          11.7388    -0.4761    -4.6731 H       
 306 H306          13.3320     0.2237    -4.2986 H       
 307 H307          13.1715    -0.9765    -5.6032 H       
 308 H308         -26.3336   -28.2670    14.1278 H       
 309 H309         -26.4576   -29.0918    15.7002 H       
 310 H310         -24.2037   -30.1207    15.2836 H       
 311 H311         -24.2460   -29.3616    12.4641 H       
 312 H312         -24.3794   -27.9682    16.4534 H       
 313 H313         -24.2555   -27.1434    14.8810 H       
 314 H314         -24.4019   -25.3017    16.8430 H       
 315 H315         -25.9543   -24.6906    17.0412 H       
@<TRIPOS>BOND
   1    1  134 am
   2    1  149 1
   3    1  150 1
   4    2   22 am
   5    2    3 2
   6    2    4 1
   7    4    5 1
   8    4  151 1
   9    4  152 1
  10    5    6 1
  11    5  153 1
  12    5  154 1
  13    6    7 1
  14    6  155 1
  15    6  156 1
  16    7    8 1
  17    7  157 1
  18    7  158 1
  19    8    9 1
  20    8  159 1
  21    8  160 1
  22    9   10 1
  23    9  161 1
  24    9  162 1
  25   10   11 1
  26   10  163 1
  27   10  164 1
  28   11   12 1
  29   11  165 1
  30   11  166 1
  31   12   13 1
  32   12  167 1
  33   12  168 1
  34   13   14 1
  35   13  169 1
  36   13  170 1
  37   14   15 1
  38   14  171 1
  39   14  172 1
  40   15   16 1
  41   15  173 1
  42   15  174 1
  43   16   17 1
  44   16  175 1
  45   16  176 1
  46   17   18 1
  47   17  177 1
  48   17  178 1
  49   18  179 1
  50   18  180 1
  51   18  181 1
  52   19   24 1
  53   19   25 1
  54   19   20 1
  55   19  182 1
  56   20   22 1
  57   20   21 1
  58   20  183 1
  59   21   23 2
  60   21  142 1
  61   22  184 1
  62   24  185 1
  63   24  186 1
  64   24  187 1
  65   25  188 1
  66   25  189 1
  67   25  190 1
  68   26   31 1
  69   26   27 1
  70   26  191 1
  71   26  192 1
  72   27   29 1
  73   27   28 1
  74   27  193 1
  75   28   30 2
  76   28  143 am
  77   29   37 1
  78   29  194 1
  79   31   32 am
  80   31   33 2
  81   32  195 1
  82   32  196 1
  83   34   39 1
  84   34   35 1
  85   34  197 1
  86   34  198 1
  87   35   37 1
  88   35   36 1
  89   35  199 1
  90   36   38 2
  91   36   45 am
  92   37  200 1
  93   39   40 1
  94   39   41 1
  95   39  201 1
  96   40  202 1
  97   40  203 1
  98   40  204 1
  99   41  205 1
 100   41  206 1
 101   41  207 1
 102   42   47 1
 103   42   43 1
 104   42  208 1
 105   42  209 1
 106   43   45 1
 107   43   44 1
 108   43  210 1
 109   44   46 2
 110   44   51 am
 111   45  211 1
 112   47  212 1
 113   48   53 1
 114   48   49 1
 115   48  213 1
 116   48  214 1
 117   49   51 1
 118   49   50 1
 119   49  215 1
 120   50   52 2
 121   50   60 am
 122   51  216 1
 123   53   54 1
 124   53  217 1
 125   53  218 1
 126   54   55 2
 127   54   56 am
 128   56  219 1
 129   56  220 1
 130   57   62 1
 131   57   63 1
 132   57   58 1
 133   57  221 1
 134   58   60 1
 135   58   59 1
 136   58  222 1
 137   59   61 2
 138   59   67 am
 139   60  223 1
 140   62  224 1
 141   62  225 1
 142   62  226 1
 143   63  227 1
 144   63  228 1
 145   63  229 1
 146   64   69 1
 147   64   65 1
 148   64  230 1
 149   64  231 1
 150   65   67 1
 151   65   66 1
 152   65  232 1
 153   66   68 2
 154   66   76 am
 155   67  233 1
 156   69   70 1
 157   69  234 1
 158   69  235 1
 159   70   71 2
 160   70   72 1
 161   72  236 1
 162   73   78 1
 163   73   74 1
 164   73  237 1
 165   73  238 1
 166   74   76 1
 167   74   75 1
 168   74  239 1
 169   75   77 2
 170   75   85 am
 171   76  240 1
 172   78   79 1
 173   78  241 1
 174   78  242 1
 175   79   80 2
 176   79   81 am
 177   81  243 1
 178   81  244 1
 179   82   87 1
 180   82   83 1
 181   82  245 1
 182   82  246 1
 183   83   84 1
 184   83   85 1
 185   83  247 1
 186   84   86 2
 187   84   92 am
 188   85  248 1
 189   87   88 2
 190   87   89 1
 191   89  249 1
 192   90   91 1
 193   90   92 1
 194   90  250 1
 195   90  251 1
 196   91   93 2
 197   91   97 am
 198   92  252 1
 199   94  103 1
 200   94   95 1
 201   94  253 1
 202   94  254 1
 203   95   97 1
 204   95   96 1
 205   95  255 1
 206   96   98 2
 207   96  108 am
 208   97  256 1
 209   99  104 1
 210   99  100 1
 211   99  257 1
 212  100  101 2
 213  100  102 1
 214  101  258 1
 215  102  259 1
 216  102  260 1
 217  103  104 1
 218  103  261 1
 219  103  262 1
 220  104  263 1
 221  104  264 1
 222  105  106 1
 223  105  110 1
 224  105  111 1
 225  105  265 1
 226  106  108 1
 227  106  107 1
 228  106  266 1
 229  107  109 2
 230  107  115 am
 231  108  267 1
 232  110  268 1
 233  111  269 1
 234  111  270 1
 235  111  271 1
 236  112  113 1
 237  112  117 1
 238  112  118 1
 239  112  272 1
 240  113  115 1
 241  113  114 1
 242  113  273 1
 243  114  116 2
 244  114  122 am
 245  115  274 1
 246  117  275 1
 247  117  276 1
 248  117  277 1
 249  118  119 1
 250  118  278 1
 251  118  279 1
 252  119  280 1
 253  119  281 1
 254  119  282 1
 255  120  121 1
 256  120  122 1
 257  120  283 1
 258  120  284 1
 259  121  123 2
 260  121  127 am
 261  122  285 1
 262  124  125 1
 263  124  129 1
 264  124  130 1
 265  124  286 1
 266  125  127 1
 267  125  126 1
 268  125  287 1
 269  126  128 2
 270  126  135 am
 271  127  288 1
 272  129  289 1
 273  129  290 1
 274  129  291 1
 275  130  131 1
 276  130  292 1
 277  130  293 1
 278  131  294 1
 279  131  295 1
 280  131  296 1
 281  132  133 1
 282  132  137 1
 283  132  138 1
 284  132  297 1
 285  133  135 1
 286  133  134 1
 287  133  298 1
 288  134  136 2
 289  135  299 1
 290  137  300 1
 291  137  301 1
 292  137  302 1
 293  138  139 1
 294  138  303 1
 295  138  304 1
 296  139  305 1
 297  139  306 1
 298  139  307 1
 299  140  145 1
 300  140  141 1
 301  140  308 1
 302  140  309 1
 303  141  143 1
 304  141  142 1
 305  141  310 1
 306  142  144 2
 307  143  311 1
 308  145  146 1
 309  145  312 1
 310  145  313 1
 311  146  147 2
 312  146  148 am
 313  148  314 1
 314  148  315 1

#	End of record

