#	Name: ASD02038906
#	Creating user name:	WinNT
#	Creation time:	15. 06. 2019 20:17

#	Modifying user name:	WinNT
#	Modification time:	15. 06. 2019 20:17

#	Program:	/corina/corina34_cracker 3.40 0067  02.08.2006

@<TRIPOS>MOLECULE
ASD02038906
  45   45    0    0    0
SMALL
NO_CHARGES


@<TRIPOS>ATOM
   1 C1            -0.0184     1.5028     0.0103 C.2     
   2 C2             0.0021    -0.0041     0.0020 C.3     
   3 C3            -0.7241    -0.5171    -1.2431 C.3     
   4 C4            -0.7033    -2.0470    -1.2515 C.3     
   5 O5             1.0197     2.1211     0.0037 O.2     
   6 O6            -1.1898     2.1580     0.0194 O.3     
   7 O7            -2.0776    -0.0592    -1.2277 O.3     
   8 N8             1.3897    -0.4735    -0.0138 N.am    
   9 C9             1.6937    -1.6942     0.4701 C.2     
  10 O10            0.8168    -2.4053     0.9194 O.2     
  11 O11            2.9690    -2.1256     0.4556 O.3     
  12 C12            3.2228    -3.4505     0.9929 C.3     
  13 C13            2.4294    -4.4858     0.1931 C.3     
  14 C14            4.7169    -3.7640     0.8922 C.3     
  15 C15            2.7895    -3.4977     2.4594 C.3     
  16 C16           -1.1335     3.6089     0.0270 C.3     
  17 C17           -2.5337     4.1659     0.0367 C.ar    
  18 C18           -3.1703     4.4149     1.2383 C.ar    
  19 C19           -4.4547     4.9258     1.2471 C.ar    
  20 C20           -5.1024     5.1882     0.0544 C.ar    
  21 C21           -4.4656     4.9401    -1.1471 C.ar    
  22 C22           -3.1795     4.4332    -1.1559 C.ar    
  23 H23           -0.4983    -0.3791     0.8948 H       
  24 H24           -0.2237    -0.1421    -2.1359 H       
  25 H25           -1.2037    -2.4220    -0.3587 H       
  26 H26           -1.2207    -2.4125    -2.1386 H       
  27 H27            0.3291    -2.3963    -1.2633 H       
  28 H28           -2.5844    -0.3556    -0.4594 H       
  29 H29            2.0897     0.0941    -0.3724 H       
  30 H30            2.7381    -4.4521    -0.8518 H       
  31 H31            2.6199    -5.4803     0.5964 H       
  32 H32            1.3650    -4.2624     0.2648 H       
  33 H33            5.2821    -3.0265     1.4620 H       
  34 H34            4.9075    -4.7586     1.2955 H       
  35 H35            5.0256    -3.7304    -0.1526 H       
  36 H36            1.7250    -3.2744     2.5312 H       
  37 H37            2.9800    -4.4923     2.8628 H       
  38 H38            3.3547    -2.7602     3.0292 H       
  39 H39           -0.6017     3.9472     0.9164 H       
  40 H40           -0.6102     3.9569    -0.8636 H       
  41 H41           -2.6642     4.2099     2.1701 H       
  42 H42           -4.9523     5.1197     2.1859 H       
  43 H43           -6.1062     5.5867     0.0614 H       
  44 H44           -4.9718     5.1447    -2.0789 H       
  45 H45           -2.6806     4.2428    -2.0947 H       
@<TRIPOS>BOND
   1    1    2 1
   2    1    5 2
   3    1    6 1
   4    2    3 1
   5    2    8 1
   6    2   23 1
   7    3    4 1
   8    3    7 1
   9    3   24 1
  10    4   25 1
  11    4   26 1
  12    4   27 1
  13    6   16 1
  14    7   28 1
  15    8    9 am
  16    8   29 1
  17    9   10 2
  18    9   11 1
  19   11   12 1
  20   12   13 1
  21   12   15 1
  22   12   14 1
  23   13   30 1
  24   13   31 1
  25   13   32 1
  26   14   33 1
  27   14   34 1
  28   14   35 1
  29   15   36 1
  30   15   37 1
  31   15   38 1
  32   16   17 1
  33   16   39 1
  34   16   40 1
  35   17   18 ar
  36   17   22 ar
  37   18   19 ar
  38   18   41 1
  39   19   20 ar
  40   19   42 1
  41   20   21 ar
  42   20   43 1
  43   21   22 ar
  44   21   44 1
  45   22   45 1

#	End of record

