#	Name: ASD01883581
#	Creating user name:	WinNT
#	Creation time:	15. 06. 2019 19:46

#	Modifying user name:	WinNT
#	Modification time:	15. 06. 2019 19:46

#	Program:	/corina/corina34_cracker 3.40 0067  02.08.2006

@<TRIPOS>MOLECULE
ASD01883581
  50   52    0    0    0
SMALL
NO_CHARGES


@<TRIPOS>ATOM
   1 C1            -0.0430     1.3571    -0.2505 C.2     
   2 C2            -0.0320     0.0078    -0.2816 C.2     
   3 N3             1.1329    -0.6851    -0.1755 N.am    
   4 C4             2.3112    -0.0499    -0.0362 C.2     
   5 C5             2.3559     1.3514     0.0021 C.2     
   6 C6             1.1715     2.0661    -0.1060 C.2     
   7 O7             3.3436    -0.6951     0.0575 O.2     
   8 Cl8            3.8710     2.1795     0.1828 Cl      
   9 C9             1.1794     3.5464    -0.0697 C.ar    
  10 C10            0.7907     4.2753    -1.1942 C.ar    
  11 C11            0.7989     5.6548    -1.1564 C.ar    
  12 C12            1.1946     6.3173     0.0010 C.ar    
  13 C13            1.5817     5.5932     1.1209 C.ar    
  14 C14            1.5701     4.2151     1.0910 C.ar    
  15 O15            1.2028     7.6752     0.0357 O.3     
  16 C16            0.0485     8.3113     0.3602 C.ar    
  17 C17           -1.1263     7.5945     0.5735 C.ar    
  18 C18           -2.2791     8.2781     0.9017 C.ar    
  19 N19           -2.2769     9.5929     1.0135 N.ar    
  20 C20           -1.1841    10.3069     0.8191 C.ar    
  21 C21            0.0100     9.6974     0.4941 C.ar    
  22 C22            1.1050    -2.1493    -0.2131 C.3     
  23 C23            1.2461    -2.6251    -1.6604 C.3     
  24 C24           -1.2400    11.8062     0.9602 C.3     
  25 C25            1.2169    -4.1544    -1.6996 C.3     
  26 C26            1.3580    -4.6302    -3.1468 C.3     
  27 C27            1.2528    10.5209     0.2740 C.3     
  28 F28            0.4228     6.3623    -2.2442 F       
  29 H29           -0.9761     1.8934    -0.3401 H       
  30 H30           -0.9624    -0.5294    -0.3922 H       
  31 H31            0.4842     3.7607    -2.0929 H       
  32 H32            1.8887     6.1105     2.0178 H       
  33 H33            1.8714     3.6533     1.9628 H       
  34 H34           -1.1351     6.5183     0.4829 H       
  35 H35           -3.1947     7.7303     1.0689 H       
  36 H36            1.9293    -2.5438     0.3811 H       
  37 H37            0.1594    -2.5053     0.1959 H       
  38 H38            0.4218    -2.2307    -2.2545 H       
  39 H39            2.1917    -2.2692    -2.0693 H       
  40 H40           -1.0204    12.0825     1.9915 H       
  41 H41           -0.5038    12.2612     0.2976 H       
  42 H42           -2.2362    12.1594     0.6937 H       
  43 H43            2.0412    -4.5488    -1.1054 H       
  44 H44            0.2714    -4.5103    -1.2906 H       
  45 H45            1.3373    -5.7196    -3.1748 H       
  46 H46            0.5337    -4.2357    -3.7410 H       
  47 H47            2.3036    -4.2742    -3.5558 H       
  48 H48            1.7829    10.6385     1.2191 H       
  49 H49            1.8994    10.0178    -0.4450 H       
  50 H50            0.9751    11.5019    -0.1114 H       
@<TRIPOS>BOND
   1    1    2 2
   2    1    6 1
   3    1   29 1
   4    2    3 1
   5    2   30 1
   6    3    4 am
   7    3   22 1
   8    4    5 1
   9    4    7 2
  10    5    6 2
  11    5    8 1
  12    6    9 1
  13    9   10 ar
  14    9   14 ar
  15   10   11 ar
  16   10   31 1
  17   11   12 ar
  18   11   28 1
  19   12   13 ar
  20   12   15 1
  21   13   14 ar
  22   13   32 1
  23   14   33 1
  24   15   16 1
  25   16   17 ar
  26   16   21 ar
  27   17   18 ar
  28   17   34 1
  29   18   19 ar
  30   18   35 1
  31   19   20 ar
  32   20   21 ar
  33   20   24 1
  34   21   27 1
  35   22   23 1
  36   22   36 1
  37   22   37 1
  38   23   25 1
  39   23   38 1
  40   23   39 1
  41   24   40 1
  42   24   41 1
  43   24   42 1
  44   25   26 1
  45   25   43 1
  46   25   44 1
  47   26   45 1
  48   26   46 1
  49   26   47 1
  50   27   48 1
  51   27   49 1
  52   27   50 1

#	End of record

