#	Name: ASD00190072
#	Creating user name:	WinNT
#	Creation time:	15. 06. 2019 18:33

#	Modifying user name:	WinNT
#	Modification time:	15. 06. 2019 18:33

#	Program:	/corina/corina34_cracker 3.40 0067  02.08.2006

@<TRIPOS>MOLECULE
ASD00190072
  45   48    0    0    0
SMALL
NO_CHARGES


@<TRIPOS>ATOM
   1 C1             0.2362     1.1918    -0.4362 C.ar    
   2 C2             0.2179    -0.1875    -0.3052 C.ar    
   3 C3             1.3889    -0.8877    -0.0842 C.ar    
   4 C4             2.5892    -0.2043     0.0066 C.ar    
   5 C5             2.6099     1.1965    -0.1127 C.ar    
   6 C6             1.4233     1.8889    -0.3416 C.ar    
   7 C7             3.8990     1.8970     0.0229 C.2     
   8 N8             3.7961    -0.8667     0.2017 N.pl3   
   9 N9             4.9865     1.2110     0.4275 N.am    
  10 O10            3.9813     3.0840    -0.2286 O.2     
  11 C11            6.2405     1.8292     0.3917 C.ar    
  12 C12            4.8792    -0.1682     0.9035 C.3     
  13 C13            4.5895    -0.1644     2.4058 C.3     
  14 C14            4.3702    -1.6003     2.8865 C.3     
  15 C15            5.7585     0.4386     3.1413 C.ar    
  16 C16            5.5898     1.5979     3.8751 C.ar    
  17 C17            6.6621     2.1510     4.5497 C.ar    
  18 C18            7.9029     1.5446     4.4909 C.ar    
  19 C19            8.0714     0.3848     3.7578 C.ar    
  20 C20            6.9981    -0.1707     3.0868 C.ar    
  21 C21            7.2498     1.3097    -0.4085 C.ar    
  22 C22            8.4869     1.9228    -0.4420 C.ar    
  23 C23            8.7212     3.0527     0.3201 C.ar    
  24 C24            7.7185     3.5721     1.1183 C.ar    
  25 C25            6.4774     2.9671     1.1519 C.ar    
  26 H26           -0.6852     1.7250    -0.6182 H       
  27 H27           -0.7191    -0.7198    -0.3759 H       
  28 H28            1.3675    -1.9627     0.0175 H       
  29 H29            1.4322     2.9639    -0.4447 H       
  30 H30            3.9197    -1.7735    -0.1197 H       
  31 H31            5.8205    -0.6869     0.7215 H       
  32 H32            3.6938     0.4251     2.6016 H       
  33 H33            3.5247    -2.0364     2.3546 H       
  34 H34            5.2659    -2.1898     2.6907 H       
  35 H35            4.1638    -1.5976     3.9568 H       
  36 H36            4.6204     2.0717     3.9211 H       
  37 H37            6.5305     3.0571     5.1225 H       
  38 H38            8.7409     1.9772     5.0174 H       
  39 H39            9.0409    -0.0888     3.7116 H       
  40 H40            7.1297    -1.0768     2.5140 H       
  41 H41            7.0676     0.4271    -1.0037 H       
  42 H42            9.2723     1.5192    -1.0638 H       
  43 H43            9.6894     3.5302     0.2922 H       
  44 H44            7.9048     4.4545     1.7126 H       
  45 H45            5.6947     3.3733     1.7755 H       
@<TRIPOS>BOND
   1    1    2 ar
   2    1    6 ar
   3    1   26 1
   4    2    3 ar
   5    2   27 1
   6    3    4 ar
   7    3   28 1
   8    4    5 ar
   9    4    8 1
  10    5    6 ar
  11    5    7 1
  12    6   29 1
  13    7    9 am
  14    7   10 2
  15    8   12 1
  16    8   30 1
  17    9   11 1
  18    9   12 1
  19   11   21 ar
  20   11   25 ar
  21   12   13 1
  22   12   31 1
  23   13   14 1
  24   13   15 1
  25   13   32 1
  26   14   33 1
  27   14   34 1
  28   14   35 1
  29   15   16 ar
  30   15   20 ar
  31   16   17 ar
  32   16   36 1
  33   17   18 ar
  34   17   37 1
  35   18   19 ar
  36   18   38 1
  37   19   20 ar
  38   19   39 1
  39   20   40 1
  40   21   22 ar
  41   21   41 1
  42   22   23 ar
  43   22   42 1
  44   23   24 ar
  45   23   43 1
  46   24   25 ar
  47   24   44 1
  48   25   45 1

#	End of record

