#	Name: ASD01180233
#	Creating user name:	WinNT
#	Creation time:	15. 06. 2019 19:07

#	Modifying user name:	WinNT
#	Modification time:	15. 06. 2019 19:07

#	Program:	/corina/corina34_cracker 3.40 0067  02.08.2006

@<TRIPOS>MOLECULE
ASD01180233
  55   56    0    0    0
SMALL
NO_CHARGES


@<TRIPOS>ATOM
   1 C1            -0.0187     1.5258     0.0104 C.3     
   2 C2             0.0021    -0.0041     0.0020 C.3     
   3 C3             0.7421    -0.5109     1.2415 C.3     
   4 S4            -1.6997    -0.6320     0.0149 S.o     
   5 O5            -1.6913    -2.0286    -0.2471 O.2     
   6 N6            -2.3418     0.0035    -1.3730 N.am    
   7 C7            -3.7338    -0.2785    -1.7322 C.3     
   8 C8            -4.6295     0.8567    -1.2323 C.3     
   9 C9            -4.6049     0.8899     0.2972 C.3     
  10 C10           -5.3992     2.0996     0.7938 C.3     
  11 C11           -3.8533    -0.3901    -3.2303 C.ar    
  12 C12           -4.6665    -1.3612    -3.7862 C.ar    
  13 C13           -4.7797    -1.4679    -5.1576 C.ar    
  14 C14           -4.0728    -0.5951    -5.9825 C.ar    
  15 C15           -3.2550     0.3813    -5.4169 C.ar    
  16 C16           -3.1537     0.4826    -4.0442 C.ar    
  17 C17           -4.1901    -0.7052    -7.4572 C.ar    
  18 C18           -3.4796     0.1718    -8.2742 C.ar    
  19 C19           -3.5991     0.0568    -9.6483 C.ar    
  20 C20           -4.4262    -0.9328   -10.1608 C.ar    
  21 C21           -5.1020    -1.7689    -9.2916 C.ar    
  22 N22           -4.9662    -1.6413    -7.9872 N.ar    
  23 C23           -4.5866    -1.0940   -11.6505 C.3     
  24 F24           -3.6196    -1.9840   -12.1301 F       
  25 F25           -5.8621    -1.5958   -11.9307 F       
  26 F26           -4.4270     0.1483   -12.2739 F       
  27 C27           -5.2333    -0.3929     0.8453 C.3     
  28 C28            0.7182    -0.4975    -1.2568 C.3     
  29 H29            1.0039     1.9031     0.0027 H       
  30 H30           -0.5459     1.8868    -0.8726 H       
  31 H31           -0.5289     1.8773     0.9072 H       
  32 H32            0.2319    -0.1594     2.1383 H       
  33 H33            0.7568    -1.6008     1.2356 H       
  34 H34            1.7647    -0.1336     1.2338 H       
  35 H35           -1.7962     0.5625    -1.9482 H       
  36 H36           -4.0449    -1.2163    -1.2720 H       
  37 H37           -4.2639     1.8066    -1.6223 H       
  38 H38           -5.6508     0.6918    -1.5757 H       
  39 H39           -3.5738     0.9657     0.6424 H       
  40 H40           -6.4303     2.0238     0.4486 H       
  41 H41           -5.3817     2.1232     1.8834 H       
  42 H42           -4.9516     3.0134     0.4033 H       
  43 H43           -5.2136    -2.0373    -3.1460 H       
  44 H44           -5.4147    -2.2267    -5.5906 H       
  45 H45           -2.7050     1.0604    -6.0515 H       
  46 H46           -2.5239     1.2419    -3.6048 H       
  47 H47           -2.8449     0.9308    -7.8414 H       
  48 H48           -3.0610     0.7224   -10.3069 H       
  49 H49           -5.7465    -2.5400    -9.6872 H       
  50 H50           -6.2644    -0.4686     0.5001 H       
  51 H51           -4.6674    -1.2546     0.4915 H       
  52 H52           -5.2158    -0.3692     1.9349 H       
  53 H53            1.7408    -0.1202    -1.2645 H       
  54 H54            0.7330    -1.5874    -1.2628 H       
  55 H55            0.1910    -0.1364    -2.1398 H       
@<TRIPOS>BOND
   1    1    2 1
   2    1   29 1
   3    1   30 1
   4    1   31 1
   5    2    3 1
   6    2    4 1
   7    2   28 1
   8    3   32 1
   9    3   33 1
  10    3   34 1
  11    4    5 2
  12    4    6 am
  13    6    7 1
  14    6   35 1
  15    7    8 1
  16    7   11 1
  17    7   36 1
  18    8    9 1
  19    8   37 1
  20    8   38 1
  21    9   10 1
  22    9   27 1
  23    9   39 1
  24   10   40 1
  25   10   41 1
  26   10   42 1
  27   11   12 ar
  28   11   16 ar
  29   12   13 ar
  30   12   43 1
  31   13   14 ar
  32   13   44 1
  33   14   15 ar
  34   14   17 1
  35   15   16 ar
  36   15   45 1
  37   16   46 1
  38   17   18 ar
  39   17   22 ar
  40   18   19 ar
  41   18   47 1
  42   19   20 ar
  43   19   48 1
  44   20   21 ar
  45   20   23 1
  46   21   22 ar
  47   21   49 1
  48   23   24 1
  49   23   25 1
  50   23   26 1
  51   27   50 1
  52   27   51 1
  53   27   52 1
  54   28   53 1
  55   28   54 1
  56   28   55 1

#	End of record

