#	Name: ASD05303007
#	Creating user name:	WinNT
#	Creation time:	15. 06. 2019 20:58

#	Modifying user name:	WinNT
#	Modification time:	15. 06. 2019 20:58

#	Program:	/corina/corina34_cracker 3.40 0067  02.08.2006

@<TRIPOS>MOLECULE
ASD05303007
  35   38    0    0    0
SMALL
NO_CHARGES


@<TRIPOS>ATOM
   1 C1            -0.0694     1.0691     0.9927 C.ar    
   2 C2             0.0723     0.1248    -0.0067 C.ar    
   3 C3             1.2238    -0.6389    -0.0802 C.ar    
   4 C4             2.2326    -0.4543     0.8493 C.ar    
   5 C5             2.0944     0.4991     1.8562 C.ar    
   6 C6             0.9366     1.2582     1.9227 C.ar    
   7 O7             3.0842     0.6894     2.7652 O.3     
   8 N8             3.4050    -1.2279     0.7933 N.am    
   9 C9             4.0668    -0.2381     2.8938 C.ar    
  10 C10            4.2520    -1.2127     1.9152 C.ar    
  11 C11            5.2584    -2.1534     2.0489 C.ar    
  12 C12            6.0822    -2.1266     3.1603 C.ar    
  13 C13            5.8997    -1.1626     4.1340 C.ar    
  14 C14            4.8958    -0.2203     4.0045 C.ar    
  15 C15            3.7064    -1.9592    -0.2980 C.2     
  16 O16            2.8931    -2.0774    -1.1943 O.2     
  17 C17            5.0247    -2.6171    -0.4053 C.ar    
  18 C18            5.1057    -3.9993    -0.5869 C.ar    
  19 C19            6.3391    -4.6076    -0.6863 C.ar    
  20 C20            7.4964    -3.8507    -0.6058 C.ar    
  21 C21            7.4225    -2.4793    -0.4253 C.ar    
  22 C22            6.1948    -1.8586    -0.3311 C.ar    
  23 Cl23           9.0456    -4.6239    -0.7313 Cl      
  24 H24           -0.9684     1.6653     1.0449 H       
  25 H25           -0.7165    -0.0173    -0.7306 H       
  26 H26            1.3350    -1.3772    -0.8605 H       
  27 H27            0.8201     1.9979     2.7009 H       
  28 H28            5.4000    -2.9066     1.2879 H       
  29 H29            6.8680    -2.8596     3.2673 H       
  30 H30            6.5441    -1.1456     5.0005 H       
  31 H31            4.7585     0.5305     4.7686 H       
  32 H32            4.2041    -4.5906    -0.6491 H       
  33 H33            6.4031    -5.6765    -0.8268 H       
  34 H34            8.3283    -1.8945    -0.3626 H       
  35 H35            6.1385    -0.7893    -0.1903 H       
@<TRIPOS>BOND
   1    1    2 ar
   2    1    6 ar
   3    1   24 1
   4    2    3 ar
   5    2   25 1
   6    3    4 ar
   7    3   26 1
   8    4    5 ar
   9    4    8 1
  10    5    6 ar
  11    5    7 1
  12    6   27 1
  13    7    9 1
  14    8   10 1
  15    8   15 am
  16    9   10 ar
  17    9   14 ar
  18   10   11 ar
  19   11   12 ar
  20   11   28 1
  21   12   13 ar
  22   12   29 1
  23   13   14 ar
  24   13   30 1
  25   14   31 1
  26   15   16 2
  27   15   17 1
  28   17   18 ar
  29   17   22 ar
  30   18   19 ar
  31   18   32 1
  32   19   20 ar
  33   19   33 1
  34   20   21 ar
  35   20   23 1
  36   21   22 ar
  37   21   34 1
  38   22   35 1

#	End of record

