#	Name: ASD01814790
#	Creating user name:	WinNT
#	Creation time:	15. 06. 2019 19:33

#	Modifying user name:	WinNT
#	Modification time:	15. 06. 2019 19:33

#	Program:	/corina/corina34_cracker 3.40 0067  02.08.2006

@<TRIPOS>MOLECULE
ASD01814790
  58   62    0    0    0
SMALL
NO_CHARGES


@<TRIPOS>ATOM
   1 C1            -0.0171     1.4087     0.0098 C.ar    
   2 C2             0.0021    -0.0041     0.0020 C.ar    
   3 C3             1.2262    -0.6777    -0.0133 C.ar    
   4 C4             2.3763     0.0675    -0.0202 C.ar    
   5 C5             2.2915     1.4625    -0.0119 C.ar    
   6 N6             1.1197     2.0825     0.0026 N.ar    
   7 N7            -1.3383     1.7910     0.0300 N.pl3   
   8 C8            -1.3961    -0.4296     0.0131 C.2     
   9 C9            -2.1447     0.6868     0.0352 C.2     
  10 C10            3.5351     2.2640    -0.0195 C.2     
  11 O11            4.6161     1.7084    -0.0328 O.2     
  12 N12            3.4693     3.6101    -0.0116 N.am    
  13 O13            6.1238     6.7289     0.8073 O.3     
  14 C14            5.6892     6.6331    -0.5506 C.3     
  15 C15            4.4170     5.7842    -0.6191 C.3     
  16 C16            4.7007     4.4037    -0.0191 C.3     
  17 C17            5.2073     4.5772     1.4160 C.3     
  18 C18            6.4489     5.4726     1.4059 C.3     
  19 C19            1.2803    -2.1837    -0.0214 C.3     
  20 C20            2.2924    -2.8709    -2.2094 C.ar    
  21 C21            1.1609    -2.6830    -1.4382 C.ar    
  22 C22           -0.0864    -2.9590    -1.9809 C.ar    
  23 C23           -0.1529    -3.4161    -3.2853 C.ar    
  24 C24            1.0282    -3.5828    -4.0054 C.ar    
  25 N25            2.2012    -3.3079    -3.4495 N.ar    
  26 N26            1.5679    -4.7799    -7.3889 N.pl3   
  27 N27            0.1694    -4.7321    -7.3415 N.2     
  28 C28           -0.1921    -4.3101    -6.1592 C.2     
  29 C29            0.9739    -4.0719    -5.4046 C.2     
  30 C30            2.0445    -4.3731    -6.1965 C.2     
  31 C31            2.3739    -5.2053    -8.5359 C.3     
  32 C32           -1.8117     3.1773     0.0494 C.3     
  33 H33            3.3404    -0.4192    -0.0317 H       
  34 H34           -1.7587    -1.4469     0.0107 H       
  35 H35           -3.2243     0.7084     0.0505 H       
  36 H36            2.6066     4.0535    -0.0010 H       
  37 H37            5.4816     7.6309    -0.9371 H       
  38 H38            6.4705     6.1661    -1.1502 H       
  39 H39            3.6232     6.2713    -0.0528 H       
  40 H40            4.1087     5.6732    -1.6587 H       
  41 H41            5.4584     3.8956    -0.6157 H       
  42 H42            4.4294     5.0399     2.0234 H       
  43 H43            5.4642     3.6029     1.8319 H       
  44 H44            7.2402     4.9904     0.8319 H       
  45 H45            6.7887     5.6345     2.4289 H       
  46 H46            2.2283    -2.5155     0.4021 H       
  47 H47            0.4579    -2.5800     0.5741 H       
  48 H48            3.2641    -2.6528    -1.7916 H       
  49 H49           -0.9850    -2.8204    -1.3980 H       
  50 H50           -1.1070    -3.6409    -3.7388 H       
  51 H51           -1.2074    -4.1680    -5.8196 H       
  52 H52            3.0852    -4.2989    -5.9173 H       
  53 H53            2.5957    -4.3426    -9.1641 H       
  54 H54            3.3059    -5.6459    -8.1816 H       
  55 H55            1.8200    -5.9439    -9.1153 H       
  56 H56           -1.9115     3.5127     1.0818 H       
  57 H57           -1.0958     3.8130    -0.4715 H       
  58 H58           -2.7800     3.2376    -0.4474 H       
@<TRIPOS>BOND
   1    1    2 ar
   2    1    6 ar
   3    1    7 1
   4    2    3 ar
   5    2    8 1
   6    3    4 ar
   7    3   19 1
   8    4    5 ar
   9    4   33 1
  10    5    6 ar
  11    5   10 1
  12    7    9 1
  13    7   32 1
  14    8    9 2
  15    8   34 1
  16    9   35 1
  17   10   11 2
  18   10   12 am
  19   12   16 1
  20   12   36 1
  21   13   14 1
  22   13   18 1
  23   14   15 1
  24   14   37 1
  25   14   38 1
  26   15   16 1
  27   15   39 1
  28   15   40 1
  29   16   17 1
  30   16   41 1
  31   17   18 1
  32   17   42 1
  33   17   43 1
  34   18   44 1
  35   18   45 1
  36   19   21 1
  37   19   46 1
  38   19   47 1
  39   20   21 ar
  40   20   25 ar
  41   20   48 1
  42   21   22 ar
  43   22   23 ar
  44   22   49 1
  45   23   24 ar
  46   23   50 1
  47   24   25 ar
  48   24   29 1
  49   26   27 1
  50   26   30 1
  51   26   31 1
  52   27   28 2
  53   28   29 1
  54   28   51 1
  55   29   30 2
  56   30   52 1
  57   31   53 1
  58   31   54 1
  59   31   55 1
  60   32   56 1
  61   32   57 1
  62   32   58 1

#	End of record

