#	Name: ASD04910330
#	Creating user name:	WinNT
#	Creation time:	15. 06. 2019 20:55

#	Modifying user name:	WinNT
#	Modification time:	15. 06. 2019 20:55

#	Program:	/corina/corina34_cracker 3.40 0067  02.08.2006

@<TRIPOS>MOLECULE
ASD04910330
  68   71    0    0    0
SMALL
NO_CHARGES


@<TRIPOS>ATOM
   1 C1            -0.0184     1.5028     0.0103 C.2     
   2 C2             0.0021    -0.0041     0.0020 C.3     
   3 C3             1.4513    -0.4944    -0.0145 C.3     
   4 O4             1.0197     2.1211     0.0037 O.2     
   5 O5            -1.1898     2.1580     0.0194 O.3     
   6 C6             2.6473    -2.6171    -0.0373 C.2     
   7 C7             2.6674    -4.0954    -0.0454 C.ar    
   8 C8             3.8837    -4.7799    -0.0607 C.ar    
   9 C9             3.8954    -6.1594    -0.0677 C.ar    
  10 C10            2.7049    -6.8644    -0.0601 C.ar    
  11 C11            1.4958    -6.1920    -0.0450 C.ar    
  12 C12            1.4701    -4.8127    -0.0320 C.ar    
  13 O13            3.6916    -1.9951    -0.0439 O.2     
  14 N14            1.4712    -1.9592    -0.0225 N.am    
  15 C15            2.7254    -8.3712    -0.0689 C.3     
  16 C16            2.4957    -8.8926     1.3511 C.3     
  17 C17            2.6401   -10.4157     1.3646 C.3     
  18 C18            2.4104   -10.9372     2.7846 C.3     
  19 N19            1.6654    -8.8688    -0.9493 N.pl3   
  20 C20            2.8968   -10.9216    -1.2948 C.ar    
  21 C21            1.7812   -10.1318    -1.5382 C.ar    
  22 C22            0.7781   -10.6142    -2.3767 C.ar    
  23 C23            0.9352   -11.8696    -2.9370 C.ar    
  24 C24            2.0792   -12.6024    -2.6473 C.ar    
  25 N25            3.0120   -12.1134    -1.8465 N.ar    
  26 N26            2.2470   -13.8729    -3.2091 N.pl3   
  27 N27            1.3489   -14.5154    -4.0699 N.2     
  28 C28            1.8416   -15.6832    -4.3883 C.2     
  29 C29            3.0823   -15.8287    -3.7363 C.2     
  30 C30            3.3067   -14.6898    -3.0194 C.2     
  31 C31            3.9842   -17.0050    -3.8192 C.ar    
  32 C32            3.6301   -18.1038    -4.5989 C.ar    
  33 C33            4.4722   -19.1949    -4.6724 C.ar    
  34 C34            5.6659   -19.1986    -3.9737 C.ar    
  35 C35            6.0224   -18.1102    -3.1980 C.ar    
  36 C36            5.1903   -17.0116    -3.1221 C.ar    
  37 C37           -1.1335     3.6089     0.0270 C.3     
  38 H38           -0.4983    -0.3791     0.8948 H       
  39 H39           -0.5153    -0.3696    -0.8850 H       
  40 H40            1.9516    -0.1193    -0.9073 H       
  41 H41            1.9686    -0.1289     0.8726 H       
  42 H42            4.8137    -4.2307    -0.0674 H       
  43 H43            4.8359    -6.6902    -0.0796 H       
  44 H44            0.5700    -6.7482    -0.0391 H       
  45 H45            0.5257    -4.2891    -0.0157 H       
  46 H46            0.6378    -2.4556    -0.0172 H       
  47 H47            3.6924    -8.7193    -0.4318 H       
  48 H48            3.2317    -8.4519     2.0234 H       
  49 H49            1.4932    -8.6197     1.6806 H       
  50 H50            1.9040   -10.8565     0.6922 H       
  51 H51            3.6426   -10.6886     1.0351 H       
  52 H52            2.5132   -12.0223     2.7942 H       
  53 H53            3.1464   -10.4964     3.4570 H       
  54 H54            1.4079   -10.6643     3.1141 H       
  55 H55            0.8833    -8.3222    -1.1236 H       
  56 H56            3.6811   -10.5537    -0.6498 H       
  57 H57           -0.1012   -10.0223    -2.5840 H       
  58 H58            0.1775   -12.2749    -3.5912 H       
  59 H59            1.3779   -16.4109    -5.0379 H       
  60 H60            4.1727   -14.4803    -2.4090 H       
  61 H61            2.6981   -18.1020    -5.1446 H       
  62 H62            4.1985   -20.0474    -5.2763 H       
  63 H63            6.3219   -20.0545    -4.0336 H       
  64 H64            6.9556   -18.1183    -2.6544 H       
  65 H65            5.4718   -16.1604    -2.5200 H       
  66 H66           -0.6017     3.9472     0.9164 H       
  67 H67           -0.6102     3.9569    -0.8636 H       
  68 H68           -2.1463     4.0118     0.0340 H       
@<TRIPOS>BOND
   1    1    2 1
   2    1    4 2
   3    1    5 1
   4    2    3 1
   5    2   38 1
   6    2   39 1
   7    3   14 1
   8    3   40 1
   9    3   41 1
  10    5   37 1
  11    6    7 1
  12    6   13 2
  13    6   14 am
  14    7    8 ar
  15    7   12 ar
  16    8    9 ar
  17    8   42 1
  18    9   10 ar
  19    9   43 1
  20   10   11 ar
  21   10   15 1
  22   11   12 ar
  23   11   44 1
  24   12   45 1
  25   14   46 1
  26   15   16 1
  27   15   19 1
  28   15   47 1
  29   16   17 1
  30   16   48 1
  31   16   49 1
  32   17   18 1
  33   17   50 1
  34   17   51 1
  35   18   52 1
  36   18   53 1
  37   18   54 1
  38   19   21 1
  39   19   55 1
  40   20   21 ar
  41   20   25 ar
  42   20   56 1
  43   21   22 ar
  44   22   23 ar
  45   22   57 1
  46   23   24 ar
  47   23   58 1
  48   24   25 ar
  49   24   26 1
  50   26   27 1
  51   26   30 1
  52   27   28 2
  53   28   29 1
  54   28   59 1
  55   29   30 2
  56   29   31 1
  57   30   60 1
  58   31   32 ar
  59   31   36 ar
  60   32   33 ar
  61   32   61 1
  62   33   34 ar
  63   33   62 1
  64   34   35 ar
  65   34   63 1
  66   35   36 ar
  67   35   64 1
  68   36   65 1
  69   37   66 1
  70   37   67 1
  71   37   68 1

#	End of record

