#	Name: ASD01410446
#	Creating user name:	WinNT
#	Creation time:	15. 06. 2019 19:17

#	Modifying user name:	WinNT
#	Modification time:	15. 06. 2019 19:17

#	Program:	/corina/corina34_cracker 3.40 0067  02.08.2006

@<TRIPOS>MOLECULE
ASD01410446
  82   86    0    0    0
SMALL
NO_CHARGES


@<TRIPOS>ATOM
   1 C1             1.9776     4.6829    -2.5335 C.ar    
   2 C2             2.9708     4.6291    -3.5015 C.ar    
   3 C3             4.0147     3.7377    -3.3496 C.ar    
   4 N4             4.0764     2.9412    -2.2998 N.ar    
   5 C5             3.1492     2.9631    -1.3564 C.ar    
   6 C6             2.0712     3.8346    -1.4437 C.ar    
   7 C7             2.9105     5.5333    -4.7055 C.3     
   8 O8             3.5932     6.7554    -4.4182 O.3     
   9 C9             1.0176     3.8563    -0.3665 C.3     
  10 F10            0.0462     4.8119    -0.6835 F       
  11 F11            0.4188     2.5953    -0.2743 F       
  12 F12            1.6097     4.1820     0.8585 F       
  13 C13            4.0009    -0.1259    -0.4722 C.ar    
  14 C14            4.2702     1.2249    -0.2871 C.ar    
  15 O15            3.2519     2.1259    -0.2937 O.3     
  16 C16            5.0270    -1.0490    -0.4668 C.ar    
  17 C17            6.3373    -0.6332    -0.2761 C.ar    
  18 C18            6.6159     0.7292    -0.0886 C.ar    
  19 C19            5.5704     1.6556    -0.0957 C.ar    
  20 C20            8.0042     1.1804     0.1152 C.2     
  21 O21            8.2578     2.4729     0.3998 O.3     
  22 O22            8.9202     0.3868     0.0266 O.2     
  23 N23            7.3732    -1.5662    -0.2703 N.am    
  24 C24            8.0397    -1.8401    -1.4092 C.2     
  25 C25            7.7374    -2.2487     0.9738 C.3     
  26 C26            8.0120    -1.2106     2.0636 C.3     
  27 C27            6.5869    -3.1569     1.4128 C.3     
  28 O28            7.8117    -1.2005    -2.4141 O.2     
  29 C29            9.0683    -2.9413    -1.4341 C.3     
  30 C30            9.3648    -3.3295    -2.8840 C.3     
  31 C31           10.4091    -4.4475    -2.9093 C.3     
  32 C32           11.6949    -3.9595    -2.2388 C.3     
  33 C33           11.3984    -3.5713    -0.7889 C.3     
  34 C34           10.3541    -2.4533    -0.7637 C.3     
  35 C35           12.7391    -5.0775    -2.2641 C.3     
  36 C36            3.6319     7.6853    -5.4040 C.ar    
  37 C37            4.2844     8.9242    -5.2118 C.ar    
  38 C38            4.2979     9.8630    -6.2714 C.ar    
  39 N39            3.6987     9.5703    -7.4306 N.ar    
  40 C40            3.0896     8.4234    -7.6199 C.ar    
  41 C41            3.0390     7.4487    -6.6313 C.ar    
  42 C42            4.9137     9.2373    -3.9982 C.ar    
  43 C43            5.5318    10.4423    -3.8515 C.ar    
  44 C44            5.5466    11.3684    -4.8919 C.ar    
  45 C45            4.9464    11.0960    -6.0827 C.ar    
  46 C46            2.4325     8.1535    -8.9490 C.3     
  47 H47            1.1529     5.3740    -2.6262 H       
  48 H48            4.7901     3.6919    -4.1000 H       
  49 H49            3.3873     5.0415    -5.5535 H       
  50 H50            1.8695     5.7469    -4.9477 H       
  51 H51            2.9826    -0.4556    -0.6166 H       
  52 H52            4.8097    -2.0970    -0.6110 H       
  53 H53            5.7770     2.7059     0.0475 H       
  54 H54            9.1839     2.7214     0.5251 H       
  55 H55            8.6322    -2.8492     0.8103 H       
  56 H56            7.1221    -0.5999     2.2161 H       
  57 H57            8.2676    -1.7187     2.9934 H       
  58 H58            8.8418    -0.5735     1.7577 H       
  59 H59            6.3244    -3.8307     0.5972 H       
  60 H60            6.8951    -3.7398     2.2807 H       
  61 H61            5.7218    -2.5472     1.6732 H       
  62 H62            8.6850    -3.8087    -0.8968 H       
  63 H63            8.4488    -3.6772    -3.3616 H       
  64 H64            9.7481    -2.4621    -3.4213 H       
  65 H65           10.0257    -5.3149    -2.3719 H       
  66 H66           10.6203    -4.7241    -3.9422 H       
  67 H67           12.0782    -3.0921    -2.7761 H       
  68 H68           11.0151    -4.4387    -0.2516 H       
  69 H69           12.3144    -3.2236    -0.3113 H       
  70 H70           10.7374    -1.5859    -1.3010 H       
  71 H71           10.1429    -2.1767     0.2693 H       
  72 H72           12.9504    -5.3541    -3.2970 H       
  73 H73           13.6552    -4.7298    -1.7864 H       
  74 H74           12.3558    -5.9449    -1.7268 H       
  75 H75            2.5301     6.5143    -6.8166 H       
  76 H76            4.9080     8.5273    -3.1844 H       
  77 H77            6.0162    10.6827    -2.9167 H       
  78 H78            6.0429    12.3173    -4.7517 H       
  79 H79            4.9672    11.8249    -6.8794 H       
  80 H80            3.1501     7.6810    -9.6198 H       
  81 H81            1.5792     7.4908    -8.8046 H       
  82 H82            2.0929     9.0935    -9.3840 H       
@<TRIPOS>BOND
   1    1    2 ar
   2    1    6 ar
   3    1   47 1
   4    2    3 ar
   5    2    7 1
   6    3    4 ar
   7    3   48 1
   8    4    5 ar
   9    5    6 ar
  10    5   15 1
  11    6    9 1
  12    7    8 1
  13    7   49 1
  14    7   50 1
  15    8   36 1
  16    9   10 1
  17    9   11 1
  18    9   12 1
  19   13   14 ar
  20   13   16 ar
  21   13   51 1
  22   14   15 1
  23   14   19 ar
  24   16   17 ar
  25   16   52 1
  26   17   18 ar
  27   17   23 1
  28   18   19 ar
  29   18   20 1
  30   19   53 1
  31   20   21 1
  32   20   22 2
  33   21   54 1
  34   23   24 am
  35   23   25 1
  36   24   28 2
  37   24   29 1
  38   25   26 1
  39   25   27 1
  40   25   55 1
  41   26   56 1
  42   26   57 1
  43   26   58 1
  44   27   59 1
  45   27   60 1
  46   27   61 1
  47   29   30 1
  48   29   34 1
  49   29   62 1
  50   30   31 1
  51   30   63 1
  52   30   64 1
  53   31   32 1
  54   31   65 1
  55   31   66 1
  56   32   33 1
  57   32   35 1
  58   32   67 1
  59   33   34 1
  60   33   68 1
  61   33   69 1
  62   34   70 1
  63   34   71 1
  64   35   72 1
  65   35   73 1
  66   35   74 1
  67   36   37 ar
  68   36   41 ar
  69   37   38 ar
  70   37   42 ar
  71   38   39 ar
  72   38   45 ar
  73   39   40 ar
  74   40   41 ar
  75   40   46 1
  76   41   75 1
  77   42   43 ar
  78   42   76 1
  79   43   44 ar
  80   43   77 1
  81   44   45 ar
  82   44   78 1
  83   45   79 1
  84   46   80 1
  85   46   81 1
  86   46   82 1

#	End of record

