#	Name: ASD02198649
#	Creating user name:	WinNT
#	Creation time:	15. 06. 2019 20:19

#	Modifying user name:	WinNT
#	Modification time:	15. 06. 2019 20:19

#	Program:	/corina/corina34_cracker 3.40 0067  02.08.2006

@<TRIPOS>MOLECULE
ASD02198649
  42   45    0    0    0
SMALL
NO_CHARGES


@<TRIPOS>ATOM
   1 C1             0.0066     1.5061     0.1348 C.2     
   2 C2             0.0731     0.1661    -0.0931 C.2     
   3 N3            -1.0539    -0.5635    -0.2629 N.pl3   
   4 N4            -2.2315    -0.0592    -0.2230 N.2     
   5 C5            -2.4384     1.2238    -0.0105 C.2     
   6 C6            -1.2794     2.1039     0.1931 C.2     
   7 C7            -0.9272    -1.9373    -0.4942 C.ar    
   8 C8            -1.5130    -2.5119    -1.6176 C.ar    
   9 C9            -1.3860    -3.8705    -1.8436 C.ar    
  10 C10           -0.6775    -4.6577    -0.9541 C.ar    
  11 C11           -0.0927    -4.0880     0.1661 C.ar    
  12 C12           -0.2114    -2.7294     0.3943 C.ar    
  13 C13           -3.8113     1.7675     0.0284 C.2     
  14 N14           -4.3734     2.4808     1.0495 N.pl3   
  15 N15           -5.6849     2.7996     0.6759 N.2     
  16 C16           -5.9151     2.3064    -0.5148 C.2     
  17 C17           -4.7641     1.6561    -0.9602 C.2     
  18 C18           -3.7499     2.8298     2.2543 C.ar    
  19 C19           -3.9192     4.1031     2.7820 C.ar    
  20 C20           -3.3035     4.4440     3.9703 C.ar    
  21 C21           -2.5187     3.5191     4.6343 C.ar    
  22 C22           -2.3478     2.2505     4.1112 C.ar    
  23 C23           -2.9659     1.9014     2.9264 C.ar    
  24 O24           -1.4167     3.3020     0.3940 O.2     
  25 O25            1.1344     2.2467     0.3065 O.3     
  26 C26            2.3823     1.5540     0.2364 C.3     
  27 F27           -2.2056    -1.7437    -2.4867 F       
  28 Br28          -0.5067    -6.5149    -1.2664 Br      
  29 F29            0.5987    -4.8600     1.0328 F       
  30 H30            1.0361    -0.3205    -0.1392 H       
  31 H31           -1.8409    -4.3172    -2.7154 H       
  32 H32            0.2445    -2.2861     1.2672 H       
  33 H33           -6.8414     2.3925    -1.0634 H       
  34 H34           -4.6440     1.1502    -1.9068 H       
  35 H35           -4.5314     4.8262     2.2635 H       
  36 H36           -3.4347     5.4341     4.3812 H       
  37 H37           -2.0380     3.7882     5.5632 H       
  38 H38           -1.7337     1.5305     4.6317 H       
  39 H39           -2.8320     0.9105     2.5183 H       
  40 H40            3.1987     2.2597     0.3899 H       
  41 H41            2.4156     0.7862     1.0094 H       
  42 H42            2.4845     1.0877    -0.7435 H       
@<TRIPOS>BOND
   1    1    2 2
   2    1   25 1
   3    1    6 1
   4    2    3 1
   5    2   30 1
   6    3    4 1
   7    3    7 1
   8    4    5 2
   9    5    6 1
  10    5   13 1
  11    6   24 2
  12    7    8 ar
  13    7   12 ar
  14    8    9 ar
  15    8   27 1
  16    9   10 ar
  17    9   31 1
  18   10   11 ar
  19   10   28 1
  20   11   12 ar
  21   11   29 1
  22   12   32 1
  23   13   14 1
  24   13   17 2
  25   14   15 1
  26   14   18 1
  27   15   16 2
  28   16   17 1
  29   16   33 1
  30   17   34 1
  31   18   19 ar
  32   18   23 ar
  33   19   20 ar
  34   19   35 1
  35   20   21 ar
  36   20   36 1
  37   21   22 ar
  38   21   37 1
  39   22   23 ar
  40   22   38 1
  41   23   39 1
  42   25   26 1
  43   26   40 1
  44   26   41 1
  45   26   42 1

#	End of record

