#	Name: ASD01028557
#	Creating user name:	WinNT
#	Creation time:	15. 06. 2019 18:57

#	Modifying user name:	WinNT
#	Modification time:	15. 06. 2019 18:57

#	Program:	/corina/corina34_cracker 3.40 0067  02.08.2006

@<TRIPOS>MOLECULE
ASD01028557
  53   57    0    0    0
SMALL
NO_CHARGES


@<TRIPOS>ATOM
   1 N1             0.2365     0.7332     0.1229 N.2     
   2 N2             0.0173    -0.6428     0.0312 N.pl3   
   3 C3             1.4602     1.2124     0.1583 C.2     
   4 C4             2.5754     0.3497     0.1045 C.2     
   5 C5             2.3938    -0.9943     0.0150 C.2     
   6 C6             1.0839    -1.5086    -0.0229 C.2     
   7 N7             0.5818    -2.7298    -0.1056 N.2     
   8 N8            -0.7038    -2.6617    -0.1052 N.2     
   9 C9            -1.0911    -1.4132    -0.0232 C.2     
  10 C10           -2.5163    -0.9242     0.0051 C.3     
  11 N11           -2.9825    -0.8582     1.3924 N.pl3   
  12 C12           -4.2733    -0.4326     1.6709 C.ar    
  13 C13           -5.1383    -0.0652     0.6535 C.ar    
  14 C14           -6.4248     0.3570     0.9608 C.ar    
  15 N15           -6.8528     0.4204     2.2003 N.ar    
  16 C16           -6.0710     0.0808     3.2307 C.ar    
  17 C17           -4.7480    -0.3663     3.0044 C.ar    
  18 C18           -6.5445     0.1537     4.5539 C.ar    
  19 C19           -5.6867    -0.2117     5.5733 C.ar    
  20 C20           -4.3885    -0.6384     5.2673 C.ar    
  21 N21           -3.9653    -0.7061     4.0295 N.ar    
  22 N22           -6.1124    -0.1554     6.9037 N.am    
  23 C23            1.6710     2.6778     0.2554 C.ar    
  24 C24            0.5771     3.5391     0.3086 C.ar    
  25 C25            2.0649     5.4153     0.4373 C.ar    
  26 C26            3.1552     4.5625     0.3904 C.ar    
  27 C27            2.9635     3.1963     0.2994 C.ar    
  28 C28            0.7783     4.9039     0.3995 C.ar    
  29 F29           -0.2817     5.7399     0.4512 F       
  30 F30            4.4080     5.0668     0.4270 F       
  31 C31           -7.3901    -0.4497     7.2155 C.2     
  32 C32           -7.8232    -0.4918     8.6583 C.3     
  33 O33           -9.2114    -0.8232     8.7294 O.3     
  34 C34           -9.7256    -0.8897    10.0611 C.3     
  35 O35           -8.1914    -0.6808     6.3348 O.2     
  36 H36            3.5749     0.7579     0.1342 H       
  37 H37            3.2438    -1.6594    -0.0268 H       
  38 H38           -2.5690     0.0678    -0.4435 H       
  39 H39           -3.1475    -1.6116    -0.5580 H       
  40 H40           -2.3888    -1.1121     2.1162 H       
  41 H41           -4.8130    -0.1068    -0.3756 H       
  42 H42           -7.0907     0.6411     0.1593 H       
  43 H43           -7.5498     0.4861     4.7665 H       
  44 H44           -3.7231    -0.9222     6.0693 H       
  45 H45           -5.4881     0.0956     7.6024 H       
  46 H46           -0.4264     3.1412     0.2785 H       
  47 H47            2.2184     6.4820     0.5087 H       
  48 H48            3.8142     2.5321     0.2629 H       
  49 H49           -7.2421    -1.2452     9.1902 H       
  50 H50           -7.6586     0.4838     9.1156 H       
  51 H51          -10.7845    -1.1462    10.0293 H       
  52 H52           -9.1839    -1.6512    10.6221 H       
  53 H53           -9.6005     0.0777    10.5475 H       
@<TRIPOS>BOND
   1    1    2 1
   2    1    3 2
   3    2    6 1
   4    2    9 1
   5    3    4 1
   6    3   23 1
   7    4    5 2
   8    4   36 1
   9    5    6 1
  10    5   37 1
  11    6    7 2
  12    7    8 1
  13    8    9 2
  14    9   10 1
  15   10   11 1
  16   10   38 1
  17   10   39 1
  18   11   12 1
  19   11   40 1
  20   12   13 ar
  21   12   17 ar
  22   13   14 ar
  23   13   41 1
  24   14   15 ar
  25   14   42 1
  26   15   16 ar
  27   16   17 ar
  28   16   18 ar
  29   17   21 ar
  30   18   19 ar
  31   18   43 1
  32   19   20 ar
  33   19   22 1
  34   20   21 ar
  35   20   44 1
  36   22   31 am
  37   22   45 1
  38   23   24 ar
  39   23   27 ar
  40   24   28 ar
  41   24   46 1
  42   25   26 ar
  43   25   28 ar
  44   25   47 1
  45   26   27 ar
  46   26   30 1
  47   27   48 1
  48   28   29 1
  49   31   32 1
  50   31   35 2
  51   32   33 1
  52   32   49 1
  53   32   50 1
  54   33   34 1
  55   34   51 1
  56   34   52 1
  57   34   53 1

#	End of record

