#	Name: ASD03920006
#	Creating user name:	WinNT
#	Creation time:	15. 06. 2019 20:47

#	Modifying user name:	WinNT
#	Modification time:	15. 06. 2019 20:47

#	Program:	/corina/corina34_cracker 3.40 0067  02.08.2006

@<TRIPOS>MOLECULE
ASD03920006
  56   59    0    0    0
SMALL
NO_CHARGES


@<TRIPOS>ATOM
   1 C1            -0.0179     1.4711     0.0101 C.2     
   2 C2             0.0021    -0.0041     0.0020 C.ar    
   3 C3             1.2231    -0.6924    -0.0133 C.ar    
   4 C4             1.2300    -2.0790    -0.0204 C.ar    
   5 C5             0.0386    -2.7773    -0.0123 C.ar    
   6 C6            -1.1699    -2.1008     0.0029 C.ar    
   7 C7            -1.1954    -0.7228     0.0154 C.ar    
   8 O8             1.0267     2.0934     0.0035 O.2     
   9 N9            -1.1942     2.1291     0.0193 N.am    
  10 C10           -1.2140     3.5939     0.0273 C.3     
  11 C11           -2.5310     4.0894    -0.5734 C.3     
  12 C12           -3.7017     3.5589     0.2567 C.3     
  13 C13           -3.5761     4.0628     1.6959 C.3     
  14 C14           -2.2591     3.5673     2.2966 C.3     
  15 C15           -1.0884     4.0978     1.4665 C.3     
  16 N16           -4.6970     3.5548     2.4907 N.pl3   
  17 N17           -5.9021     4.2201     2.7570 N.2     
  18 N18           -6.6359     3.4540     3.4869 N.2     
  19 C19           -5.9843     2.3032     3.7263 C.2     
  20 C20           -4.7706     2.3554     3.1018 C.2     
  21 C21           -6.4954     1.1729     4.5248 C.2     
  22 O22           -5.8137     0.1772     4.6749 O.2     
  23 N23           -7.7178     1.2439     5.0879 N.am    
  24 C24           -8.3473     0.1957     5.9044 C.3     
  25 C25           -9.7461     0.7075     6.3079 C.3     
  26 C26          -10.0496     1.7783     5.2269 C.3     
  27 C27           -8.6426     2.3880     4.9925 C.3     
  28 O28            2.3926    -0.0052    -0.0217 O.3     
  29 C29            3.5969    -0.7743    -0.0373 C.3     
  30 H30            2.1683    -2.6136    -0.0326 H       
  31 H31            0.0492    -3.8572    -0.0181 H       
  32 H32           -2.0965    -2.6557     0.0092 H       
  33 H33           -2.1400    -0.1995     0.0314 H       
  34 H34           -2.0275     1.6327     0.0205 H       
  35 H35           -0.3800     3.9719    -0.5640 H       
  36 H36           -2.5458     5.1793    -0.5674 H       
  37 H37           -2.6205     3.7305    -1.5987 H       
  38 H38           -4.6400     3.9119    -0.1712 H       
  39 H39           -3.6869     2.4690     0.2507 H       
  40 H40           -3.5909     5.1526     1.7019 H       
  41 H41           -2.1696     3.9262     3.3219 H       
  42 H42           -2.2443     2.4774     2.2906 H       
  43 H43           -0.1501     3.7448     1.8945 H       
  44 H44           -1.1032     5.1877     1.4725 H       
  45 H45           -4.0142     1.5845     3.0996 H       
  46 H46           -8.4416    -0.7210     5.3223 H       
  47 H47           -7.7486     0.0110     6.7963 H       
  48 H48          -10.4782    -0.0991     6.2680 H       
  49 H49           -9.7206     1.1578     7.3002 H       
  50 H50          -10.4356     1.3172     4.3177 H       
  51 H51          -10.7414     2.5307     5.6056 H       
  52 H52           -8.4136     3.1261     5.7612 H       
  53 H53           -8.5857     2.8403     4.0024 H       
  54 H54            3.6177    -1.3987    -0.9305 H       
  55 H55            4.4562    -0.1037    -0.0427 H       
  56 H56            3.6354    -1.4070     0.8494 H       
@<TRIPOS>BOND
   1    1    2 1
   2    1    8 2
   3    1    9 am
   4    2    3 ar
   5    2    7 ar
   6    3    4 ar
   7    3   28 1
   8    4    5 ar
   9    4   30 1
  10    5    6 ar
  11    5   31 1
  12    6    7 ar
  13    6   32 1
  14    7   33 1
  15    9   10 1
  16    9   34 1
  17   10   11 1
  18   10   15 1
  19   10   35 1
  20   11   12 1
  21   11   36 1
  22   11   37 1
  23   12   13 1
  24   12   38 1
  25   12   39 1
  26   13   14 1
  27   13   16 1
  28   13   40 1
  29   14   15 1
  30   14   41 1
  31   14   42 1
  32   15   43 1
  33   15   44 1
  34   16   17 1
  35   16   20 1
  36   17   18 2
  37   18   19 1
  38   19   20 2
  39   19   21 1
  40   20   45 1
  41   21   22 2
  42   21   23 am
  43   23   24 1
  44   23   27 1
  45   24   25 1
  46   24   46 1
  47   24   47 1
  48   25   26 1
  49   25   48 1
  50   25   49 1
  51   26   27 1
  52   26   50 1
  53   26   51 1
  54   27   52 1
  55   27   53 1
  56   28   29 1
  57   29   54 1
  58   29   55 1
  59   29   56 1

#	End of record

