#	Name: ASD00170085
#	Creating user name:	WinNT
#	Creation time:	15. 06. 2019 18:31

#	Modifying user name:	WinNT
#	Modification time:	15. 06. 2019 18:31

#	Program:	/corina/corina34_cracker 3.40 0067  02.08.2006

@<TRIPOS>MOLECULE
ASD00170085
  43   46    0    0    0
SMALL
NO_CHARGES


@<TRIPOS>ATOM
   1 C1             0.0021     1.3496    -0.0676 C.2     
   2 C2             0.0217     0.0146     0.2011 C.2     
   3 C3            -1.3120    -0.5537     0.2771 C.2     
   4 C4            -2.3021     0.3755     0.0622 C.2     
   5 S5            -1.6488     1.9223    -0.2221 S.3     
   6 N6            -3.6505     0.0927     0.0801 N.pl3   
   7 C7             1.2020     2.1973    -0.2036 C.ar    
   8 C8             2.2679     1.7816    -1.0056 C.ar    
   9 C9             3.3862     2.5794    -1.1284 C.ar    
  10 C10            3.4540     3.7891    -0.4597 C.ar    
  11 C11            2.4023     4.2071     0.3367 C.ar    
  12 C12            1.2753     3.4223     0.4643 C.ar    
  13 C13           -1.5745    -1.9650     0.5523 C.2     
  14 C14           -1.6345    -2.4475     1.9495 C.ar    
  15 O15           -1.7436    -2.7437    -0.3685 O.2     
  16 C16            1.2626    -0.7686     0.3934 C.ar    
  17 C17            2.0745    -0.5336     1.5037 C.ar    
  18 C18            3.2300    -1.2670     1.6772 C.ar    
  19 C19            3.5848    -2.2335     0.7529 C.ar    
  20 C20            2.7842    -2.4713    -0.3502 C.ar    
  21 C21            1.6228    -1.7490    -0.5319 C.ar    
  22 C22           -1.7736    -3.8107     2.2149 C.ar    
  23 C23           -1.8290    -4.2540     3.5201 C.ar    
  24 C24           -1.7476    -3.3505     4.5649 C.ar    
  25 C25           -1.6102    -1.9977     4.3086 C.ar    
  26 C26           -1.5467    -1.5420     3.0080 C.ar    
  27 H27           -3.9567    -0.7946     0.3248 H       
  28 H28           -4.2935     0.7808    -0.1521 H       
  29 H29            2.2164     0.8376    -1.5277 H       
  30 H30            4.2110     2.2592    -1.7476 H       
  31 H31            4.3322     4.4098    -0.5596 H       
  32 H32            2.4623     5.1522     0.8559 H       
  33 H33            0.4551     3.7499     1.0858 H       
  34 H34            1.7990     0.2211     2.2255 H       
  35 H35            3.8593    -1.0861     2.5361 H       
  36 H36            4.4908    -2.8045     0.8928 H       
  37 H37            3.0666    -3.2272    -1.0681 H       
  38 H38            0.9985    -1.9358    -1.3931 H       
  39 H39           -1.8379    -4.5168     1.4003 H       
  40 H40           -1.9365    -5.3085     3.7269 H       
  41 H41           -1.7918    -3.7027     5.5849 H       
  42 H42           -1.5475    -1.2976     5.1286 H       
  43 H43           -1.4395    -0.4859     2.8093 H       
@<TRIPOS>BOND
   1    1    2 2
   2    1    7 1
   3    1    5 1
   4    2    3 1
   5    2   16 1
   6    3    4 2
   7    3   13 1
   8    4    5 1
   9    4    6 1
  10    6   27 1
  11    6   28 1
  12    7    8 ar
  13    7   12 ar
  14    8    9 ar
  15    8   29 1
  16    9   10 ar
  17    9   30 1
  18   10   11 ar
  19   10   31 1
  20   11   12 ar
  21   11   32 1
  22   12   33 1
  23   13   14 1
  24   13   15 2
  25   14   22 ar
  26   14   26 ar
  27   16   17 ar
  28   16   21 ar
  29   17   18 ar
  30   17   34 1
  31   18   19 ar
  32   18   35 1
  33   19   20 ar
  34   19   36 1
  35   20   21 ar
  36   20   37 1
  37   21   38 1
  38   22   23 ar
  39   22   39 1
  40   23   24 ar
  41   23   40 1
  42   24   25 ar
  43   24   41 1
  44   25   26 ar
  45   25   42 1
  46   26   43 1

#	End of record

