#	Name: ASD01901528
#	Creating user name:	WinNT
#	Creation time:	15. 06. 2019 19:53

#	Modifying user name:	WinNT
#	Modification time:	15. 06. 2019 19:53

#	Program:	/corina/corina34_cracker 3.40 0067  02.08.2006

@<TRIPOS>MOLECULE
ASD01901528
  49   52    0    0    0
SMALL
NO_CHARGES


@<TRIPOS>ATOM
   1 C1            -1.1352     1.4257     1.4591 C.ar    
   2 C2            -1.0791     0.0409     1.4066 C.ar    
   3 C3            -1.0953    -0.6998     2.5828 C.ar    
   4 C4            -1.1672    -0.0600     3.8053 C.ar    
   5 C5            -1.2233     1.3185     3.8656 C.ar    
   6 C6            -1.2076     2.0691     2.6917 C.ar    
   7 C7            -1.2679     3.5507     2.7551 C.2     
   8 N8            -1.3381     4.2684     3.8546 N.2     
   9 N9            -1.3753     5.6146     3.4563 N.pl3   
  10 C10           -1.3239     5.6173     2.1121 C.2     
  11 N11           -1.2539     4.3785     1.7018 N.2     
  12 C12           -1.4547     6.7859     4.3326 C.3     
  13 N13           -1.0068    -0.6096     0.1716 N.pl3   
  14 C14           -0.9591    -1.9940     0.1192 C.ar    
  15 C15            0.2512    -2.6677    -0.0433 C.ar    
  16 C16           -2.1312    -2.7675     0.2343 C.ar    
  17 N17           -2.0512    -4.0918     0.1799 N.ar    
  18 N18           -0.9336    -4.7027     0.0247 N.ar    
  19 C19            0.2230    -4.0562    -0.0872 C.ar    
  20 N20            1.4048    -4.7703    -0.2543 N.am    
  21 C21            1.3676    -6.1090    -0.4059 C.2     
  22 O22            0.3012    -6.6805    -0.4886 O.2     
  23 C23            2.6512    -6.8957    -0.4726 C.3     
  24 C24            2.5423    -8.4120    -0.6454 C.3     
  25 C25            3.0154    -7.5413    -1.8111 C.3     
  26 C26           -3.4397    -2.1099     0.4145 C.2     
  27 O27           -3.5075    -0.8974     0.4752 O.2     
  28 N28           -4.5597    -2.8532     0.5118 N.am    
  29 C29           -5.8589    -2.2003     0.6908 C.3     
  30 H30           -5.8488    -1.6174     1.6118 H       
  31 H31           -6.0534    -1.5404    -0.1547 H       
  32 H32           -6.6411    -2.9572     0.7484 H       
  33 H33           -1.1182     2.0034     0.5468 H       
  34 H34           -1.0520    -1.7781     2.5409 H       
  35 H35           -1.1799    -0.6398     4.7164 H       
  36 H36           -1.2795     1.8150     4.8231 H       
  37 H37           -1.3338     6.4932     1.4804 H       
  38 H38           -0.4483     7.1168     4.5890 H       
  39 H39           -1.9813     7.5897     3.8180 H       
  40 H40           -1.9936     6.5229     5.2429 H       
  41 H41           -0.9899    -0.0924    -0.6487 H       
  42 H42            1.1817    -2.1267    -0.1327 H       
  43 H43            2.2558    -4.3048    -0.2618 H       
  44 H44            3.4674    -6.5166     0.1424 H       
  45 H45            3.2871    -9.0305    -0.1445 H       
  46 H46            1.5422    -8.8406    -0.7109 H       
  47 H47            2.3266    -7.3969    -2.6434 H       
  48 H48            4.0715    -7.5868    -2.0770 H       
  49 H49           -4.5056    -3.8205     0.4634 H       
@<TRIPOS>BOND
   1    1    2 ar
   2    1    6 ar
   3    1   33 1
   4    2    3 ar
   5    2   13 1
   6    3    4 ar
   7    3   34 1
   8    4    5 ar
   9    4   35 1
  10    5    6 ar
  11    5   36 1
  12    6    7 1
  13    7    8 2
  14    7   11 1
  15    8    9 1
  16    9   10 1
  17    9   12 1
  18   10   11 2
  19   10   37 1
  20   12   38 1
  21   12   39 1
  22   12   40 1
  23   13   14 1
  24   13   41 1
  25   14   15 ar
  26   14   16 ar
  27   15   19 ar
  28   15   42 1
  29   16   17 ar
  30   16   26 1
  31   17   18 ar
  32   18   19 ar
  33   19   20 1
  34   20   21 am
  35   20   43 1
  36   21   22 2
  37   21   23 1
  38   23   24 1
  39   23   25 1
  40   23   44 1
  41   24   25 1
  42   24   45 1
  43   24   46 1
  44   25   47 1
  45   25   48 1
  46   26   27 2
  47   26   28 am
  48   28   29 1
  49   28   49 1
  50   29   30 1
  51   29   31 1
  52   29   32 1

#	End of record

