#	Name: ASD05430278
#	Creating user name:	WinNT
#	Creation time:	15. 06. 2019 21:00

#	Modifying user name:	WinNT
#	Modification time:	15. 06. 2019 21:00

#	Program:	/corina/corina34_cracker 3.40 0067  02.08.2006

@<TRIPOS>MOLECULE
ASD05430278
  65   70    0    0    0
SMALL
NO_CHARGES


@<TRIPOS>ATOM
   1 C1            -0.0512     1.5175     0.0279 C.ar    
   2 C2             0.0190     0.3325     0.7597 C.ar    
   3 C3            -1.1319    -0.2177     1.3091 C.ar    
   4 C4            -2.3485     0.4050     1.1341 C.ar    
   5 C5            -2.4266     1.5940     0.4018 C.ar    
   6 C6            -1.2672     2.1506    -0.1469 C.ar    
   7 C7            -4.8329     0.0100     0.0626 C.3     
   8 C8            -4.8523     1.5287     0.1346 C.2     
   9 C9            -3.7256     2.2606     0.2133 C.2     
  10 C10           -5.8635    -0.4341    -0.9826 C.3     
  11 C11           -7.2935    -0.0072    -0.6307 C.3     
  12 N12           -7.3066     1.4229    -0.3352 N.pl3   
  13 C13           -6.1974     2.1454     0.1115 C.2     
  14 N14           -6.5475     3.3303     0.4849 N.2     
  15 C15           -9.6782     1.8066     0.1129 C.ar    
  16 C16          -10.0918     0.5452    -0.2773 C.ar    
  17 C17          -10.4257     2.5370     1.0197 C.ar    
  18 C18          -11.5897     2.0112     1.5410 C.ar    
  19 C19          -12.0129     0.7388     1.1515 C.ar    
  20 C20          -11.2537     0.0073     0.2361 C.ar    
  21 N21            1.2539    -0.3051     0.9407 N.pl3   
  22 C22            2.1562    -0.6076    -0.0284 C.2     
  23 C23            1.7818    -0.7359     2.1303 C.2     
  24 C24            2.9776    -1.2879     1.8491 C.2     
  25 N25            3.1807    -1.1961     0.5265 N.2     
  26 C26            3.9258    -1.8988     2.8485 C.3     
  27 O27            1.0772     2.0529    -0.5090 O.3     
  28 C28           -8.4045     2.3851    -0.4475 C.3     
  29 O29           -7.9531     3.4958     0.3553 O.3     
  30 C30           -8.6020     2.8115    -1.9036 C.3     
  31 C31            0.9314     3.2682    -1.2464 C.3     
  32 C32           -5.4630    -0.0661    -2.4123 C.3     
  33 S33           -6.3016    -1.5533    -3.0262 S.o2    
  34 C34           -5.7531    -1.9188    -1.3359 C.3     
  35 O35           -7.7097    -1.3895    -3.1238 O.2     
  36 O36           -5.5449    -2.2440    -4.0109 O.2     
  37 C37          -13.2199     0.1865     1.6889 C.1     
  38 N38          -14.1774    -0.2516     2.1153 N.1     
  39 H39           -1.0732    -1.1359     1.8746 H       
  40 H40           -3.2419    -0.0252     1.5622 H       
  41 H41           -1.3231     3.0688    -0.7128 H       
  42 H42           -3.8404    -0.3314    -0.2316 H       
  43 H43           -5.0925    -0.4075     1.0354 H       
  44 H44           -3.7744     3.3368     0.1382 H       
  45 H45           -7.9526    -0.2109    -1.4745 H       
  46 H46           -7.6352    -0.5629     0.2425 H       
  47 H47           -9.5038    -0.0194    -0.9858 H       
  48 H48          -10.0970     3.5208     1.3203 H       
  49 H49          -12.1720     2.5822     2.2489 H       
  50 H50          -11.5755    -0.9773    -0.0697 H       
  51 H51            2.0446    -0.3968    -1.0818 H       
  52 H52            1.3265    -0.6489     3.1057 H       
  53 H53            3.7023    -2.9598     2.9598 H       
  54 H54            4.9507    -1.7784     2.4976 H       
  55 H55            3.8103    -1.4002     3.8108 H       
  56 H56           -8.8367     1.9366    -2.5098 H       
  57 H57           -9.4225     3.5265    -1.9647 H       
  58 H58           -7.6877     3.2753    -2.2736 H       
  59 H59            1.9052     3.5861    -1.6191 H       
  60 H60            0.2565     3.1046    -2.0865 H       
  61 H61            0.5214     4.0408    -0.5960 H       
  62 H62           -5.9215     0.8592    -2.7611 H       
  63 H63           -4.3851    -0.0846    -2.5736 H       
  64 H64           -4.7314    -2.2957    -1.2889 H       
  65 H65           -6.4546    -2.5441    -0.7835 H       
@<TRIPOS>BOND
   1    1    2 ar
   2    1   27 1
   3    1    6 ar
   4    2    3 ar
   5    2   21 1
   6    3    4 ar
   7    3   39 1
   8    4    5 ar
   9    4   40 1
  10    5    6 ar
  11    5    9 1
  12    6   41 1
  13    7    8 1
  14    7   10 1
  15    7   42 1
  16    7   43 1
  17    8    9 2
  18    8   13 1
  19    9   44 1
  20   10   11 1
  21   10   32 1
  22   10   34 1
  23   11   12 1
  24   11   45 1
  25   11   46 1
  26   12   13 1
  27   12   28 1
  28   13   14 2
  29   14   29 1
  30   15   16 ar
  31   15   17 ar
  32   15   28 1
  33   16   20 ar
  34   16   47 1
  35   17   18 ar
  36   17   48 1
  37   18   19 ar
  38   18   49 1
  39   19   20 ar
  40   19   37 1
  41   20   50 1
  42   21   22 1
  43   21   23 1
  44   22   25 2
  45   22   51 1
  46   23   24 2
  47   23   52 1
  48   24   25 1
  49   24   26 1
  50   26   53 1
  51   26   54 1
  52   26   55 1
  53   27   31 1
  54   28   29 1
  55   28   30 1
  56   30   56 1
  57   30   57 1
  58   30   58 1
  59   31   59 1
  60   31   60 1
  61   31   61 1
  62   32   33 1
  63   32   62 1
  64   32   63 1
  65   33   34 1
  66   33   35 2
  67   33   36 2
  68   34   64 1
  69   34   65 1
  70   37   38 3

#	End of record

