#	Name: ASD01901216
#	Creating user name:	WinNT
#	Creation time:	15. 06. 2019 19:53

#	Modifying user name:	WinNT
#	Modification time:	15. 06. 2019 19:53

#	Program:	/corina/corina34_cracker 3.40 0067  02.08.2006

@<TRIPOS>MOLECULE
ASD01901216
  29   31    0    0    0
SMALL
NO_CHARGES


@<TRIPOS>ATOM
   1 C1            -0.0167     1.3822     0.0096 C.ar    
   2 C2             0.0021    -0.0041     0.0020 C.ar    
   3 C3             1.2033    -0.6799    -0.0127 C.ar    
   4 C4             2.4045     0.0357    -0.0203 C.ar    
   5 C5             2.3787     1.4337    -0.0131 C.ar    
   6 C6             1.1708     2.0976     0.0021 C.ar    
   7 C7             3.6560    -0.6603    -0.0351 C.1     
   8 C8             4.6819    -1.2308    -0.0473 C.1     
   9 C9             5.9333    -1.9268    -0.0620 C.ar    
  10 C10            7.2084    -1.2056    -0.0704 C.ar    
  11 C11            8.4083    -1.9572    -0.0849 C.ar    
  12 N12            8.3573    -3.2931    -0.0913 N.ar    
  13 C13            7.2252    -3.9536    -0.0844 C.ar    
  14 C14            5.9906    -3.3213    -0.0633 C.ar    
  15 C15            7.2611     0.1913    -0.0647 C.ar    
  16 C16            8.4721     0.8193    -0.0733 C.ar    
  17 C17            9.6551     0.0856    -0.0876 C.ar    
  18 C18            9.6377    -1.2761    -0.0930 C.ar    
  19 F19           -1.1974     2.0388     0.0188 F       
  20 H20           -0.9265    -0.5556     0.0080 H       
  21 H21            1.2166    -1.7598    -0.0179 H       
  22 H22            3.3031     1.9920    -0.0186 H       
  23 H23            1.1495     3.1773     0.0082 H       
  24 H24            7.2548    -5.0332    -0.0902 H       
  25 H25            5.0810    -3.9034    -0.0526 H       
  26 H26            6.3490     0.7696    -0.0540 H       
  27 H27            8.5136     1.8985    -0.0693 H       
  28 H28           10.6021     0.6048    -0.0945 H       
  29 H29           10.5646    -1.8303    -0.1045 H       
@<TRIPOS>BOND
   1    1    2 ar
   2    1    6 ar
   3    1   19 1
   4    2    3 ar
   5    2   20 1
   6    3    4 ar
   7    3   21 1
   8    4    5 ar
   9    4    7 1
  10    5    6 ar
  11    5   22 1
  12    6   23 1
  13    7    8 3
  14    8    9 1
  15    9   10 ar
  16    9   14 ar
  17   10   11 ar
  18   10   15 ar
  19   11   12 ar
  20   11   18 ar
  21   12   13 ar
  22   13   14 ar
  23   13   24 1
  24   14   25 1
  25   15   16 ar
  26   15   26 1
  27   16   17 ar
  28   16   27 1
  29   17   18 ar
  30   17   28 1
  31   18   29 1

#	End of record

