#	Name: ASD00100001
#	Creating user name:	WinNT
#	Creation time:	15. 06. 2019 18:30

#	Modifying user name:	WinNT
#	Modification time:	15. 06. 2019 18:30

#	Program:	/corina/corina34_cracker 3.40 0067  02.08.2006

@<TRIPOS>MOLECULE
ASD00100001
  55   54    0    0    0
SMALL
NO_CHARGES


@<TRIPOS>ATOM
   1 N1            -2.5830    -0.0534    -0.3015 N.am    
   2 C2            -2.2191    -1.3441    -0.1669 C.2     
   3 C3            -0.7813    -1.7469    -0.3712 C.3     
   4 C4            -0.6396    -3.2557    -0.1612 C.3     
   5 C5             0.8201    -3.6646    -0.3686 C.3     
   6 C6             0.9619    -5.1735    -0.1586 C.3     
   7 C7             2.4215    -5.5824    -0.3660 C.3     
   8 C8             2.5633    -7.0912    -0.1560 C.3     
   9 C9             4.0230    -7.5001    -0.3634 C.3     
  10 C10            4.1626    -8.9863    -0.1565 C.2     
  11 C11            4.7289    -9.7255    -1.0779 C.2     
  12 C12            5.3893    -9.0744    -2.2657 C.3     
  13 C13            6.8196    -9.5993    -2.4053 C.3     
  14 C14            7.4900    -8.9383    -3.6113 C.3     
  15 C15            8.9204    -9.4632    -3.7509 C.3     
  16 C16            9.5908    -8.8021    -4.9569 C.3     
  17 C17           11.0212    -9.3271    -5.0965 C.3     
  18 C18           11.6916    -8.6660    -6.3025 C.3     
  19 C19           13.1219    -9.1909    -6.4421 C.3     
  20 O20           -3.0487    -2.1815     0.1186 O.2     
  21 H21           -1.9195     0.6163    -0.5298 H       
  22 H22           -3.5092     0.2052    -0.1739 H       
  23 H23           -0.4727    -1.4905    -1.3847 H       
  24 H24           -0.1510    -1.2195     0.3448 H       
  25 H25           -0.9482    -3.5121     0.8523 H       
  26 H26           -1.2699    -3.7831    -0.8773 H       
  27 H27            1.1287    -3.4083    -1.3821 H       
  28 H28            1.4504    -3.1373     0.3474 H       
  29 H29            0.6532    -5.4298     0.8549 H       
  30 H30            0.3316    -5.7008    -0.8746 H       
  31 H31            2.7302    -5.3260    -1.3795 H       
  32 H32            3.0518    -5.0550     0.3501 H       
  33 H33            2.2547    -7.3476     0.8575 H       
  34 H34            1.9330    -7.6186    -0.8720 H       
  35 H35            4.3316    -7.2438    -1.3769 H       
  36 H36            4.6533    -6.9728     0.3527 H       
  37 H37            3.7958    -9.4419     0.7514 H       
  38 H38            4.7225   -10.8016    -0.9862 H       
  39 H39            4.8261    -9.3098    -3.1688 H       
  40 H40            5.4111    -7.9941    -2.1224 H       
  41 H41            7.3828    -9.3640    -1.5023 H       
  42 H42            6.7978   -10.6797    -2.5487 H       
  43 H43            6.9269    -9.1737    -4.5144 H       
  44 H44            7.5119    -7.8580    -3.4680 H       
  45 H45            9.4836    -9.2278    -2.8478 H       
  46 H46            8.8986   -10.5435    -3.8943 H       
  47 H47            9.0277    -9.0375    -5.8600 H       
  48 H48            9.6126    -7.7218    -4.8135 H       
  49 H49           11.5843    -9.0917    -4.1934 H       
  50 H50           10.9994   -10.4074    -5.2398 H       
  51 H51           11.1284    -8.9014    -7.2055 H       
  52 H52           11.7134    -7.5857    -6.1591 H       
  53 H53           13.6851    -8.9555    -5.5390 H       
  54 H54           13.1001   -10.2712    -6.5854 H       
  55 H55           13.5996    -8.7200    -7.3012 H       
@<TRIPOS>BOND
   1    1    2 am
   2    1   21 1
   3    1   22 1
   4    2    3 1
   5    2   20 2
   6    3    4 1
   7    3   23 1
   8    3   24 1
   9    4    5 1
  10    4   25 1
  11    4   26 1
  12    5    6 1
  13    5   27 1
  14    5   28 1
  15    6    7 1
  16    6   29 1
  17    6   30 1
  18    7    8 1
  19    7   31 1
  20    7   32 1
  21    8    9 1
  22    8   33 1
  23    8   34 1
  24    9   10 1
  25    9   35 1
  26    9   36 1
  27   10   11 2
  28   10   37 1
  29   11   12 1
  30   11   38 1
  31   12   13 1
  32   12   39 1
  33   12   40 1
  34   13   14 1
  35   13   41 1
  36   13   42 1
  37   14   15 1
  38   14   43 1
  39   14   44 1
  40   15   16 1
  41   15   45 1
  42   15   46 1
  43   16   17 1
  44   16   47 1
  45   16   48 1
  46   17   18 1
  47   17   49 1
  48   17   50 1
  49   18   19 1
  50   18   51 1
  51   18   52 1
  52   19   53 1
  53   19   54 1
  54   19   55 1

#	End of record

