#	Name: ASD03731893
#	Creating user name:	WinNT
#	Creation time:	15. 06. 2019 20:46

#	Modifying user name:	WinNT
#	Modification time:	15. 06. 2019 20:46

#	Program:	/corina/corina34_cracker 3.40 0067  02.08.2006

@<TRIPOS>MOLECULE
ASD03731893
  42   43    0    0    0
SMALL
NO_CHARGES


@<TRIPOS>ATOM
   1 C1            -0.4038     1.1029    -1.9588 C.2     
   2 C2            -0.2825    -0.2739    -1.4494 C.ar    
   3 C3             0.9019    -0.9949    -1.6481 C.ar    
   4 C4             1.0100    -2.2843    -1.1682 C.ar    
   5 C5            -0.0530    -2.8659    -0.4896 C.ar    
   6 C6            -1.2315    -2.1524    -0.2902 C.ar    
   7 C7            -1.3474    -0.8635    -0.7605 C.ar    
   8 O8             0.5245     1.6151    -2.5527 O.2     
   9 O9            -1.5463     1.7926    -1.7712 O.3     
  10 F10            1.9359    -0.4294    -2.3087 F       
  11 O11            0.0574    -4.1342    -0.0197 O.3     
  12 C12            1.2601    -4.7568    -0.1396 C.ar    
  13 C13            2.2111    -4.6277     0.8624 C.ar    
  14 C14            3.4331    -5.2611     0.7405 C.ar    
  15 C15            3.7088    -6.0263    -0.3847 C.ar    
  16 C16            2.7580    -6.1548    -1.3855 C.ar    
  17 C17            1.5341    -5.5258    -1.2610 C.ar    
  18 O18            4.9116    -6.6494    -0.5053 O.3     
  19 C19            5.1270    -7.4202    -1.6892 C.3     
  20 F20            5.0187    -6.5917    -2.8112 F       
  21 F21            6.4052    -7.9875    -1.6501 F       
  22 F22            4.1681    -8.4360    -1.7653 F       
  23 Cl23           4.6237    -5.0995     1.9936 Cl      
  24 Cl24          -2.5555    -2.8869     0.5592 Cl      
  25 C25           -1.5950     3.1440    -2.3000 C.3     
  26 C26           -1.3812     3.1069    -3.8146 C.3     
  27 C27           -2.9600     3.7631    -1.9927 C.3     
  28 C28           -0.4951     3.9859    -1.6502 C.3     
  29 H29            1.9223    -2.8418    -1.3209 H       
  30 H30           -2.2609    -0.3098    -0.6010 H       
  31 H31            1.9963    -4.0321     1.7373 H       
  32 H32            2.9726    -6.7498    -2.2609 H       
  33 H33            0.7922    -5.6295    -2.0389 H       
  34 H34           -2.1648     2.5071    -4.2776 H       
  35 H35           -1.4177     4.1214    -4.2116 H       
  36 H36           -0.4088     2.6658    -4.0336 H       
  37 H37           -3.1123     3.7895    -0.9137 H       
  38 H38           -2.9965     4.7776    -2.3897 H       
  39 H39           -3.7435     3.1633    -2.4556 H       
  40 H40            0.4773     3.5448    -1.8691 H       
  41 H41           -0.5316     5.0004    -2.0472 H       
  42 H42           -0.6474     4.0123    -0.5712 H       
@<TRIPOS>BOND
   1    1    2 1
   2    1    8 2
   3    1    9 1
   4    2    3 ar
   5    2    7 ar
   6    3    4 ar
   7    3   10 1
   8    4    5 ar
   9    4   29 1
  10    5    6 ar
  11    5   11 1
  12    6    7 ar
  13    6   24 1
  14    7   30 1
  15    9   25 1
  16   11   12 1
  17   12   13 ar
  18   12   17 ar
  19   13   14 ar
  20   13   31 1
  21   14   15 ar
  22   14   23 1
  23   15   16 ar
  24   15   18 1
  25   16   17 ar
  26   16   32 1
  27   17   33 1
  28   18   19 1
  29   19   20 1
  30   19   21 1
  31   19   22 1
  32   25   26 1
  33   25   28 1
  34   25   27 1
  35   26   34 1
  36   26   35 1
  37   26   36 1
  38   27   37 1
  39   27   38 1
  40   27   39 1
  41   28   40 1
  42   28   41 1
  43   28   42 1

#	End of record

