#	Name: ASD05720083
#	Creating user name:	WinNT
#	Creation time:	15. 06. 2019 21:01

#	Modifying user name:	WinNT
#	Modification time:	15. 06. 2019 21:01

#	Program:	/corina/corina34_cracker 3.40 0067  02.08.2006

@<TRIPOS>MOLECULE
ASD05720083
  22   21    0    0    0
SMALL
NO_CHARGES


@<TRIPOS>ATOM
   1 C1            -0.0187     1.5258     0.0104 C.3     
   2 C2             0.0021    -0.0041     0.0020 C.3     
   3 S3            -2.5534    -0.5310     1.1578 S.3     
   4 C4            -1.4075    -0.5249    -0.1112 C.2     
   5 N5            -1.9243    -1.0309    -1.1797 N.2     
   6 C6            -3.1749    -1.4399    -1.1067 C.2     
   7 C7            -3.7448    -1.2694     0.0901 C.2     
   8 C8            -3.9030    -2.0493    -2.2769 C.3     
   9 N9             0.6059    -0.4925     1.2489 N.3     
  10 O10            1.3220     2.0204     0.0003 O.3     
  11 H11           -0.5459     1.8868    -0.8726 H       
  12 H12           -0.5289     1.8773     0.9072 H       
  13 H13            0.5883    -0.3548    -0.8473 H       
  14 H14           -4.7568    -1.5369     0.3558 H       
  15 H15           -3.7567    -3.1295    -2.2733 H       
  16 H16           -4.9671    -1.8266    -2.1988 H       
  17 H17           -3.5118    -1.6328    -3.2051 H       
  18 H18            1.5722    -0.2103     1.3175 H       
  19 H19            0.0803    -0.1804     2.0517 H       
  20 H20            1.3852     2.9853     0.0049 H       
  21 Cl21           6.5722     7.9853     7.0517 Cl      
  22 H22            6.5722     9.3553     7.0517 H       
@<TRIPOS>BOND
   1    1    2 1
   2    1   10 1
   3    1   11 1
   4    1   12 1
   5    2    4 1
   6    2    9 1
   7    2   13 1
   8    3    4 1
   9    3    7 1
  10    4    5 2
  11    5    6 1
  12    6    7 2
  13    6    8 1
  14    7   14 1
  15    8   15 1
  16    8   16 1
  17    8   17 1
  18    9   18 1
  19    9   19 1
  20   10   20 1
  21   21   22 1

#	End of record

