#	Name: ASD03332210
#	Creating user name:	WinNT
#	Creation time:	15. 06. 2019 20:40

#	Modifying user name:	WinNT
#	Modification time:	15. 06. 2019 20:40

#	Program:	/corina/corina34_cracker 3.40 0067  02.08.2006

@<TRIPOS>MOLECULE
ASD03332210
  54   56    0    0    0
SMALL
NO_CHARGES


@<TRIPOS>ATOM
   1 C1             0.2790     1.4940     0.1343 C.3     
   2 N2             0.2009     0.0274     0.0802 N.3     
   3 C3             0.5981    -0.4791    -1.2460 C.3     
   4 C4             1.9136     0.1580    -1.6122 C.2     
   5 N5             2.4252     1.2533    -0.9794 N.pl3   
   6 C6             1.7477     1.9375     0.1254 C.3     
   7 C7             2.7991    -0.1978    -2.5756 C.2     
   8 N8             3.8348     0.6709    -2.5230 N.2     
   9 C9             3.6160     1.5441    -1.5653 C.2     
  10 C10            4.5150     2.6571    -1.1891 C.ar    
  11 C11            5.5437     3.0471    -2.0472 C.ar    
  12 C12            6.3790     4.0855    -1.6911 C.ar    
  13 C13            6.1983     4.7402    -0.4844 C.ar    
  14 C14            5.1791     4.3575     0.3712 C.ar    
  15 C15            4.3339     3.3245     0.0227 C.ar    
  16 C16            2.6588    -1.3278    -3.5110 C.2     
  17 O17            1.6757    -2.0421    -3.4587 O.2     
  18 N18            3.6198    -1.5699    -4.4244 N.am    
  19 C19            3.4803    -2.6933    -5.3543 C.3     
  20 C20            2.6481    -2.2559    -6.5614 C.3     
  21 C21            4.8448    -3.1340    -5.8180 C.2     
  22 N22            5.0470    -4.4106    -6.1997 N.am    
  23 O23            5.7609    -2.3398    -5.8478 O.2     
  24 C24            6.3949    -4.8659    -6.5490 C.3     
  25 C25            3.2811    -1.0153    -7.1947 C.3     
  26 C26            2.6063    -3.3883    -7.5894 C.3     
  27 C27            1.2246    -1.9266    -6.1071 C.3     
  28 Cl28           7.2541     6.0455    -0.0423 Cl      
  29 H29           -0.2321     1.9161    -0.7310 H       
  30 H30           -0.2011     1.8490     1.0461 H       
  31 H31            0.7588    -0.3915     0.8092 H       
  32 H32            0.7112    -1.5625    -1.2080 H       
  33 H33           -0.1585    -0.2126    -1.9840 H       
  34 H34            1.8052     3.0163    -0.0195 H       
  35 H35            2.2193     1.6670     1.0701 H       
  36 H36            5.6860     2.5367    -2.9883 H       
  37 H37            7.1756     4.3882    -2.3546 H       
  38 H38            5.0430     4.8715     1.3113 H       
  39 H39            3.5390     3.0271     0.6906 H       
  40 H40            4.4038    -1.0002    -4.4661 H       
  41 H41            2.9824    -3.5220    -4.8509 H       
  42 H42            4.3001    -5.0280    -6.2430 H       
  43 H43            6.7714    -4.2781    -7.3862 H       
  44 H44            7.0549    -4.7400    -5.6907 H       
  45 H45            6.3614    -5.9185    -6.8302 H       
  46 H46            4.2952    -1.2498    -7.5183 H       
  47 H47            2.6882    -0.7037    -8.0546 H       
  48 H48            3.3109    -0.2085    -6.4623 H       
  49 H49            2.2513    -4.3009    -7.1104 H       
  50 H50            1.9309    -3.1176    -8.4009 H       
  51 H51            3.6068    -3.5533    -7.9891 H       
  52 H52            1.2544    -1.1199    -5.3748 H       
  53 H53            0.6318    -1.6150    -6.9671 H       
  54 H54            0.7737    -2.8105    -5.6559 H       
@<TRIPOS>BOND
   1    1    2 1
   2    1    6 1
   3    1   29 1
   4    1   30 1
   5    2    3 1
   6    2   31 1
   7    3    4 1
   8    3   32 1
   9    3   33 1
  10    4    5 1
  11    4    7 2
  12    5    6 1
  13    5    9 1
  14    6   34 1
  15    6   35 1
  16    7    8 1
  17    7   16 1
  18    8    9 2
  19    9   10 1
  20   10   11 ar
  21   10   15 ar
  22   11   12 ar
  23   11   36 1
  24   12   13 ar
  25   12   37 1
  26   13   14 ar
  27   13   28 1
  28   14   15 ar
  29   14   38 1
  30   15   39 1
  31   16   17 2
  32   16   18 am
  33   18   19 1
  34   18   40 1
  35   19   20 1
  36   19   21 1
  37   19   41 1
  38   20   25 1
  39   20   26 1
  40   20   27 1
  41   21   22 am
  42   21   23 2
  43   22   24 1
  44   22   42 1
  45   24   43 1
  46   24   44 1
  47   24   45 1
  48   25   46 1
  49   25   47 1
  50   25   48 1
  51   26   49 1
  52   26   50 1
  53   26   51 1
  54   27   52 1
  55   27   53 1
  56   27   54 1

#	End of record

