#	Name: ASD01890283
#	Creating user name:	WinNT
#	Creation time:	15. 06. 2019 19:50

#	Modifying user name:	WinNT
#	Modification time:	15. 06. 2019 19:50

#	Program:	/corina/corina34_cracker 3.40 0067  02.08.2006

@<TRIPOS>MOLECULE
ASD01890283
  41   43    0    0    0
SMALL
NO_CHARGES


@<TRIPOS>ATOM
   1 C1            -0.0278     1.4536    -0.0220 C.2     
   2 C2            -0.0036    -0.0079    -0.0414 C.2     
   3 C3             1.1747    -0.6626    -0.1146 C.2     
   4 C4             2.4500     0.1053    -0.3495 C.3     
   5 C5             3.0815     0.4689     0.9958 C.3     
   6 O6             1.0140     2.0783     0.0398 O.2     
   7 O7            -1.2054     2.1096    -0.0783 O.3     
   8 C8             0.5966    -2.9319    -0.9117 C.ar    
   9 C9             1.2139    -2.1252     0.0349 C.ar    
  10 C10            1.8779    -2.6983     1.1371 C.ar    
  11 C11            1.9278    -4.0447     1.2952 C.ar    
  12 C12            1.3120    -4.8887     0.3523 C.ar    
  13 C13            1.3524    -6.2853     0.4960 C.ar    
  14 C14            0.7481    -7.0774    -0.4321 C.ar    
  15 C15            0.0871    -6.5244    -1.5273 C.ar    
  16 C16            0.0270    -5.1759    -1.7009 C.ar    
  17 C17            0.6394    -4.3252    -0.7624 C.ar    
  18 C18            4.3567     1.2368     0.7609 C.ar    
  19 C19            4.3254     2.6155     0.6649 C.ar    
  20 C20            5.4946     3.3203     0.4494 C.ar    
  21 C21            6.6966     2.6457     0.3298 C.ar    
  22 C22            6.7274     1.2659     0.4260 C.ar    
  23 C23            5.5582     0.5626     0.6471 C.ar    
  24 Cl24           8.1656     3.5302     0.0587 Cl      
  25 H25           -0.9284    -0.5640     0.0029 H       
  26 H26            3.1441    -0.5096    -0.9224 H       
  27 H27            2.2283     1.0166    -0.9050 H       
  28 H28            2.3874     1.0839     1.5686 H       
  29 H29            3.3032    -0.4423     1.5512 H       
  30 H30           -1.1204     3.0727    -0.0600 H       
  31 H31            0.0844    -2.4898    -1.7535 H       
  32 H32            2.3534    -2.0578     1.8652 H       
  33 H33            2.4409    -4.4694     2.1453 H       
  34 H34            1.8610    -6.7291     1.3390 H       
  35 H35            0.7818    -8.1508    -0.3180 H       
  36 H36           -0.3840    -7.1754    -2.2489 H       
  37 H37           -0.4886    -4.7610    -2.5543 H       
  38 H38            3.3870     3.1420     0.7579 H       
  39 H39            5.4700     4.3974     0.3741 H       
  40 H40            7.6654     0.7387     0.3328 H       
  41 H41            5.5827    -0.5142     0.7266 H       
@<TRIPOS>BOND
   1    1    2 1
   2    1    6 2
   3    1    7 1
   4    2    3 2
   5    2   25 1
   6    3    4 1
   7    3    9 1
   8    4    5 1
   9    4   26 1
  10    4   27 1
  11    5   18 1
  12    5   28 1
  13    5   29 1
  14    7   30 1
  15    8    9 ar
  16    8   17 ar
  17    8   31 1
  18    9   10 ar
  19   10   11 ar
  20   10   32 1
  21   11   12 ar
  22   11   33 1
  23   12   13 ar
  24   12   17 ar
  25   13   14 ar
  26   13   34 1
  27   14   15 ar
  28   14   35 1
  29   15   16 ar
  30   15   36 1
  31   16   17 ar
  32   16   37 1
  33   18   19 ar
  34   18   23 ar
  35   19   20 ar
  36   19   38 1
  37   20   21 ar
  38   20   39 1
  39   21   22 ar
  40   21   24 1
  41   22   23 ar
  42   22   40 1
  43   23   41 1

#	End of record

