#	Name: ASD07301041
#	Creating user name:	WinNT
#	Creation time:	15. 06. 2019 21:10

#	Modifying user name:	WinNT
#	Modification time:	15. 06. 2019 21:10

#	Program:	/corina/corina34_cracker 3.40 0067  02.08.2006

@<TRIPOS>MOLECULE
ASD07301041
  40   42    0    0    0
SMALL
NO_CHARGES


@<TRIPOS>ATOM
   1 C1            -0.0179     1.4667     0.0101 C.2     
   2 C2             0.0021    -0.0041     0.0020 C.2     
   3 C3             1.2776    -0.6366    -0.0136 C.2     
   4 C4             2.3787     0.1589    -0.0198 C.2     
   5 N5             2.2594     1.5103    -0.0114 N.pl3   
   6 N6             1.1310     2.1179     0.0026 N.2     
   7 O7            -1.0312    -0.6548     0.0088 O.2     
   8 O8             1.3897    -1.9914    -0.0215 O.3     
   9 C9             2.7121    -2.5328    -0.0370 C.3     
  10 C10            3.4276     2.2798    -0.0179 C.ar    
  11 C11            3.6379     3.2333     0.9709 C.ar    
  12 C12            4.8035     3.9967     0.9589 C.ar    
  13 C13            5.7506     3.7995    -0.0438 C.ar    
  14 C14            5.5338     2.8503    -1.0229 C.ar    
  15 C15            4.3814     2.0875    -1.0099 C.ar    
  16 N16            5.9726     6.1999     3.5983 N.pl3   
  17 N17            4.6934     6.7183     3.3633 N.2     
  18 C18            4.1286     6.0165     2.4165 C.2     
  19 C19            5.0355     5.0180     2.0116 C.2     
  20 C20            6.1657     5.1595     2.7623 C.2     
  21 C21            6.9371     6.7046     4.5788 C.3     
  22 F22            2.7153     3.4197     1.9400 F       
  23 C23           -1.2917     2.1974     0.0202 C.2     
  24 O24           -2.3405     1.5880     0.0218 O.2     
  25 C25           -1.2959     3.7043     0.0284 C.3     
  26 H26            3.3609    -0.2900    -0.0312 H       
  27 H27            3.2343    -2.1905    -0.9304 H       
  28 H28            3.2516    -2.1995     0.8494 H       
  29 H29            2.6589    -3.6215    -0.0420 H       
  30 H30            6.6549     4.3898    -0.0554 H       
  31 H31            6.2695     2.7003    -1.7992 H       
  32 H32            4.2197     1.3430    -1.7754 H       
  33 H33            3.1388     6.1747     2.0146 H       
  34 H34            7.0544     4.5490     2.6985 H       
  35 H35            6.7889     6.1940     5.5303 H       
  36 H36            7.9499     6.5192     4.2208 H       
  37 H37            6.7903     7.7761     4.7146 H       
  38 H38           -0.2693     4.0706     0.0255 H       
  39 H39           -1.8150     4.0711    -0.8572 H       
  40 H40           -1.8065     4.0614     0.9227 H       
@<TRIPOS>BOND
   1    1    2 1
   2    1    6 2
   3    1   23 1
   4    2    3 1
   5    2    7 2
   6    3    4 2
   7    3    8 1
   8    4    5 1
   9    4   26 1
  10    5    6 1
  11    5   10 1
  12    8    9 1
  13    9   27 1
  14    9   28 1
  15    9   29 1
  16   10   11 ar
  17   10   15 ar
  18   11   12 ar
  19   11   22 1
  20   12   13 ar
  21   12   19 1
  22   13   14 ar
  23   13   30 1
  24   14   15 ar
  25   14   31 1
  26   15   32 1
  27   16   17 1
  28   16   20 1
  29   16   21 1
  30   17   18 2
  31   18   19 1
  32   18   33 1
  33   19   20 2
  34   20   34 1
  35   21   35 1
  36   21   36 1
  37   21   37 1
  38   23   24 2
  39   23   25 1
  40   25   38 1
  41   25   39 1
  42   25   40 1

#	End of record

