#	Name: ASD07300198
#	Creating user name:	WinNT
#	Creation time:	15. 06. 2019 21:09

#	Modifying user name:	WinNT
#	Modification time:	15. 06. 2019 21:09

#	Program:	/corina/corina34_cracker 3.40 0067  02.08.2006

@<TRIPOS>MOLECULE
ASD07300198
  48   52    0    0    0
SMALL
NO_CHARGES


@<TRIPOS>ATOM
   1 C1            -0.0132     1.4051    -0.2373 C.ar    
   2 C2             0.0100     0.0070    -0.2452 C.ar    
   3 C3             1.2253    -0.6521    -0.3552 C.ar    
   4 C4             2.3794     0.1116    -0.4538 C.ar    
   5 C5             2.2825     1.4903    -0.4394 C.ar    
   6 N6             1.1133     2.0917    -0.3338 N.ar    
   7 C7            -2.0992     0.6661    -0.0475 C.2     
   8 N8            -1.3462     1.7798    -0.1126 N.am    
   9 N9            -1.3091    -0.4214    -0.1307 N.am    
  10 O10           -3.3106     0.6450     0.0650 O.2     
  11 C11           -1.7597    -1.8150    -0.0972 C.3     
  12 C12           -1.7897    -2.3066     1.3513 C.3     
  13 C13           -1.8257     3.0971    -0.0621 C.ar    
  14 C14           -3.1876     3.3360     0.0647 C.ar    
  15 C15           -3.6590     4.6326     0.1148 C.ar    
  16 C16           -2.7720     5.6970     0.0380 C.ar    
  17 C17           -1.4113     5.4588    -0.0887 C.ar    
  18 C18           -0.9382     4.1621    -0.1331 C.ar    
  19 C19           -5.1371     4.8921     0.2524 C.3     
  20 O20           -3.2368     6.9738     0.0865 O.3     
  21 C21           -2.3328     7.9755     0.1838 C.2     
  22 N22           -1.0472     7.8121     0.3593 N.2     
  23 C23           -0.4360     9.0246     0.4122 C.ar    
  24 C24           -1.4369     9.9980     0.2554 C.ar    
  25 N25           -2.6265     9.3055     0.1076 N.pl3   
  26 C26            0.8918     9.4244     0.5795 C.ar    
  27 C27            1.2062    10.7651     0.5893 C.ar    
  28 C28            0.2143    11.7219     0.4346 C.ar    
  29 C29           -1.1020    11.3434     0.2682 C.ar    
  30 H30            1.2721    -1.7311    -0.3635 H       
  31 H31            3.3439    -0.3665    -0.5405 H       
  32 H32            3.1802     2.0858    -0.5161 H       
  33 H33           -2.7599    -1.8838    -0.5250 H       
  34 H34           -1.0735    -2.4327    -0.6764 H       
  35 H35           -2.4760    -1.6889     1.9306 H       
  36 H36           -2.1250    -3.3435     1.3762 H       
  37 H37           -0.7895    -2.2378     1.7792 H       
  38 H38           -3.8781     2.5077     0.1238 H       
  39 H39           -0.7213     6.2876    -0.1484 H       
  40 H40            0.1216     3.9767    -0.2272 H       
  41 H41           -5.3991     4.9494     1.3089 H       
  42 H42           -5.3876     5.8340    -0.2357 H       
  43 H43           -5.6936     4.0806    -0.2164 H       
  44 H44           -3.5056     9.6938    -0.0235 H       
  45 H45            1.6691     8.6846     0.7012 H       
  46 H46            2.2330    11.0737     0.7187 H       
  47 H47            0.4740    12.7701     0.4448 H       
  48 H48           -1.8697    12.0935     0.1477 H       
@<TRIPOS>BOND
   1    1    2 ar
   2    1    6 ar
   3    1    8 1
   4    2    3 ar
   5    2    9 1
   6    3    4 ar
   7    3   30 1
   8    4    5 ar
   9    4   31 1
  10    5    6 ar
  11    5   32 1
  12    7    8 am
  13    7    9 am
  14    7   10 2
  15    8   13 1
  16    9   11 1
  17   11   12 1
  18   11   33 1
  19   11   34 1
  20   12   35 1
  21   12   36 1
  22   12   37 1
  23   13   14 ar
  24   13   18 ar
  25   14   15 ar
  26   14   38 1
  27   15   16 ar
  28   15   19 1
  29   16   17 ar
  30   16   20 1
  31   17   18 ar
  32   17   39 1
  33   18   40 1
  34   19   41 1
  35   19   42 1
  36   19   43 1
  37   20   21 1
  38   21   22 2
  39   21   25 1
  40   22   23 1
  41   23   24 ar
  42   23   26 ar
  43   24   25 1
  44   24   29 ar
  45   25   44 1
  46   26   27 ar
  47   26   45 1
  48   27   28 ar
  49   27   46 1
  50   28   29 ar
  51   28   47 1
  52   29   48 1

#	End of record

