#	Name: ASD03331646
#	Creating user name:	WinNT
#	Creation time:	15. 06. 2019 20:39

#	Modifying user name:	WinNT
#	Modification time:	15. 06. 2019 20:39

#	Program:	/corina/corina34_cracker 3.40 0067  02.08.2006

@<TRIPOS>MOLECULE
ASD03331646
  48   50    0    0    0
SMALL
NO_CHARGES


@<TRIPOS>ATOM
   1 C1             2.0446     0.2571    -0.4193 C.ar    
   2 C2             1.0423    -0.4420     0.1925 C.ar    
   3 C3             0.2431     0.1648     1.1513 C.ar    
   4 C4             0.4448     1.4816     1.5033 C.ar    
   5 C5             2.2669     1.5922    -0.0776 C.ar    
   6 C6             3.2229     2.6106    -0.5189 C.2     
   7 C7             1.4592     2.2121     0.8935 C.ar    
   8 N8             1.9023     3.5094     1.0222 N.pl3   
   9 C9             2.9533     3.7283     0.1739 C.2     
  10 S10            3.8234     5.2521     0.0137 S.o2    
  11 O11            3.1836     6.1732     0.8864 O.2     
  12 O12            5.2062     4.9353     0.0964 O.2     
  13 N13            3.5619     5.8066    -1.5246 N.am    
  14 C14            2.2096     6.1761    -1.9501 C.3     
  15 C15            2.2883     7.0167    -3.2260 C.3     
  16 C16            0.8973     7.3968    -3.6637 C.ar    
  17 C17           -1.0812     6.9158    -4.9239 C.ar    
  18 C18            0.1938     6.5705    -4.5208 C.ar    
  19 C19            0.3250     8.5683    -3.2029 C.ar    
  20 C20           -0.9498     8.9194    -3.6016 C.ar    
  21 C21           -1.6570     8.0945    -4.4670 C.ar    
  22 N22           -2.9463     8.4468    -4.8727 N.pl3   
  23 C23            4.3040     2.4365    -1.5542 C.3     
  24 C24           -3.5520     9.6902    -4.3898 C.3     
  25 C25           -3.6928     7.5728    -5.7810 C.3     
  26 H26            2.6654    -0.2229    -1.1613 H       
  27 H27            0.8705    -1.4748    -0.0725 H       
  28 H28           -0.5451    -0.4007     1.6260 H       
  29 H29           -0.1829     1.9451     2.2501 H       
  30 H30            1.5256     4.1697     1.6247 H       
  31 H31            4.3041     5.8867    -2.1440 H       
  32 H32            1.6306     5.2734    -2.1449 H       
  33 H33            1.7265     6.7548    -1.1629 H       
  34 H34            2.8673     7.9195    -3.0313 H       
  35 H35            2.7715     6.4380    -4.0132 H       
  36 H36           -1.6302     6.2698    -5.5930 H       
  37 H37            0.6421     5.6542    -4.8756 H       
  38 H38            0.8754     9.2093    -2.5301 H       
  39 H39           -1.3964     9.8342    -3.2408 H       
  40 H40            3.8884     2.6119    -2.5465 H       
  41 H41            5.1064     3.1497    -1.3652 H       
  42 H42            4.6992     1.4221    -1.4999 H       
  43 H43           -2.9384    10.5368    -4.6980 H       
  44 H44           -4.5522     9.7943    -4.8103 H       
  45 H45           -3.6160     9.6647    -3.3020 H       
  46 H46           -4.2692     6.8526    -5.2004 H       
  47 H47           -4.3691     8.1736    -6.3892 H       
  48 H48           -2.9956     7.0421    -6.4294 H       
@<TRIPOS>BOND
   1    1    2 ar
   2    1    5 ar
   3    1   26 1
   4    2    3 ar
   5    2   27 1
   6    3    4 ar
   7    3   28 1
   8    4    7 ar
   9    4   29 1
  10    5    7 ar
  11    5    6 1
  12    6    9 2
  13    6   23 1
  14    7    8 1
  15    8    9 1
  16    8   30 1
  17    9   10 1
  18   10   11 2
  19   10   12 2
  20   10   13 am
  21   13   14 1
  22   13   31 1
  23   14   15 1
  24   14   32 1
  25   14   33 1
  26   15   16 1
  27   15   34 1
  28   15   35 1
  29   16   19 ar
  30   16   18 ar
  31   17   18 ar
  32   17   21 ar
  33   17   36 1
  34   18   37 1
  35   19   20 ar
  36   19   38 1
  37   20   21 ar
  38   20   39 1
  39   21   22 1
  40   22   25 1
  41   22   24 1
  42   23   40 1
  43   23   41 1
  44   23   42 1
  45   24   43 1
  46   24   44 1
  47   24   45 1
  48   25   46 1
  49   25   47 1
  50   25   48 1

#	End of record

