#	Name: ASD01810282
#	Creating user name:	WinNT
#	Creation time:	15. 06. 2019 19:24

#	Modifying user name:	WinNT
#	Modification time:	15. 06. 2019 19:24

#	Program:	/corina/corina34_cracker 3.40 0067  02.08.2006

@<TRIPOS>MOLECULE
ASD01810282
  50   54    0    0    0
SMALL
NO_CHARGES


@<TRIPOS>ATOM
   1 C1             1.1599     2.2503    -0.5159 C.ar    
   2 C2             0.7829     0.9162    -0.5005 C.ar    
   3 C3             1.7244    -0.0812    -0.3477 C.ar    
   4 C4             3.0714     0.2477    -0.2072 C.ar    
   5 C5             3.4521     1.6004    -0.2236 C.ar    
   6 C6             2.4883     2.5999    -0.3786 C.ar    
   7 N7             4.0213    -0.7401    -0.0534 N.pl3   
   8 C8             5.3265    -0.4758     0.0859 C.2     
   9 C9             5.8199     0.8133     0.0854 C.2     
  10 C10            4.8795     1.9347    -0.0742 C.2     
  11 O11            5.2651     3.0907    -0.0812 O.2     
  12 C12            3.5837    -2.1382    -0.0416 C.3     
  13 C13            3.4399    -2.6316    -1.4583 C.ar    
  14 C14            4.5229    -2.5802    -2.3204 C.ar    
  15 C15            4.3952    -3.0318    -3.6209 C.ar    
  16 C16            3.1751    -3.5391    -4.0621 C.ar    
  17 C17            2.0896    -3.5883    -3.1892 C.ar    
  18 C18            2.2286    -3.1395    -1.8916 C.ar    
  19 C19            3.0315    -4.0248    -5.4565 C.ar    
  20 C20            7.2598     1.0622     0.2415 C.2     
  21 O21            7.7295     2.3258     0.2394 O.3     
  22 O22            8.0273     0.1286     0.3726 O.2     
  23 F23            5.7051    -2.0878    -1.8901 F       
  24 C24            4.1170    -3.9748    -6.3285 C.ar    
  25 C25            3.9811    -4.4256    -7.6255 C.ar    
  26 C26            2.7652    -4.9292    -8.0665 C.ar    
  27 C27            1.6788    -4.9840    -7.1989 C.ar    
  28 C28            1.8123    -4.5373    -5.8953 C.ar    
  29 O29            2.6507    -5.3611    -9.3523 O.3     
  30 C30            1.5323    -6.2031    -9.6515 C.3     
  31 C31            0.2782    -5.5769    -9.0268 C.3     
  32 O32            0.4814    -5.4823    -7.6128 O.3     
  33 F33            2.8541     3.9004    -0.3948 F       
  34 F34            1.3402    -1.3763    -0.3339 F       
  35 H35            0.4117     3.0191    -0.6405 H       
  36 H36           -0.2593     0.6546    -0.6088 H       
  37 H37            6.0161    -1.2987     0.2030 H       
  38 H38            4.3222    -2.7457     0.4815 H       
  39 H39            2.6235    -2.2140     0.4688 H       
  40 H40            5.2394    -2.9911    -4.2933 H       
  41 H41            1.1418    -3.9807    -3.5269 H       
  42 H42            1.3875    -3.1776    -1.2153 H       
  43 H43            8.6840     2.4395     0.3452 H       
  44 H44            5.0645    -3.5829    -5.9895 H       
  45 H45            4.8237    -4.3862    -8.2999 H       
  46 H46            0.9693    -4.5775    -5.2215 H       
  47 H47            1.4068    -6.2774   -10.7317 H       
  48 H48            1.6962    -7.1952    -9.2309 H       
  49 H49            0.1179    -4.5822    -9.4426 H       
  50 H50           -0.5881    -6.2058    -9.2324 H       
@<TRIPOS>BOND
   1    1    2 ar
   2    1    6 ar
   3    1   35 1
   4    2    3 ar
   5    2   36 1
   6    3    4 ar
   7    3   34 1
   8    4    5 ar
   9    4    7 1
  10    5    6 ar
  11    5   10 1
  12    6   33 1
  13    7    8 1
  14    7   12 1
  15    8    9 2
  16    8   37 1
  17    9   10 1
  18    9   20 1
  19   10   11 2
  20   12   13 1
  21   12   38 1
  22   12   39 1
  23   13   14 ar
  24   13   18 ar
  25   14   15 ar
  26   14   23 1
  27   15   16 ar
  28   15   40 1
  29   16   17 ar
  30   16   19 1
  31   17   18 ar
  32   17   41 1
  33   18   42 1
  34   19   24 ar
  35   19   28 ar
  36   20   21 1
  37   20   22 2
  38   21   43 1
  39   24   25 ar
  40   24   44 1
  41   25   26 ar
  42   25   45 1
  43   26   27 ar
  44   26   29 1
  45   27   28 ar
  46   27   32 1
  47   28   46 1
  48   29   30 1
  49   30   31 1
  50   30   47 1
  51   30   48 1
  52   31   32 1
  53   31   49 1
  54   31   50 1

#	End of record

