#	Name: ASD02038145
#	Creating user name:	WinNT
#	Creation time:	15. 06. 2019 20:16

#	Modifying user name:	WinNT
#	Modification time:	15. 06. 2019 20:16

#	Program:	/corina/corina34_cracker 3.40 0067  02.08.2006

@<TRIPOS>MOLECULE
ASD02038145
  63   66    0    0    0
SMALL
NO_CHARGES


@<TRIPOS>ATOM
   1 C1             0.5067     1.4976     0.4190 C.3     
   2 C2             0.5667    -0.0317     0.4187 C.3     
   3 N3             1.0690    -0.4994    -0.8808 N.3     
   4 C4             1.0699    -1.9669    -0.9476 C.3     
   5 C5             1.8232    -2.4199    -2.2000 C.3     
   6 O6             1.1793    -1.8905    -3.3607 O.3     
   7 C7             1.8241    -3.9483    -2.2696 C.3     
   8 O8             2.6251    -4.3743    -3.3737 O.3     
   9 C9             2.7318    -5.7144    -3.5782 C.ar    
  10 C10            3.4940    -6.1963    -4.6322 C.ar    
  11 C11            2.0830    -6.5991    -2.7293 C.ar    
  12 C12            2.1917    -7.9601    -2.9359 C.ar    
  13 C13            2.9502    -8.4430    -3.9938 C.ar    
  14 C14            3.6028    -7.5571    -4.8404 C.ar    
  15 N15            3.0613    -9.8242    -4.2037 N.am    
  16 C16            2.4090     0.0409    -1.1495 C.3     
  17 C17            2.3490     1.5702    -1.1492 C.3     
  18 N18            1.8467     2.0378     0.1502 N.3     
  19 C19            1.8458     3.4320     0.2138 C.ar    
  20 C20            1.4046     4.0741     1.3652 C.ar    
  21 C21            1.4030     5.4511     1.4300 C.ar    
  22 C22            1.8446     6.1998     0.3401 C.ar    
  23 C23            2.2870     5.5539    -0.8134 C.ar    
  24 C24            2.2916     4.1766    -0.8723 C.ar    
  25 C25            1.8432     7.6817     0.4074 C.ar    
  26 C26            2.0112   -10.6307    -3.9519 C.2     
  27 N27            2.0860   -11.9448    -4.2420 N.am    
  28 O28            0.9964   -10.1728    -3.4631 O.2     
  29 C29            2.2843     8.4317    -0.6812 C.ar    
  30 C30            1.3955     8.3291     1.5575 C.ar    
  31 C31            1.3965     9.7081     1.6146 C.ar    
  32 C32            1.8403    10.4474     0.5330 C.ar    
  33 C33            2.2809     9.8101    -0.6130 C.ar    
  34 H34           -0.1832     1.8346    -0.3546 H       
  35 H35            0.1618     1.8478     1.3919 H       
  36 H36            1.2356    -0.3696     1.2102 H       
  37 H37           -0.4316    -0.4349     0.5891 H       
  38 H38            1.5611    -2.3706    -0.0623 H       
  39 H39            0.0428    -2.3293    -0.9904 H       
  40 H40            2.8503    -2.0575    -2.1572 H       
  41 H41            0.2599    -2.1721    -3.4632 H       
  42 H42            2.2347    -4.3539    -1.3450 H       
  43 H43            0.8032    -4.3066    -2.4018 H       
  44 H44            4.0022    -5.5071    -5.2903 H       
  45 H45            1.4931    -6.2233    -1.9063 H       
  46 H46            1.6872    -8.6488    -2.2744 H       
  47 H47            4.1929    -7.9321    -5.6636 H       
  48 H48            3.8939   -10.1997    -4.5302 H       
  49 H49            3.0989    -0.2962    -0.3759 H       
  50 H50            2.7539    -0.3093    -2.1224 H       
  51 H51            3.3473     1.9733    -1.3196 H       
  52 H52            1.6800     1.9081    -1.9407 H       
  53 H53            1.0626     3.4938     2.2093 H       
  54 H54            1.0595     5.9496     2.3244 H       
  55 H55            2.6294     6.1321    -1.6589 H       
  56 H56            2.6342     3.6759    -1.7657 H       
  57 H57            2.8956   -12.3101    -4.6319 H       
  58 H58            1.3303   -12.5252    -4.0608 H       
  59 H59            2.6285     7.9352    -1.5764 H       
  60 H60            1.0481     7.7529     2.4022 H       
  61 H61            1.0497    10.2109     2.5053 H       
  62 H62            1.8387    11.5263     0.5818 H       
  63 H63            2.6264    10.3923    -1.4545 H       
@<TRIPOS>BOND
   1    1    2 1
   2    1   18 1
   3    1   34 1
   4    1   35 1
   5    2    3 1
   6    2   36 1
   7    2   37 1
   8    3    4 1
   9    3   16 1
  10    4    5 1
  11    4   38 1
  12    4   39 1
  13    5    6 1
  14    5    7 1
  15    5   40 1
  16    6   41 1
  17    7    8 1
  18    7   42 1
  19    7   43 1
  20    8    9 1
  21    9   10 ar
  22    9   11 ar
  23   10   14 ar
  24   10   44 1
  25   11   12 ar
  26   11   45 1
  27   12   13 ar
  28   12   46 1
  29   13   14 ar
  30   13   15 1
  31   14   47 1
  32   15   26 am
  33   15   48 1
  34   16   17 1
  35   16   49 1
  36   16   50 1
  37   17   18 1
  38   17   51 1
  39   17   52 1
  40   18   19 1
  41   19   20 ar
  42   19   24 ar
  43   20   21 ar
  44   20   53 1
  45   21   22 ar
  46   21   54 1
  47   22   23 ar
  48   22   25 1
  49   23   24 ar
  50   23   55 1
  51   24   56 1
  52   25   29 ar
  53   25   30 ar
  54   26   27 am
  55   26   28 2
  56   27   57 1
  57   27   58 1
  58   29   33 ar
  59   29   59 1
  60   30   31 ar
  61   30   60 1
  62   31   32 ar
  63   31   61 1
  64   32   33 ar
  65   32   62 1
  66   33   63 1

#	End of record

