#	Name: ASD01870207
#	Creating user name:	WinNT
#	Creation time:	15. 06. 2019 19:38

#	Modifying user name:	WinNT
#	Modification time:	15. 06. 2019 19:38

#	Program:	/corina/corina34_cracker 3.40 0067  02.08.2006

@<TRIPOS>MOLECULE
ASD01870207
  55   59    0    0    0
SMALL
NO_CHARGES


@<TRIPOS>ATOM
   1 Cl1            5.3897    -5.6435    -2.8640 Cl      
   2 C2             0.3832     1.1129    -1.1287 C.ar    
   3 C3             0.3370    -0.1973    -0.6573 C.ar    
   4 C4             1.3915    -0.7393     0.0127 C.ar    
   5 C5             2.5453     0.0294     0.2340 C.ar    
   6 C6             2.5932     1.3641    -0.2464 C.ar    
   7 C7             1.4842     1.8889    -0.9334 C.ar    
   8 C8             3.6525    -0.4999     0.9220 C.ar    
   9 C9             4.7577     0.2602     1.1245 C.ar    
  10 C10            4.8205     1.5867     0.6543 C.ar    
  11 C11            3.7429     2.1306    -0.0266 C.ar    
  12 C12            5.8805     2.6106     0.7383 C.2     
  13 N13            5.4829     3.7448     0.1367 N.am    
  14 C14            4.1270     3.5436    -0.3872 C.3     
  15 C15            6.2705     4.9748     0.0230 C.3     
  16 C16            7.0580     4.9567    -1.2887 C.3     
  17 C17            6.0855     4.8631    -2.4661 C.3     
  18 C18            5.1481     6.0723    -2.4507 C.3     
  19 C19            4.3606     6.0904    -1.1390 C.3     
  20 C20            5.3331     6.1839     0.0384 C.3     
  21 C21            3.6103    -1.9159     1.4361 C.3     
  22 C22            4.0224    -2.8616     0.3375 C.ar    
  23 C23            5.3497    -3.2083     0.1748 C.ar    
  24 N24            5.7188    -4.0350    -0.7845 N.ar    
  25 C25            4.8445    -4.5613    -1.6209 C.ar    
  26 C26            3.4977    -4.2596    -1.5185 C.ar    
  27 C27            3.0729    -3.3991    -0.5190 C.ar    
  28 O28            6.9593     2.4508     1.2754 O.2     
  29 C29            7.9953     3.7475    -1.3041 C.3     
  30 O30            8.8083     3.7900    -2.4785 O.3     
  31 H31           -0.4653     1.5173    -1.6607 H       
  32 H32           -0.5487    -0.7921    -0.8255 H       
  33 H33            1.3403    -1.7563     0.3726 H       
  34 H34            1.5062     2.9027    -1.3050 H       
  35 H35            5.6013    -0.1574     1.6541 H       
  36 H36            4.1211     3.6690    -1.4699 H       
  37 H37            3.4375     4.2493     0.0762 H       
  38 H38            6.9633     5.0414     0.8618 H       
  39 H39            7.6440     5.8718    -1.3733 H       
  40 H40            6.6465     4.8502    -3.4006 H       
  41 H41            5.4994     3.9480    -2.3815 H       
  42 H42            5.7342     6.9874    -2.5353 H       
  43 H43            4.4553     6.0056    -3.2895 H       
  44 H44            3.6928     6.9518    -1.1280 H       
  45 H45            3.7746     5.1752    -1.0544 H       
  46 H46            4.7721     6.1968     0.9729 H       
  47 H47            5.9192     7.0991    -0.0462 H       
  48 H48            4.2946    -2.0172     2.2784 H       
  49 H49            2.5974    -2.1548     1.7601 H       
  50 H50            6.0941    -2.7972     0.8407 H       
  51 H51            2.7864    -4.6929    -2.2060 H       
  52 H52            2.0281    -3.1460    -0.4147 H       
  53 H53            8.6326     3.7705    -0.4201 H       
  54 H54            7.4058     2.8307    -1.3033 H       
  55 H55            9.4284     3.0520    -2.5546 H       
@<TRIPOS>BOND
   1    1   25 1
   2    2    3 ar
   3    2    7 ar
   4    2   31 1
   5    3    4 ar
   6    3   32 1
   7    4    5 ar
   8    4   33 1
   9    5    6 ar
  10    5    8 ar
  11    6    7 ar
  12    6   11 ar
  13    7   34 1
  14    8    9 ar
  15    8   21 1
  16    9   10 ar
  17    9   35 1
  18   10   11 ar
  19   10   12 1
  20   11   14 1
  21   12   13 am
  22   12   28 2
  23   13   14 1
  24   13   15 1
  25   14   36 1
  26   14   37 1
  27   15   16 1
  28   15   20 1
  29   15   38 1
  30   16   17 1
  31   16   29 1
  32   16   39 1
  33   17   18 1
  34   17   40 1
  35   17   41 1
  36   18   19 1
  37   18   42 1
  38   18   43 1
  39   19   20 1
  40   19   44 1
  41   19   45 1
  42   20   46 1
  43   20   47 1
  44   21   22 1
  45   21   48 1
  46   21   49 1
  47   22   23 ar
  48   22   27 ar
  49   23   24 ar
  50   23   50 1
  51   24   25 ar
  52   25   26 ar
  53   26   27 ar
  54   26   51 1
  55   27   52 1
  56   29   30 1
  57   29   53 1
  58   29   54 1
  59   30   55 1

#	End of record

