#	Name: ASD09610006
#	Creating user name:	WinNT
#	Creation time:	15. 06. 2019 21:22

#	Modifying user name:	WinNT
#	Modification time:	15. 06. 2019 21:22

#	Program:	/corina/corina34_cracker 3.40 0067  02.08.2006

@<TRIPOS>MOLECULE
ASD09610006
  38   40    0    0    0
SMALL
NO_CHARGES


@<TRIPOS>ATOM
   1 N1             0.0744     1.2366    -0.4703 N.pl3   
   2 N2             0.2122    -0.0377    -0.5544 N.2     
   3 C3             1.3008    -0.4263     0.0826 C.2     
   4 C4             1.9082     0.7288     0.6224 C.2     
   5 C5             1.1036     1.7701     0.2531 C.2     
   6 C6             1.7924    -1.8120     0.2080 C.2     
   7 O7             2.8140    -2.0407     0.8245 O.2     
   8 O8             1.1082    -2.8237    -0.3612 O.3     
   9 C9             1.3080     3.2000     0.5742 C.ar    
  10 C10            2.5835     3.6731     0.8831 C.ar    
  11 C11            2.7676     5.0076     1.1812 C.ar    
  12 C12            1.6906     5.8759     1.1743 C.ar    
  13 C13            0.4232     5.4128     0.8692 C.ar    
  14 C14            0.2269     4.0817     0.5637 C.ar    
  15 C15           -0.9727     1.9713    -1.0407 C.ar    
  16 C16           -2.2913     1.6663    -0.7231 C.ar    
  17 C17           -3.3220     2.3930    -1.2877 C.ar    
  18 C18           -3.0421     3.4234    -2.1684 C.ar    
  19 C19           -1.7302     3.7286    -2.4859 C.ar    
  20 C20           -0.6956     3.0092    -1.9202 C.ar    
  21 Cl21          -4.3392     4.3342    -2.8766 Cl      
  22 Cl22          -2.6425     0.3736     0.3811 Cl      
  23 C23            1.6504    -4.1606    -0.1972 C.3     
  24 C24            0.7444    -5.1690    -0.9066 C.3     
  25 H25            2.8165     0.7788     1.2046 H       
  26 H26            3.4250     2.9961     0.8892 H       
  27 H27            3.7545     5.3751     1.4209 H       
  28 H28            1.8399     6.9197     1.4083 H       
  29 H29           -0.4137     6.0955     0.8661 H       
  30 H30           -0.7622     3.7223     0.3210 H       
  31 H31           -4.3468     2.1567    -1.0419 H       
  32 H32           -1.5149     4.5329    -3.1738 H       
  33 H33            0.3280     3.2511    -2.1652 H       
  34 H34            2.6499    -4.2029    -0.6300 H       
  35 H35            1.7035    -4.4035     0.8640 H       
  36 H36            1.1514    -6.1726    -0.7835 H       
  37 H37           -0.2551    -5.1266    -0.4738 H       
  38 H38            0.6914    -4.9260    -1.9679 H       
@<TRIPOS>BOND
   1    1    2 1
   2    1    5 1
   3    1   15 1
   4    2    3 2
   5    3    4 1
   6    3    6 1
   7    4    5 2
   8    4   25 1
   9    5    9 1
  10    6    7 2
  11    6    8 1
  12    8   23 1
  13    9   10 ar
  14    9   14 ar
  15   10   11 ar
  16   10   26 1
  17   11   12 ar
  18   11   27 1
  19   12   13 ar
  20   12   28 1
  21   13   14 ar
  22   13   29 1
  23   14   30 1
  24   15   16 ar
  25   15   20 ar
  26   16   17 ar
  27   16   22 1
  28   17   18 ar
  29   17   31 1
  30   18   19 ar
  31   18   21 1
  32   19   20 ar
  33   19   32 1
  34   20   33 1
  35   23   24 1
  36   23   34 1
  37   23   35 1
  38   24   36 1
  39   24   37 1
  40   24   38 1

#	End of record

