#	Name: ASD04590543
#	Creating user name:	WinNT
#	Creation time:	15. 06. 2019 20:51

#	Modifying user name:	WinNT
#	Modification time:	15. 06. 2019 20:51

#	Program:	/corina/corina34_cracker 3.40 0067  02.08.2006

@<TRIPOS>MOLECULE
ASD04590543
  62   67    0    0    0
SMALL
NO_CHARGES


@<TRIPOS>ATOM
   1 C1            -0.0167     1.3834     0.0096 C.ar    
   2 C2             0.0021    -0.0041     0.0020 C.ar    
   3 C3             2.3948     0.0191    -0.0203 C.ar    
   4 C4             2.3756     1.4249    -0.0130 C.ar    
   5 C5             1.1624     2.0987     0.0022 C.ar    
   6 N6             3.6952    -0.3637    -0.0354 N.2     
   7 C7             4.4664     0.6967    -0.0378 C.2     
   8 N8             3.6970     1.8290    -0.0243 N.pl3   
   9 C9             5.9437     0.6731    -0.0524 C.2     
  10 C10            6.7565    -0.4839    -0.0664 C.2     
  11 C11            8.0503    -0.0801    -0.0774 C.2     
  12 N12            8.0626     1.2789    -0.0707 N.pl3   
  13 N13            6.7358     1.7273    -0.0603 N.2     
  14 N14            6.3042    -1.8136    -0.0679 N.am    
  15 C15            7.1921    -2.8274    -0.0821 C.2     
  16 O16            8.3852    -2.5909    -0.0936 O.2     
  17 C17            1.1863    -0.6848    -0.0125 C.ar    
  18 C18           -1.2971    -0.7677     0.0104 C.3     
  19 N19           -1.7325    -1.0083    -1.3718 N.3     
  20 C20            6.7175    -4.2226    -0.0836 C.2     
  21 C21            6.4443    -5.0671     1.0777 C.2     
  22 C22           -2.8623    -1.9482    -1.4122 C.3     
  23 C23           -3.3214    -2.1239    -2.8621 C.3     
  24 O24           -2.2180    -2.5691    -3.6557 O.3     
  25 C25           -1.1003    -1.6771    -3.6396 C.3     
  26 C26           -0.6187    -1.4969    -2.1976 C.3     
  27 C27            6.0344    -6.2550     0.5979 C.2     
  28 O28            6.0345    -6.2031    -0.7398 O.3     
  29 C29            6.4333    -5.0002    -1.1713 C.2     
  30 C30            6.5568    -4.5777    -2.6126 C.3     
  31 C31            6.5765    -4.7259     2.5371 C.3     
  32 C32            5.8017    -5.7716     3.3500 C.3     
  33 C33            6.2009    -7.1744     2.8836 C.3     
  34 C34            5.6506    -7.4236     1.4745 C.3     
  35 H35           -0.9614     1.9069     0.0170 H       
  36 H36            1.1417     3.1785     0.0079 H       
  37 H37            4.0192     2.7439    -0.0235 H       
  38 H38            8.9174    -0.7238    -0.0891 H       
  39 H39            8.8531     1.8409    -0.0758 H       
  40 H40            5.3527    -2.0022    -0.0587 H       
  41 H41            1.1893    -1.7648    -0.0177 H       
  42 H42           -1.1545    -1.7218     0.5177 H       
  43 H43           -2.0563    -0.1872     0.5346 H       
  44 H44           -2.5487    -2.9117    -1.0105 H       
  45 H45           -3.6848    -1.5545    -0.8151 H       
  46 H46           -4.1213    -2.8632    -2.9036 H       
  47 H47           -3.6852    -1.1711    -3.2467 H       
  48 H48           -0.2938    -2.0932    -4.2434 H       
  49 H49           -1.3996    -0.7113    -4.0468 H       
  50 H50            0.1965    -0.7737    -2.1738 H       
  51 H51           -0.2692    -2.4532    -1.8084 H       
  52 H52            6.2703    -5.4066    -3.2600 H       
  53 H53            5.9010    -3.7273    -2.7995 H       
  54 H54            7.5883    -4.2938    -2.8209 H       
  55 H55            7.6279    -4.7428     2.8244 H       
  56 H56            6.1608    -3.7354     2.7217 H       
  57 H57            6.0390    -5.6587     4.4078 H       
  58 H58            4.7316    -5.6291     3.1997 H       
  59 H59            7.2877    -7.2564     2.8687 H       
  60 H60            5.7908    -7.9154     3.5698 H       
  61 H61            4.5648    -7.5102     1.5153 H       
  62 H62            6.0793    -8.3407     1.0706 H       
@<TRIPOS>BOND
   1    1    2 ar
   2    1    5 ar
   3    1   35 1
   4    2   17 ar
   5    2   18 1
   6    3    4 ar
   7    3    6 1
   8    3   17 ar
   9    4    5 ar
  10    4    8 1
  11    5   36 1
  12    6    7 2
  13    7    8 1
  14    7    9 1
  15    8   37 1
  16    9   10 1
  17    9   13 2
  18   10   11 2
  19   10   14 1
  20   11   12 1
  21   11   38 1
  22   12   13 1
  23   12   39 1
  24   14   15 am
  25   14   40 1
  26   15   16 2
  27   15   20 1
  28   17   41 1
  29   18   19 1
  30   18   42 1
  31   18   43 1
  32   19   22 1
  33   19   26 1
  34   20   21 1
  35   20   29 2
  36   21   27 2
  37   21   31 1
  38   22   23 1
  39   22   44 1
  40   22   45 1
  41   23   24 1
  42   23   46 1
  43   23   47 1
  44   24   25 1
  45   25   26 1
  46   25   48 1
  47   25   49 1
  48   26   50 1
  49   26   51 1
  50   27   28 1
  51   27   34 1
  52   28   29 1
  53   29   30 1
  54   30   52 1
  55   30   53 1
  56   30   54 1
  57   31   32 1
  58   31   55 1
  59   31   56 1
  60   32   33 1
  61   32   57 1
  62   32   58 1
  63   33   34 1
  64   33   59 1
  65   33   60 1
  66   34   61 1
  67   34   62 1

#	End of record

