#	Name: ASD02030197
#	Creating user name:	WinNT
#	Creation time:	15. 06. 2019 20:14

#	Modifying user name:	WinNT
#	Modification time:	15. 06. 2019 20:14

#	Program:	/corina/corina34_cracker 3.40 0067  02.08.2006

@<TRIPOS>MOLECULE
ASD02030197
  51   54    0    0    0
SMALL
NO_CHARGES


@<TRIPOS>ATOM
   1 N1            -0.2218     1.3888    -0.1448 N.am    
   2 C2            -0.0835    -0.0518     0.1109 C.3     
   3 C3            -0.9985    -0.4319     1.2816 C.3     
   4 N4            -2.3380     0.1170     1.0281 N.am    
   5 C5            -2.4764     1.5576     0.7724 C.3     
   6 C6            -1.5620     1.9386    -0.3928 C.3     
   7 C7             0.8603     2.1922    -0.1464 C.2     
   8 C8             2.1843     1.6507     0.2319 C.2     
   9 N9             2.4860     0.3656     0.4737 N.2     
  10 N10            3.3012     2.3368     0.3919 N.2     
  11 N11            4.2299     1.5058     0.7201 N.pl3   
  12 N12            3.7404     0.3164     0.7700 N.2     
  13 O13            0.7485     3.3616    -0.4584 O.2     
  14 C14           -3.4201    -0.6864     1.0296 C.2     
  15 C15           -4.7720    -0.1059     0.8837 C.ar    
  16 O16           -3.2846    -1.8882     1.1510 O.2     
  17 C17           -1.4809     3.4623    -0.5049 C.3     
  18 C18           -2.1165     1.3533    -1.6932 C.3     
  19 C19           -5.7666    -0.8091     0.2028 C.ar    
  20 C20           -7.0274    -0.2613     0.0706 C.ar    
  21 C21           -7.3047     0.9825     0.6119 C.ar    
  22 C22           -6.3222     1.6839     1.2879 C.ar    
  23 C23           -5.0604     1.1453     1.4314 C.ar    
  24 Cl24          -8.2666    -1.1334    -0.7764 Cl      
  25 C25            5.5659     1.8440     0.9786 C.ar    
  26 C26            6.4806     0.8553     1.3255 C.ar    
  27 C27            7.7974     1.1934     1.5797 C.ar    
  28 C28            8.2034     2.5121     1.4891 C.ar    
  29 C29            7.2955     3.4963     1.1444 C.ar    
  30 C30            5.9798     3.1651     0.8835 C.ar    
  31 F31            6.0835    -0.4329     1.4144 F       
  32 H32           -0.3755    -0.6109    -0.7781 H       
  33 H33            0.9513    -0.2803     0.3662 H       
  34 H34           -1.0572    -1.5173     1.3626 H       
  35 H35           -0.6012    -0.0145     2.2068 H       
  36 H36           -3.5111     1.7861     0.5171 H       
  37 H37           -2.1843     2.1167     1.6613 H       
  38 H38           -0.9737     3.8646     0.3720 H       
  39 H39           -0.9238     3.7314    -1.4023 H       
  40 H40           -2.4874     3.8764    -0.5643 H       
  41 H41           -3.1160     1.7494    -1.8728 H       
  42 H42           -1.4632     1.6262    -2.5220 H       
  43 H43           -2.1652     0.2675    -1.6112 H       
  44 H44           -5.5509    -1.7792    -0.2200 H       
  45 H45           -8.2920     1.4071     0.5056 H       
  46 H46           -6.5448     2.6539     1.7075 H       
  47 H47           -4.2948     1.6940     1.9597 H       
  48 H48            8.5090     0.4271     1.8495 H       
  49 H49            9.2321     2.7740     1.6884 H       
  50 H50            7.6163     4.5252     1.0750 H       
  51 H51            5.2721     3.9351     0.6140 H       
@<TRIPOS>BOND
   1    1    2 1
   2    1    7 am
   3    1    6 1
   4    2    3 1
   5    2   32 1
   6    2   33 1
   7    3    4 1
   8    3   34 1
   9    3   35 1
  10    4    5 1
  11    4   14 am
  12    5    6 1
  13    5   36 1
  14    5   37 1
  15    6   17 1
  16    6   18 1
  17    7    8 1
  18    7   13 2
  19    8    9 1
  20    8   10 2
  21    9   12 2
  22   10   11 1
  23   11   12 1
  24   11   25 1
  25   14   15 1
  26   14   16 2
  27   15   19 ar
  28   15   23 ar
  29   17   38 1
  30   17   39 1
  31   17   40 1
  32   18   41 1
  33   18   42 1
  34   18   43 1
  35   19   20 ar
  36   19   44 1
  37   20   21 ar
  38   20   24 1
  39   21   22 ar
  40   21   45 1
  41   22   23 ar
  42   22   46 1
  43   23   47 1
  44   25   26 ar
  45   25   30 ar
  46   26   27 ar
  47   26   31 1
  48   27   28 ar
  49   27   48 1
  50   28   29 ar
  51   28   49 1
  52   29   30 ar
  53   29   50 1
  54   30   51 1

#	End of record

