#	Name: ASD06610095
#	Creating user name:	WinNT
#	Creation time:	15. 06. 2019 21:07

#	Modifying user name:	WinNT
#	Modification time:	15. 06. 2019 21:07

#	Program:	/corina/corina34_cracker 3.40 0067  02.08.2006

@<TRIPOS>MOLECULE
ASD06610095
 312  311    0    0    0
SMALL
NO_CHARGES


@<TRIPOS>ATOM
   1 C1            -3.3266    -2.1132    -4.7291 C.2     
   2 O2            -3.3186    -3.3259    -4.7135 O.2     
   3 N3            -0.9344    -2.3007    -5.0916 N.am    
   4 C4            -2.0414    -1.3538    -4.9357 C.3     
   5 C5            -2.1555    -0.4910    -6.1941 C.3     
   6 C6            -0.9008     0.3730    -6.3355 C.3     
   7 C7            -1.0133     1.2229    -7.5750 C.2     
   8 O8            -1.9961     1.1454    -8.2735 O.2     
   9 O9            -0.0215     2.0659    -7.9029 O.3     
  10 C10           -6.8966    -1.3324    -4.8195 C.2     
  11 O11           -6.6990    -0.2190    -5.2579 O.2     
  12 N12           -4.4856    -1.4448    -4.5671 N.am    
  13 C13           -5.7359    -2.1832    -4.3722 C.3     
  14 C14           -5.8983    -2.5292    -2.8907 C.3     
  15 C15           -4.7885    -3.4937    -2.4676 C.3     
  16 C16           -4.9508    -3.8397    -0.9861 C.3     
  17 N17           -3.8882    -4.7632    -0.5811 N.pl3   
  18 C18           -3.8289    -5.2167     0.7154 C.2     
  19 N19           -4.7182    -4.8251     1.5842 N.2     
  20 N20           -2.8317    -6.0834     1.0956 N.pl3   
  21 C21          -10.4564    -1.2818    -4.1739 C.2     
  22 O22          -10.3585    -2.1743    -3.3585 O.2     
  23 N23           -8.1543    -1.8089    -4.7324 N.am    
  24 C24           -9.2896    -0.9452    -5.0663 C.3     
  25 C25           -9.6852    -1.1653    -6.5278 C.3     
  26 C26           -9.8669    -2.6621    -6.7872 C.3     
  27 C27          -11.0870    -3.1690    -6.0157 C.3     
  28 C28           -8.5862    -0.6190    -7.4414 C.3     
  29 C29          -14.0318    -0.5206    -4.1710 C.2     
  30 O30          -13.9636     0.0709    -5.2276 O.2     
  31 N31          -11.6086    -0.5910    -4.2818 N.am    
  32 C32          -12.7726    -0.9782    -3.4810 C.3     
  33 C33          -12.6816    -0.3256    -2.1002 C.3     
  34 C34          -11.4706    -0.8846    -1.3507 C.3     
  35 C35          -11.3809    -0.2417     0.0094 C.2     
  36 O36          -12.2015     0.5793     0.3448 O.2     
  37 O37          -10.3895    -0.5812     0.8482 O.3     
  38 C38          -17.6552    -0.7218    -3.4607 C.2     
  39 O39          -17.5012    -1.3186    -2.4162 O.2     
  40 N40          -15.2337    -0.7684    -3.6138 N.am    
  41 C41          -16.4578    -0.3235    -4.2845 C.3     
  42 C42          -21.2684    -0.9224    -3.9778 C.2     
  43 O43          -21.1665    -0.7059    -5.1668 O.2     
  44 N44          -18.8971    -0.4149    -3.8847 N.am    
  45 C45          -20.0611    -0.8021    -3.0839 C.3     
  46 C46          -20.3217     0.2614    -2.0153 C.3     
  47 C47          -19.1485     0.2963    -1.0338 C.3     
  48 C48          -19.3492     1.4418    -0.0396 C.3     
  49 C49          -19.0784    -1.0307    -0.2754 C.3     
  50 C50          -24.8855    -1.1730    -3.5119 C.2     
  51 O51          -24.8044    -0.9451    -2.3234 O.2     
  52 N52          -22.4613    -1.2704    -3.4560 N.am    
  53 C53          -23.6349    -1.3873    -4.3251 C.3     
  54 C54          -23.6677    -2.7821    -4.9530 C.3     
  55 C55          -22.4608    -2.9537    -5.8775 C.3     
  56 C56          -22.4935    -4.3485    -6.5055 C.3     
  57 N57          -21.3379    -4.5128    -7.3907 N.pl3   
  58 C58          -21.1547    -5.6940    -8.0700 C.2     
  59 N59          -20.1265    -5.8401    -8.8576 N.2     
  60 N60          -22.0561    -6.7209    -7.9185 N.pl3   
  61 C61          -28.4692    -1.7173    -3.9848 C.2     
  62 O62          -28.2970    -2.3241    -5.0207 O.2     
  63 N63          -26.0940    -1.2346    -4.1053 N.am    
  64 C64          -27.3097    -1.0262    -3.3148 C.3     
  65 C65          -27.6000     0.4724    -3.2110 C.3     
  66 C66          -26.4815     1.1550    -2.4211 C.3     
  67 C67          -26.7718     2.6536    -2.3173 C.3     
  68 C68          -25.6534     3.3363    -1.5274 C.3     
  69 N69          -25.9321     4.7752    -1.4278 N.3     
  70 C70          -32.1116    -1.6608    -3.6803 C.2     
  71 O71          -32.0894    -0.7139    -2.9228 O.2     
  72 N72          -29.6975    -1.6610    -3.4329 N.am    
  73 C73          -30.8247    -2.3329    -4.0843 C.3     
  74 C74          -30.8598    -3.8013    -3.6560 C.3     
  75 C75          -29.6093    -4.5139    -4.1748 C.3     
  76 C76          -29.6444    -5.9823    -3.7465 C.3     
  77 N77          -28.4470    -6.6647    -4.2432 N.pl3   
  78 C78          -28.2582    -8.0008    -3.9800 C.2     
  79 N79          -27.1928    -8.6079    -4.4219 N.2     
  80 N80          -29.1932    -8.6966    -3.2507 N.pl3   
  81 C81          -35.6773    -2.4372    -3.8947 C.2     
  82 O82          -35.4650    -3.5689    -4.2756 O.2     
  83 N83          -33.2872    -2.1120    -4.1607 N.am    
  84 C84          -34.5382    -1.4587    -3.7679 C.3     
  85 C85          -34.7943    -0.2571    -4.6799 C.3     
  86 C86          -33.7030     0.7923    -4.4592 C.3     
  87 C87          -33.9590     1.9939    -5.3711 C.3     
  88 N88          -32.9141     2.9987    -5.1599 N.pl3   
  89 C89          -32.9353     4.1732    -5.8741 C.2     
  90 N90          -32.0056     5.0672    -5.6862 N.2     
  91 N91          -33.9372     4.4047    -6.7867 N.pl3   
  92 C92          -39.3281    -2.2527    -3.9135 C.2     
  93 O93          -39.3223    -1.0405    -3.9533 O.2     
  94 N94          -36.9319    -2.0547    -3.5847 N.am    
  95 C95          -38.0392    -3.0060    -3.7079 C.3     
  96 C96          -38.1363    -3.8438    -2.4314 C.3     
  97 C97          -36.8784    -4.7031    -2.2885 C.3     
  98 C98          -36.9755    -5.5409    -1.0119 C.3     
  99 N99          -35.7711    -6.3637    -0.8751 N.pl3   
 100 C100         -35.6321    -7.2049     0.2034 C.2     
 101 N101         -36.5719    -7.2703     1.1042 N.2     
 102 N102         -34.5019    -7.9770     0.3318 N.pl3   
 103 C103         -42.8884    -3.1041    -3.7501 C.2     
 104 O104         -42.7140    -4.3032    -3.6973 O.2     
 105 N105         -40.4873    -2.9259    -4.0533 N.am    
 106 C106         -41.7532    -2.1941    -4.1429 C.3     
 107 C107         -41.9616    -1.7096    -5.5792 C.3     
 108 C108         -43.2889    -0.9547    -5.6752 C.3     
 109 C109         -43.1967     0.3433    -4.8705 C.3     
 110 C110         -43.5842    -0.6266    -7.1402 C.3     
 111 C111         -46.5165    -2.7787    -3.4432 C.2     
 112 O112         -46.5095    -1.6524    -3.8931 O.2     
 113 N113         -44.0975    -2.5855    -3.4574 N.am    
 114 C114         -45.2161    -3.4736    -3.1317 C.3     
 115 C115         -45.1703    -3.8268    -1.6437 C.3     
 116 C116         -43.9085    -4.6412    -1.3514 C.3     
 117 C117         -43.7981    -4.8879     0.1545 C.3     
 118 C118         -43.9862    -5.9825    -2.0836 C.3     
 119 C119         -50.0493    -3.3167    -2.6734 C.2     
 120 O120         -49.8014    -4.2057    -1.8936 O.2     
 121 N121         -47.6872    -3.4087    -3.2220 N.am    
 122 C122         -48.9513    -2.7331    -3.5248 C.3     
 123 C123         -49.2932    -2.9296    -5.0031 C.3     
 124 O124         -49.5350    -4.3151    -5.2560 O.3     
 125 O125         -51.3028    -2.8488    -2.7813 O.3     
 126 C126           0.3235    -1.9223    -4.7898 C.2     
 127 O127           0.5390    -0.7981    -4.3892 O.2     
 128 C128          18.7295    -5.0847    -3.2383 C.3     
 129 C129          17.5734    -4.0958    -3.0755 C.3     
 130 C130          16.2628    -4.7720    -3.4829 C.3     
 131 C131          15.1066    -3.7832    -3.3201 C.3     
 132 C132          13.7960    -4.4594    -3.7274 C.3     
 133 C133          12.6399    -3.4706    -3.5646 C.3     
 134 C134          11.3292    -4.1468    -3.9720 C.3     
 135 C135          10.1731    -3.1580    -3.8092 C.3     
 136 C136           8.8625    -3.8342    -4.2165 C.3     
 137 C137           7.7064    -2.8453    -4.0537 C.3     
 138 C138           6.3957    -3.5215    -4.4611 C.3     
 139 C139           5.2396    -2.5327    -4.2983 C.3     
 140 C140           3.9290    -3.2089    -4.7056 C.3     
 141 C141           2.7729    -2.2201    -4.5428 C.3     
 142 C142           1.4622    -2.8963    -4.9502 C.3     
 143 H143          -1.1067    -3.1998    -5.4121 H       
 144 H144          -1.8542    -0.7148    -4.0728 H       
 145 H145          -2.2539    -1.1346    -7.0682 H       
 146 H146          -3.0324     0.1517    -6.1156 H       
 147 H147          -0.8024     1.0166    -5.4614 H       
 148 H148          -0.0240    -0.2697    -6.4140 H       
 149 H149          -0.1389     2.5902    -8.7069 H       
 150 H150          -4.4920    -0.4749    -4.5795 H       
 151 H151          -5.7109    -3.1013    -4.9591 H       
 152 H152          -5.8342    -1.6181    -2.2957 H       
 153 H153          -6.8686    -2.9995    -2.7317 H       
 154 H154          -4.8525    -4.4047    -3.0627 H       
 155 H155          -3.8181    -3.0233    -2.6267 H       
 156 H156          -4.8868    -2.9286    -0.3911 H       
 157 H157          -5.9212    -4.3100    -0.8271 H       
 158 H158          -3.2264    -5.0547    -1.2276 H       
 159 H159          -4.6764    -5.1451     2.4989 H       
 160 H160          -2.1699    -6.3749     0.4491 H       
 161 H161          -2.7899    -6.4034     2.0103 H       
 162 H162          -8.3079    -2.7237    -4.4485 H       
 163 H163          -9.0085     0.0975    -4.9190 H       
 164 H164         -10.6206    -0.6448    -6.7333 H       
 165 H165         -10.0157    -2.8306    -7.8537 H       
 166 H166          -8.9783    -3.1989    -6.4550 H       
 167 H167         -11.9383    -2.5176    -6.2134 H       
 168 H168         -11.3237    -4.1836    -6.3361 H       
 169 H169         -10.8683    -3.1670    -4.9478 H       
 170 H170          -7.6778    -1.2066    -7.3085 H       
 171 H171          -8.9117    -0.6831    -8.4797 H       
 172 H172          -8.3862     0.4218    -7.1870 H       
 173 H173         -11.6671     0.1626    -4.8898 H       
 174 H174         -12.7927    -2.0624    -3.3698 H       
 175 H175         -12.5721     0.7529    -2.2146 H       
 176 H176         -13.5891    -0.5408    -1.5361 H       
 177 H177         -11.5801    -1.9630    -1.2363 H       
 178 H178         -10.5631    -0.6694    -1.9148 H       
 179 H179         -10.3735    -0.1420     1.7095 H       
 180 H180         -15.2882    -1.2415    -2.7687 H       
 181 H181         -16.5226    -0.7885    -5.2683 H       
 182 H182         -16.4376     0.7606    -4.3957 H       
 183 H183         -19.0203     0.0624    -4.7202 H       
 184 H184         -19.8684    -1.7610    -2.6027 H       
 185 H185         -20.4264     1.2365    -2.4911 H       
 186 H186         -21.2383     0.0193    -1.4775 H       
 187 H187         -18.2197     0.4504    -1.5830 H       
 188 H188         -20.2780     1.2878     0.5096 H       
 189 H189         -18.5135     1.4667     0.6596 H       
 190 H190         -19.3991     2.3872    -0.5799 H       
 191 H191         -18.9355    -1.8468    -0.9837 H       
 192 H192         -18.2427    -1.0059     0.4238 H       
 193 H193         -20.0073    -1.1848     0.2738 H       
 194 H194         -22.5428    -1.4436    -2.5051 H       
 195 H195         -23.5803    -0.6355    -5.1125 H       
 196 H196         -23.6327    -3.5357    -4.1662 H       
 197 H197         -24.5859    -2.9000    -5.5284 H       
 198 H198         -22.4957    -2.2001    -6.6643 H       
 199 H199         -21.5426    -2.8358    -5.3021 H       
 200 H200         -22.4586    -5.1021    -5.7187 H       
 201 H201         -23.4117    -4.4664    -7.0809 H       
 202 H202         -20.7019    -3.7882    -7.4976 H       
 203 H203         -19.9973    -6.6735    -9.3369 H       
 204 H204         -22.8213    -6.6122    -7.3324 H       
 205 H205         -21.9269    -7.5543    -8.3978 H       
 206 H206         -26.1588    -1.4169    -5.0558 H       
 207 H207         -27.1687    -1.4390    -2.3158 H       
 208 H208         -27.6530     0.9023    -4.2112 H       
 209 H209         -28.5506     0.6238    -2.6996 H       
 210 H210         -26.4285     0.7251    -1.4208 H       
 211 H211         -25.5309     1.0036    -2.9324 H       
 212 H212         -26.8248     3.0836    -3.3175 H       
 213 H213         -27.7224     2.8050    -1.8059 H       
 214 H214         -25.6004     2.9064    -0.5272 H       
 215 H215         -24.7028     3.1849    -2.0388 H       
 216 H216         -25.2072     5.2489    -0.9100 H       
 217 H217         -26.0499     5.1848    -2.3423 H       
 218 H218         -29.8352    -1.1757    -2.6044 H       
 219 H219         -30.7075    -2.2727    -5.1663 H       
 220 H220         -30.8876    -3.8618    -2.5681 H       
 221 H221         -31.7481    -4.2791    -4.0693 H       
 222 H222         -29.5815    -4.4533    -5.2627 H       
 223 H223         -28.7210    -4.0361    -3.7615 H       
 224 H224         -29.6722    -6.0429    -2.6585 H       
 225 H225         -30.5327    -6.4602    -4.1597 H       
 226 H226         -27.7873    -6.1738    -4.7577 H       
 227 H227         -27.0597    -9.5506    -4.2363 H       
 228 H228         -29.9860    -8.2448    -2.9218 H       
 229 H229         -29.0600    -9.6393    -3.0650 H       
 230 H230         -33.3050    -2.8693    -4.7665 H       
 231 H231         -34.4628    -1.1208    -2.7344 H       
 232 H232         -34.7814    -0.5815    -5.7204 H       
 233 H233         -35.7670     0.1756    -4.4462 H       
 234 H234         -33.7159     1.1166    -3.4187 H       
 235 H235         -32.7302     0.3596    -4.6929 H       
 236 H236         -33.9461     1.6695    -6.4117 H       
 237 H237         -34.9318     2.4266    -5.1375 H       
 238 H238         -32.2072     2.8353    -4.5160 H       
 239 H239         -32.0206     5.8959    -6.1901 H       
 240 H240         -34.6291     3.7394    -6.9266 H       
 241 H241         -33.9522     5.2334    -7.2906 H       
 242 H242         -37.1017    -1.1496    -3.2801 H       
 243 H243         -37.8617    -3.6618    -4.5603 H       
 244 H244         -38.2248    -3.1831    -1.5690 H       
 245 H245         -39.0129    -4.4892    -2.4861 H       
 246 H246         -36.7899    -5.3638    -3.1509 H       
 247 H247         -36.0018    -4.0577    -2.2337 H       
 248 H248         -37.0640    -4.8802    -0.1495 H       
 249 H249         -37.8521    -6.1863    -1.0667 H       
 250 H250         -35.0717    -6.3150    -1.5455 H       
 251 H251         -36.4739    -7.8638     1.8652 H       
 252 H252         -33.8025    -7.9283    -0.3385 H       
 253 H253         -34.4038    -8.5705     1.0928 H       
 254 H254         -40.4833    -3.8951    -4.0945 H       
 255 H255         -41.7256    -1.3366    -3.4706 H       
 256 H256         -41.1446    -1.0453    -5.8607 H       
 257 H257         -41.9815    -2.5666    -6.2524 H       
 258 H258         -44.0898    -1.5753    -5.2733 H       
 259 H259         -42.4437     0.9939    -5.3153 H       
 260 H260         -44.1635     0.8466    -4.8808 H       
 261 H261         -42.9173     0.1142    -3.8421 H       
 262 H262         -43.6499    -1.5514    -7.7134 H       
 263 H263         -44.5298    -0.0888    -7.2086 H       
 264 H264         -42.7833    -0.0060    -7.5421 H       
 265 H265         -44.2270    -1.6242    -3.4625 H       
 266 H266         -45.1405    -4.3855    -3.7240 H       
 267 H267         -45.1564    -2.9108    -1.0531 H       
 268 H268         -46.0505    -4.4142    -1.3824 H       
 269 H269         -43.0328    -4.0902    -1.6945 H       
 270 H270         -44.6738    -5.4389     0.4976 H       
 271 H271         -42.8992    -5.4681     0.3627 H       
 272 H272         -43.7428    -3.9324     0.6761 H       
 273 H273         -44.8619    -6.5335    -1.7405 H       
 274 H274         -44.0648    -5.8067    -3.1564 H       
 275 H275         -43.0873    -6.5627    -1.8753 H       
 276 H276         -47.6927    -4.3095    -2.8622 H       
 277 H277         -48.8541    -1.6684    -3.3128 H       
 278 H278         -50.1856    -2.3542    -5.2493 H       
 279 H279         -48.4599    -2.5882    -5.6173 H       
 280 H280         -49.7581    -4.5140    -6.1757 H       
 281 H281         -51.9731    -3.2544    -2.2146 H       
 282 H282          18.5564    -5.9537    -2.6036 H       
 283 H283          18.7925    -5.4018    -4.2793 H       
 284 H284          19.6632    -4.6029    -2.9481 H       
 285 H285          17.5104    -3.7787    -2.0346 H       
 286 H286          17.7464    -3.2268    -3.7103 H       
 287 H287          16.3258    -5.0892    -4.5238 H       
 288 H288          16.0897    -5.6411    -2.8481 H       
 289 H289          15.0436    -3.4661    -2.2792 H       
 290 H290          15.2797    -2.9142    -3.9548 H       
 291 H291          13.8590    -4.7765    -4.7684 H       
 292 H292          13.6229    -5.3285    -3.0927 H       
 293 H293          12.5769    -3.1534    -2.5237 H       
 294 H294          12.8129    -2.6015    -4.1994 H       
 295 H295          11.3922    -4.4639    -5.0129 H       
 296 H296          11.1562    -5.0158    -3.3372 H       
 297 H297          10.1101    -2.8408    -2.7682 H       
 298 H298          10.3462    -2.2889    -4.4439 H       
 299 H299           8.9255    -4.1513    -5.2575 H       
 300 H300           8.6894    -4.7032    -3.5818 H       
 301 H301           7.6434    -2.5282    -3.0128 H       
 302 H302           7.8794    -1.9763    -4.6885 H       
 303 H303           6.4587    -3.8387    -5.5020 H       
 304 H304           6.2227    -4.3906    -3.8263 H       
 305 H305           5.1766    -2.2156    -3.2573 H       
 306 H306           5.4127    -1.6637    -4.9330 H       
 307 H307           3.9920    -3.5261    -5.7466 H       
 308 H308           3.7559    -4.0780    -4.0709 H       
 309 H309           2.7099    -1.9029    -3.5019 H       
 310 H310           2.9459    -1.3510    -5.1776 H       
 311 H311           1.2892    -3.7653    -4.3154 H       
 312 H312           1.5252    -3.2134    -5.9911 H       
@<TRIPOS>BOND
   1    1    2 2
   2    1    4 1
   3    1   12 am
   4    3  126 am
   5    3    4 1
   6    3  143 1
   7    4    5 1
   8    4  144 1
   9    5    6 1
  10    5  145 1
  11    5  146 1
  12    6    7 1
  13    6  147 1
  14    6  148 1
  15    7    8 2
  16    7    9 1
  17    9  149 1
  18   10   11 2
  19   10   13 1
  20   10   23 am
  21   12   13 1
  22   12  150 1
  23   13   14 1
  24   13  151 1
  25   14   15 1
  26   14  152 1
  27   14  153 1
  28   15   16 1
  29   15  154 1
  30   15  155 1
  31   16   17 1
  32   16  156 1
  33   16  157 1
  34   17   18 1
  35   17  158 1
  36   18   19 2
  37   18   20 1
  38   19  159 1
  39   20  160 1
  40   20  161 1
  41   21   22 2
  42   21   24 1
  43   21   31 am
  44   23   24 1
  45   23  162 1
  46   24   25 1
  47   24  163 1
  48   25   26 1
  49   25   28 1
  50   25  164 1
  51   26   27 1
  52   26  165 1
  53   26  166 1
  54   27  167 1
  55   27  168 1
  56   27  169 1
  57   28  170 1
  58   28  171 1
  59   28  172 1
  60   29   30 2
  61   29   32 1
  62   29   40 am
  63   31   32 1
  64   31  173 1
  65   32   33 1
  66   32  174 1
  67   33   34 1
  68   33  175 1
  69   33  176 1
  70   34   35 1
  71   34  177 1
  72   34  178 1
  73   35   36 2
  74   35   37 1
  75   37  179 1
  76   38   39 2
  77   38   41 1
  78   38   44 am
  79   40   41 1
  80   40  180 1
  81   41  181 1
  82   41  182 1
  83   42   43 2
  84   42   45 1
  85   42   52 am
  86   44   45 1
  87   44  183 1
  88   45   46 1
  89   45  184 1
  90   46   47 1
  91   46  185 1
  92   46  186 1
  93   47   48 1
  94   47   49 1
  95   47  187 1
  96   48  188 1
  97   48  189 1
  98   48  190 1
  99   49  191 1
 100   49  192 1
 101   49  193 1
 102   50   51 2
 103   50   53 1
 104   50   63 am
 105   52   53 1
 106   52  194 1
 107   53   54 1
 108   53  195 1
 109   54   55 1
 110   54  196 1
 111   54  197 1
 112   55   56 1
 113   55  198 1
 114   55  199 1
 115   56   57 1
 116   56  200 1
 117   56  201 1
 118   57   58 1
 119   57  202 1
 120   58   59 2
 121   58   60 1
 122   59  203 1
 123   60  204 1
 124   60  205 1
 125   61   62 2
 126   61   64 1
 127   61   72 am
 128   63   64 1
 129   63  206 1
 130   64   65 1
 131   64  207 1
 132   65   66 1
 133   65  208 1
 134   65  209 1
 135   66   67 1
 136   66  210 1
 137   66  211 1
 138   67   68 1
 139   67  212 1
 140   67  213 1
 141   68   69 1
 142   68  214 1
 143   68  215 1
 144   69  216 1
 145   69  217 1
 146   70   71 2
 147   70   73 1
 148   70   83 am
 149   72   73 1
 150   72  218 1
 151   73   74 1
 152   73  219 1
 153   74   75 1
 154   74  220 1
 155   74  221 1
 156   75   76 1
 157   75  222 1
 158   75  223 1
 159   76   77 1
 160   76  224 1
 161   76  225 1
 162   77   78 1
 163   77  226 1
 164   78   79 2
 165   78   80 1
 166   79  227 1
 167   80  228 1
 168   80  229 1
 169   81   82 2
 170   81   84 1
 171   81   94 am
 172   83   84 1
 173   83  230 1
 174   84   85 1
 175   84  231 1
 176   85   86 1
 177   85  232 1
 178   85  233 1
 179   86   87 1
 180   86  234 1
 181   86  235 1
 182   87   88 1
 183   87  236 1
 184   87  237 1
 185   88   89 1
 186   88  238 1
 187   89   90 2
 188   89   91 1
 189   90  239 1
 190   91  240 1
 191   91  241 1
 192   92   93 2
 193   92   95 1
 194   92  105 am
 195   94   95 1
 196   94  242 1
 197   95   96 1
 198   95  243 1
 199   96   97 1
 200   96  244 1
 201   96  245 1
 202   97   98 1
 203   97  246 1
 204   97  247 1
 205   98   99 1
 206   98  248 1
 207   98  249 1
 208   99  100 1
 209   99  250 1
 210  100  101 2
 211  100  102 1
 212  101  251 1
 213  102  252 1
 214  102  253 1
 215  103  104 2
 216  103  106 1
 217  103  113 am
 218  105  106 1
 219  105  254 1
 220  106  107 1
 221  106  255 1
 222  107  108 1
 223  107  256 1
 224  107  257 1
 225  108  109 1
 226  108  110 1
 227  108  258 1
 228  109  259 1
 229  109  260 1
 230  109  261 1
 231  110  262 1
 232  110  263 1
 233  110  264 1
 234  111  112 2
 235  111  114 1
 236  111  121 am
 237  113  114 1
 238  113  265 1
 239  114  115 1
 240  114  266 1
 241  115  116 1
 242  115  267 1
 243  115  268 1
 244  116  117 1
 245  116  118 1
 246  116  269 1
 247  117  270 1
 248  117  271 1
 249  117  272 1
 250  118  273 1
 251  118  274 1
 252  118  275 1
 253  119  120 2
 254  119  122 1
 255  119  125 1
 256  121  122 1
 257  121  276 1
 258  122  123 1
 259  122  277 1
 260  123  124 1
 261  123  278 1
 262  123  279 1
 263  124  280 1
 264  125  281 1
 265  126  127 2
 266  126  142 1
 267  128  129 1
 268  128  282 1
 269  128  283 1
 270  128  284 1
 271  129  130 1
 272  129  285 1
 273  129  286 1
 274  130  131 1
 275  130  287 1
 276  130  288 1
 277  131  132 1
 278  131  289 1
 279  131  290 1
 280  132  133 1
 281  132  291 1
 282  132  292 1
 283  133  134 1
 284  133  293 1
 285  133  294 1
 286  134  135 1
 287  134  295 1
 288  134  296 1
 289  135  136 1
 290  135  297 1
 291  135  298 1
 292  136  137 1
 293  136  299 1
 294  136  300 1
 295  137  138 1
 296  137  301 1
 297  137  302 1
 298  138  139 1
 299  138  303 1
 300  138  304 1
 301  139  140 1
 302  139  305 1
 303  139  306 1
 304  140  141 1
 305  140  307 1
 306  140  308 1
 307  141  142 1
 308  141  309 1
 309  141  310 1
 310  142  311 1
 311  142  312 1

#	End of record

