#	Name: ASD01948060
#	Creating user name:	WinNT
#	Creation time:	15. 06. 2019 20:13

#	Modifying user name:	WinNT
#	Modification time:	15. 06. 2019 20:13

#	Program:	/corina/corina34_cracker 3.40 0067  02.08.2006

@<TRIPOS>MOLECULE
ASD01948060
  54   57    0    0    0
SMALL
NO_CHARGES


@<TRIPOS>ATOM
   1 C1            -1.8008     1.3447     0.7696 C.3     
   2 C2            -2.0948    -0.1395     0.5422 C.3     
   3 C3            -0.6477     0.3546     0.5936 C.3     
   4 S4            -2.1417     2.4853    -0.5991 S.o2    
   5 O5            -1.3144     2.1865    -1.7151 O.2     
   6 O6            -3.5416     2.6734    -0.7545 O.2     
   7 N7            -1.5897     3.9514    -0.0624 N.am    
   8 C8             0.6869     3.1961    -0.2664 C.2     
   9 C9            -0.2073     4.1615     0.1168 C.2     
  10 C10            0.2519     5.3604     0.6875 C.2     
  11 C11            1.6179     5.5479     0.8592 C.2     
  12 C12            2.4939     4.5430     0.4544 C.2     
  13 N13            2.0261     3.4096    -0.0993 N.am    
  14 O14            0.4399     1.9774    -0.8156 O.3     
  15 C15            2.7427     2.2295    -0.6236 C.3     
  16 C16            1.6468     1.5165    -1.4484 C.3     
  17 O17            3.6979     4.6926     0.6032 O.2     
  18 C18            2.1440     6.8194     1.4736 C.3     
  19 N19           -0.6462     6.3437     1.0740 N.pl3   
  20 C20           -1.5129     6.9087     0.1322 C.ar    
  21 C21           -2.4098     7.9004     0.5167 C.ar    
  22 C22           -3.2645     8.4560    -0.4170 C.ar    
  23 C23           -3.2280     8.0263    -1.7319 C.ar    
  24 C24           -2.3376     7.0404    -2.1160 C.ar    
  25 C25           -1.4761     6.4851    -1.1891 C.ar    
  26 I26           -4.5250     8.8709    -3.1438 I       
  27 F27           -2.4456     8.3194     1.8006 F       
  28 C28           -2.0422     1.9058     2.1723 C.3     
  29 C29           -1.5603     3.3567     2.2311 C.3     
  30 C30           -1.6722     3.8736     3.6668 C.3     
  31 O31           -1.2221     5.2287     3.7217 O.3     
  32 H32           -2.4602    -0.7162     1.3919 H       
  33 H33           -2.4930    -0.4306    -0.4298 H       
  34 H34           -0.0939     0.3887    -0.3447 H       
  35 H35           -0.0610     0.1031     1.4771 H       
  36 H36           -2.2176     4.6657     0.1286 H       
  37 H37            3.5728     2.5322    -1.2618 H       
  38 H38            3.0902     1.5938     0.1907 H       
  39 H39            1.7403     0.4338    -1.3635 H       
  40 H40            1.6815     1.8293    -2.4919 H       
  41 H41            2.1288     6.7314     2.5600 H       
  42 H42            3.1668     6.9893     1.1372 H       
  43 H43            1.5171     7.6571     1.1681 H       
  44 H44           -0.6735     6.6399     1.9972 H       
  45 H45           -3.9615     9.2256    -0.1200 H       
  46 H46           -2.3123     6.7070    -3.1429 H       
  47 H47           -0.7777     5.7189    -1.4917 H       
  48 H48           -3.1073     1.8672     2.4007 H       
  49 H49           -1.4925     1.3105     2.9014 H       
  50 H50           -0.5210     3.4078     1.9066 H       
  51 H51           -2.1765     3.9712     1.5747 H       
  52 H52           -2.7116     3.8225     3.9913 H       
  53 H53           -1.0560     3.2592     4.3232 H       
  54 H54           -1.2652     5.6220     4.6040 H       
@<TRIPOS>BOND
   1    1    2 1
   2    1    3 1
   3    1    4 1
   4    1   28 1
   5    2    3 1
   6    2   32 1
   7    2   33 1
   8    3   34 1
   9    3   35 1
  10    4    5 2
  11    4    6 2
  12    4    7 am
  13    7    9 1
  14    7   36 1
  15    8    9 2
  16    8   13 1
  17    8   14 1
  18    9   10 1
  19   10   11 2
  20   10   19 1
  21   11   12 1
  22   11   18 1
  23   12   13 am
  24   12   17 2
  25   13   15 1
  26   14   16 1
  27   15   16 1
  28   15   37 1
  29   15   38 1
  30   16   39 1
  31   16   40 1
  32   18   41 1
  33   18   42 1
  34   18   43 1
  35   19   20 1
  36   19   44 1
  37   20   21 ar
  38   20   25 ar
  39   21   22 ar
  40   21   27 1
  41   22   23 ar
  42   22   45 1
  43   23   24 ar
  44   23   26 1
  45   24   25 ar
  46   24   46 1
  47   25   47 1
  48   28   29 1
  49   28   48 1
  50   28   49 1
  51   29   30 1
  52   29   50 1
  53   29   51 1
  54   30   31 1
  55   30   52 1
  56   30   53 1
  57   31   54 1

#	End of record

