#	Name: ASD00731020
#	Creating user name:	WinNT
#	Creation time:	15. 06. 2019 18:37

#	Modifying user name:	WinNT
#	Modification time:	15. 06. 2019 18:37

#	Program:	/corina/corina34_cracker 3.40 0067  02.08.2006

@<TRIPOS>MOLECULE
ASD00731020
 295  298    0    0    0
SMALL
NO_CHARGES


@<TRIPOS>ATOM
   1 C1            -3.3521    -9.4745    -4.9982 C.2     
   2 O2            -3.5560   -10.3866    -5.7711 O.2     
   3 N3            -1.0323   -10.1814    -5.0876 N.am    
   4 C4            -1.9556    -9.2087    -4.4981 C.3     
   5 C5            -6.5356    -7.6779    -5.0145 C.2     
   6 O6            -6.0267    -6.6591    -4.5974 O.2     
   7 N7            -4.3734    -8.6951    -4.5910 N.am    
   8 C8            -5.7300    -8.9497    -5.0819 C.3     
   9 C9            -6.3939   -10.0206    -4.2139 C.3     
  10 O10           -6.5602    -9.5211    -2.8854 O.3     
  11 C11          -10.0003    -6.6982    -5.8571 C.2     
  12 O12          -10.3102    -7.8083    -6.2346 O.2     
  13 N13           -7.8217    -7.6726    -5.4177 N.am    
  14 C14           -8.6048    -6.4363    -5.3521 C.3     
  15 C15          -12.8591    -4.6685    -6.8918 C.2     
  16 O16          -12.2821    -3.6170    -6.7121 O.2     
  17 N17          -10.9040    -5.6988    -5.8893 N.am    
  18 C18          -12.2606    -5.9534    -6.3802 C.3     
  19 C19          -13.1219    -6.4985    -5.2392 C.3     
  20 C20          -12.5232    -7.8114    -4.7305 C.3     
  21 O21          -13.1585    -5.5472    -4.1736 O.3     
  22 C22          -16.1514    -3.6329    -8.0967 C.2     
  23 O23          -16.6387    -4.7197    -7.8680 O.2     
  24 N24          -14.0356    -4.6878    -7.5490 N.am    
  25 C25          -14.6639    -3.4309    -7.9634 C.3     
  26 C26          -14.0861    -2.9918    -9.3103 C.3     
  27 C27          -12.6225    -2.6715    -9.1486 C.ar    
  28 C28          -11.6753    -3.6629    -9.3269 C.ar    
  29 C29          -10.3330    -3.3719    -9.1788 C.ar    
  30 C30           -9.9356    -2.0837    -8.8514 C.ar    
  31 O31           -8.6157    -1.7949    -8.7056 O.3     
  32 C32          -10.8879    -1.0907    -8.6735 C.ar    
  33 C33          -12.2287    -1.3855    -8.8279 C.ar    
  34 C34          -18.9458    -1.7903    -9.5660 C.2     
  35 O35          -18.2094    -0.9846   -10.0945 O.2     
  36 N36          -16.9401    -2.6058    -8.4700 N.am    
  37 C37          -18.3861    -2.8022    -8.5996 C.3     
  38 C38          -19.0496    -2.6231    -7.2326 C.3     
  39 O39          -18.8891    -1.2711    -6.7986 O.3     
  40 C40          -22.2670    -0.5665   -10.4798 C.2     
  41 O41          -22.8045    -1.1801    -9.5823 O.2     
  42 N42          -20.2648    -1.7809    -9.8431 N.am    
  43 C43          -20.8089    -0.7973   -10.7826 C.3     
  44 C44          -20.6617    -1.3219   -12.2123 C.3     
  45 C45          -19.1787    -1.5186   -12.5332 C.3     
  46 O46          -21.3452    -2.5709   -12.3341 O.3     
  47 C47          -25.1382     0.4672   -12.2941 C.2     
  48 O48          -24.5163     0.3395   -13.3274 O.2     
  49 N49          -22.9738     0.3218   -11.2064 N.am    
  50 C50          -24.4116     0.4793   -10.9739 C.3     
  51 C51          -24.6704     1.8084   -10.2615 C.3     
  52 C52          -23.9950     1.7961    -8.9144 C.2     
  53 O53          -23.4362     0.7970    -8.5278 O.2     
  54 O54          -24.0141     2.8951    -8.1440 O.3     
  55 C55          -28.4896     1.3293   -13.4724 C.2     
  56 O56          -28.7984     1.8202   -12.4073 O.2     
  57 N57          -26.4792     0.5983   -12.3265 N.am    
  58 C58          -27.1856     0.5865   -13.6099 C.3     
  59 C59          -27.4637    -0.8594   -14.0257 C.3     
  60 C60          -26.1388    -1.5790   -14.2863 C.3     
  61 C61          -26.4170    -3.0249   -14.7021 C.3     
  62 N62          -25.1484    -3.7139   -14.9516 N.pl3   
  63 C63          -25.1472    -5.0326   -15.3402 C.2     
  64 N64          -26.2748    -5.6699   -15.4867 N.2     
  65 N65          -23.9567    -5.6792   -15.5743 N.pl3   
  66 C66          -31.5849     1.4946   -15.3834 C.2     
  67 O67          -31.1588     0.9377   -16.3730 O.2     
  68 N68          -29.3125     1.4481   -14.5331 N.am    
  69 C69          -30.6278     2.0732   -14.3734 C.3     
  70 C70          -30.5053     3.5824   -14.5930 C.3     
  71 C71          -31.8747     4.2381   -14.4042 C.3     
  72 C72          -32.3283     4.0630   -12.9535 C.3     
  73 C73          -31.7756     5.7294   -14.7311 C.3     
  74 C74          -35.1703     1.6436   -16.0803 C.2     
  75 O75          -35.3252     2.6129   -15.3680 O.2     
  76 N76          -32.9144     1.5961   -15.1871 N.am    
  77 C77          -33.8432     0.9301   -16.1037 C.3     
  78 C78          -34.0375    -0.5231   -15.6661 C.3     
  79 C79          -32.7155    -1.2798   -15.8088 C.3     
  80 C80          -32.9098    -2.7330   -15.3712 C.3     
  81 N81          -31.6440    -3.4576   -15.5079 N.pl3   
  82 C82          -31.5741    -4.7888   -15.1715 C.2     
  83 N83          -30.4479    -5.4335   -15.2931 N.2     
  84 N84          -32.6923    -5.4400   -14.7069 N.pl3   
  85 C85          -38.5668     0.9422   -17.2357 C.2     
  86 O86          -38.2939    -0.2054   -17.5175 O.2     
  87 N87          -36.1852     1.2044   -16.8508 N.am    
  88 C88          -37.4754     1.8980   -16.8280 C.3     
  89 C89          -37.4385     3.0760   -17.8036 C.3     
  90 C90          -36.4162     4.1067   -17.3202 C.3     
  91 C91          -36.3793     5.2847   -18.2958 C.3     
  92 C92          -35.3571     6.3154   -17.8124 C.3     
  93 N93          -35.3216     7.4465   -18.7491 N.3     
  94 C94          -42.0690     1.2092   -18.2490 C.2     
  95 O95          -42.0158     2.4190   -18.3146 O.2     
  96 N96          -39.8463     1.3626   -17.2871 N.am    
  97 C97          -40.9073     0.4335   -17.6834 C.3     
  98 C98          -41.3716    -0.3617   -16.4615 C.3     
  99 C99          -40.2434    -1.2312   -15.9696 C.2     
 100 C100         -40.0325    -2.5191   -16.2838 C.2     
 101 N101         -38.9104    -2.9768   -15.6484 N.pl3   
 102 C102         -38.3577    -1.9688   -14.8904 C.ar    
 103 C103         -37.2398    -1.8933   -14.0664 C.ar    
 104 C104         -36.9399    -0.7104   -13.4266 C.ar    
 105 C105         -37.7428     0.4090   -13.5956 C.ar    
 106 C106         -38.8462     0.3569   -14.4002 C.ar    
 107 C107         -39.1651    -0.8295   -15.0630 C.ar    
 108 C108         -45.5620     0.5107   -19.0702 C.2     
 109 O109         -45.5245    -0.5829   -18.5472 O.2     
 110 N110         -43.1669     0.5584   -18.6820 N.am    
 111 C111         -44.2962     1.3125   -19.2318 C.3     
 112 C112         -44.0519     1.5860   -20.7173 C.3     
 113 C113         -42.8378     2.5036   -20.8739 C.3     
 114 S114         -42.5482     2.8279   -22.6351 S.3     
 115 C115         -41.0950     3.9136   -22.6165 C.3     
 116 C116         -48.1067    -0.7259   -20.5065 C.2     
 117 O117         -47.2654    -0.7531   -21.3733 O.2     
 118 N118         -46.7357     1.0090   -19.5068 N.am    
 119 C119         -47.9661     0.2296   -19.3497 C.3     
 120 C120         -49.1686     1.1752   -19.3203 C.3     
 121 C121         -49.0907     2.0488   -18.0948 C.ar    
 122 C122         -48.4310     3.2623   -18.1518 C.ar    
 123 C123         -48.3596     4.0636   -17.0277 C.ar    
 124 C124         -48.9483     3.6517   -15.8467 C.ar    
 125 C125         -49.6088     2.4387   -15.7900 C.ar    
 126 C126         -49.6840     1.6394   -16.9153 C.ar    
 127 O127         -49.1666    -1.5468   -20.5740 O.3     
 128 C128           0.2796   -10.1365    -4.7819 C.2     
 129 O129           0.6957    -9.2908    -4.0186 O.2     
 130 C130          17.9037   -16.3593    -6.1440 C.3     
 131 C131          16.9395   -15.3434    -5.5282 C.3     
 132 C132          15.5216   -15.6133    -6.0360 C.3     
 133 C133          14.5574   -14.5974    -5.4203 C.3     
 134 C134          13.1396   -14.8672    -5.9281 C.3     
 135 C135          12.1754   -13.8513    -5.3123 C.3     
 136 C136          10.7575   -14.1212    -5.8201 C.3     
 137 C137           9.7933   -13.1053    -5.2044 C.3     
 138 C138           8.3755   -13.3752    -5.7122 C.3     
 139 C139           7.4112   -12.3593    -5.0965 C.3     
 140 C140           5.9934   -12.6291    -5.6042 C.3     
 141 C141           5.0292   -11.6133    -4.9885 C.3     
 142 C142           3.6114   -11.8831    -5.4963 C.3     
 143 C143           2.6471   -10.8672    -4.8806 C.3     
 144 C144           1.2293   -11.1371    -5.3884 C.3     
 145 H145          -1.3651   -10.8578    -5.6981 H       
 146 H146          -1.6530    -8.2012    -4.7836 H       
 147 H147          -1.9350    -9.3002    -3.4121 H       
 148 H148          -4.2103    -7.9656    -3.9729 H       
 149 H149          -5.6838    -9.2962    -6.1144 H       
 150 H150          -7.3684   -10.2740    -4.6314 H       
 151 H151          -5.7656   -10.9110    -4.1914 H       
 152 H152          -6.9762   -10.1486    -2.2785 H       
 153 H153          -8.2287    -8.4875    -5.7512 H       
 154 H154          -8.1319    -5.6734    -5.9705 H       
 155 H155          -8.6511    -6.0898    -4.3197 H       
 156 H156         -10.6562    -4.8109    -5.5874 H       
 157 H157         -12.2234    -6.6840    -7.1883 H       
 158 H158         -14.1343    -6.6772    -5.6016 H       
 159 H159         -11.5520    -7.6157    -4.2759 H       
 160 H160         -13.1896    -8.2513    -3.9886 H       
 161 H161         -12.4013    -8.5024    -5.5646 H       
 162 H162         -13.5273    -4.6892    -4.4247 H       
 163 H163         -14.4664    -5.5339    -7.7476 H       
 164 H164         -14.4672    -2.6626    -7.2157 H       
 165 H165         -14.2040    -3.7965   -10.0360 H       
 166 H166         -14.6153    -2.1058    -9.6612 H       
 167 H167         -11.9851    -4.6656    -9.5817 H       
 168 H168          -9.5935    -4.1468    -9.3174 H       
 169 H169          -8.1832    -1.5087    -9.5218 H       
 170 H170         -10.5812    -0.0871    -8.4183 H       
 171 H171         -12.9702    -0.6118    -8.6938 H       
 172 H172         -16.5504    -1.7366    -8.6529 H       
 173 H173         -18.5844    -3.8076    -8.9708 H       
 174 H174         -20.1116    -2.8559    -7.3109 H       
 175 H175         -18.5828    -3.2941    -6.5115 H       
 176 H176         -19.2864    -1.0849    -5.9369 H       
 177 H177         -20.8538    -2.4253    -9.4204 H       
 178 H178         -20.2640     0.1414   -10.6820 H       
 179 H179         -21.0919    -0.6027   -12.9093 H       
 180 H180         -18.7706    -2.3045   -11.8977 H       
 181 H181         -19.0680    -1.8033   -13.5795 H       
 182 H182         -18.6410    -0.5881   -12.3509 H       
 183 H183         -22.2921    -2.5212   -12.1445 H       
 184 H184         -22.5304     0.8567   -11.8832 H       
 185 H185         -24.7715    -0.3415   -10.3536 H       
 186 H186         -24.2703     2.6260   -10.8611 H       
 187 H187         -25.7435     1.9465   -10.1287 H       
 188 H188         -23.5674     2.8391    -7.2882 H       
 189 H189         -26.9766     0.7004   -11.5000 H       
 190 H190         -26.5698     1.0705   -14.3680 H       
 191 H191         -28.0034    -1.3695   -13.2279 H       
 192 H192         -28.0660    -0.8668   -14.9342 H       
 193 H193         -25.5991    -1.0689   -15.0841 H       
 194 H194         -25.5366    -1.5716   -13.3778 H       
 195 H195         -26.9567    -3.5350   -13.9043 H       
 196 H196         -27.0192    -3.0322   -15.6106 H       
 197 H197         -24.3093    -3.2396   -14.8426 H       
 198 H198         -26.2739    -6.6003   -15.7608 H       
 199 H199         -23.1176    -5.2050   -15.4653 H       
 200 H200         -23.9559    -6.6097   -15.8485 H       
 201 H201         -29.0339     1.1198   -15.4023 H       
 202 H202         -31.0014     1.8816   -13.3675 H       
 203 H203         -29.8009     3.9984   -13.8728 H       
 204 H204         -30.1469     3.7745   -15.6043 H       
 205 H205         -32.5979     3.7674   -15.0702 H       
 206 H206         -31.5551     4.4387   -12.2832 H       
 207 H207         -33.2513     4.6197   -12.7917 H       
 208 H208         -32.5015     3.0059   -12.7520 H       
 209 H209         -31.4525     5.8542   -15.7646 H       
 210 H210         -32.7512     6.1965   -14.5965 H       
 211 H211         -31.0524     6.2001   -14.0650 H       
 212 H212         -33.2564     2.1100   -14.4389 H       
 213 H213         -33.4357     0.9538   -17.1144 H       
 214 H214         -34.3605    -0.5490   -14.6254 H       
 215 H215         -34.7949    -0.9932   -16.2934 H       
 216 H216         -32.3925    -1.2539   -16.8496 H       
 217 H217         -31.9581    -0.8097   -15.1816 H       
 218 H218         -33.2328    -2.7589   -14.3305 H       
 219 H219         -33.6672    -3.2031   -15.9985 H       
 220 H220         -30.8550    -2.9982   -15.8357 H       
 221 H221         -30.3986    -6.3728   -15.0558 H       
 222 H222         -33.5304    -4.9602   -14.6164 H       
 223 H223         -32.6430    -6.3793   -14.4696 H       
 224 H224         -36.0613     0.4292   -17.4205 H       
 225 H225         -37.6723     2.2662   -15.8211 H       
 226 H226         -37.1543     2.7192   -18.7936 H       
 227 H227         -38.4245     3.5379   -17.8531 H       
 228 H228         -36.7004     4.4636   -16.3303 H       
 229 H229         -35.4302     3.6449   -17.2707 H       
 230 H230         -36.0951     4.9279   -19.2858 H       
 231 H231         -37.3654     5.7466   -18.3453 H       
 232 H232         -35.6412     6.6723   -16.8225 H       
 233 H233         -34.3710     5.8536   -17.7629 H       
 234 H234         -36.2388     7.8516   -18.8618 H       
 235 H235         -34.6534     8.1415   -18.4517 H       
 236 H236         -40.0647     2.2805   -17.0617 H       
 237 H237         -40.5258    -0.2525   -18.4397 H       
 238 H238         -41.6701     0.3275   -15.6715 H       
 239 H239         -42.2199    -0.9883   -16.7367 H       
 240 H240         -40.6563    -3.1072   -16.9406 H       
 241 H241         -38.5570    -3.8772   -15.7210 H       
 242 H242         -36.6091    -2.7591   -13.9282 H       
 243 H243         -36.0716    -0.6539   -12.7869 H       
 244 H244         -37.4937     1.3286   -13.0868 H       
 245 H245         -39.4665     1.2319   -14.5266 H       
 246 H246         -43.2095    -0.4093   -18.6295 H       
 247 H247         -44.3949     2.2586   -18.6996 H       
 248 H248         -43.8650     0.6447   -21.2341 H       
 249 H249         -44.9298     2.0683   -21.1470 H       
 250 H250         -43.0247     3.4450   -20.3571 H       
 251 H251         -41.9599     2.0213   -20.4441 H       
 252 H252         -41.3256     4.8196   -22.0561 H       
 253 H253         -40.2608     3.3959   -22.1431 H       
 254 H254         -40.8257     4.1776   -23.6392 H       
 255 H255         -46.7657     1.8837   -19.9251 H       
 256 H256         -47.9233    -0.3328   -18.4170 H       
 257 H257         -49.1611     1.8003   -20.2132 H       
 258 H258         -50.0889     0.5919   -19.2928 H       
 259 H259         -47.9711     3.5841   -19.0744 H       
 260 H260         -47.8435     5.0113   -17.0720 H       
 261 H261         -48.8919     4.2775   -14.9682 H       
 262 H262         -50.0685     2.1168   -14.8672 H       
 263 H263         -50.2032     0.6933   -16.8720 H       
 264 H264         -49.2132    -2.1419   -21.3347 H       
 265 H265          17.6011   -17.3668    -5.8584 H       
 266 H266          17.8831   -16.2678    -7.2299 H       
 267 H267          18.9138   -16.1670    -5.7822 H       
 268 H268          16.9600   -15.4349    -4.4423 H       
 269 H269          17.2421   -14.3359    -5.8138 H       
 270 H270          15.5011   -15.5218    -7.1220 H       
 271 H271          15.2191   -16.6207    -5.7505 H       
 272 H272          14.5780   -14.6889    -4.3343 H       
 273 H273          14.8600   -13.5899    -5.7058 H       
 274 H274          13.1190   -14.7757    -7.0140 H       
 275 H275          12.8370   -15.8747    -5.6425 H       
 276 H276          12.1959   -13.9428    -4.2264 H       
 277 H277          12.4779   -12.8439    -5.5979 H       
 278 H278          10.7370   -14.0297    -6.9061 H       
 279 H279          10.4549   -15.1287    -5.5346 H       
 280 H280           9.8139   -13.1968    -4.1184 H       
 281 H281          10.0959   -12.0978    -5.4899 H       
 282 H282           8.3549   -13.2837    -6.7981 H       
 283 H283           8.0729   -14.3827    -5.4267 H       
 284 H284           7.4318   -12.4508    -4.0105 H       
 285 H285           7.7138   -11.3518    -5.3820 H       
 286 H286           5.9729   -12.5377    -6.6902 H       
 287 H287           5.6908   -13.6366    -5.3187 H       
 288 H288           5.0497   -11.7048    -3.9025 H       
 289 H289           5.3318   -10.6058    -5.2740 H       
 290 H290           3.5908   -11.7916    -6.5823 H       
 291 H291           3.3088   -12.8906    -5.2108 H       
 292 H292           2.6677   -10.9587    -3.7946 H       
 293 H293           2.9497    -9.8598    -5.1661 H       
 294 H294           0.9267   -12.1446    -5.1028 H       
 295 H295           1.2088   -11.0456    -6.4743 H       
@<TRIPOS>BOND
   1    1    2 2
   2    1    4 1
   3    1    7 am
   4    3    4 1
   5    3  128 am
   6    3  145 1
   7    4  146 1
   8    4  147 1
   9    5    6 2
  10    5    8 1
  11    5   13 am
  12    7    8 1
  13    7  148 1
  14    8    9 1
  15    8  149 1
  16    9   10 1
  17    9  150 1
  18    9  151 1
  19   10  152 1
  20   11   12 2
  21   11   14 1
  22   11   17 am
  23   13   14 1
  24   13  153 1
  25   14  154 1
  26   14  155 1
  27   15   16 2
  28   15   18 1
  29   15   24 am
  30   17   18 1
  31   17  156 1
  32   18   19 1
  33   18  157 1
  34   19   20 1
  35   19   21 1
  36   19  158 1
  37   20  159 1
  38   20  160 1
  39   20  161 1
  40   21  162 1
  41   22   23 2
  42   22   25 1
  43   22   36 am
  44   24   25 1
  45   24  163 1
  46   25   26 1
  47   25  164 1
  48   26   27 1
  49   26  165 1
  50   26  166 1
  51   27   28 ar
  52   27   33 ar
  53   28   29 ar
  54   28  167 1
  55   29   30 ar
  56   29  168 1
  57   30   31 1
  58   30   32 ar
  59   31  169 1
  60   32   33 ar
  61   32  170 1
  62   33  171 1
  63   34   35 2
  64   34   37 1
  65   34   42 am
  66   36   37 1
  67   36  172 1
  68   37   38 1
  69   37  173 1
  70   38   39 1
  71   38  174 1
  72   38  175 1
  73   39  176 1
  74   40   41 2
  75   40   43 1
  76   40   49 am
  77   42   43 1
  78   42  177 1
  79   43   44 1
  80   43  178 1
  81   44   45 1
  82   44   46 1
  83   44  179 1
  84   45  180 1
  85   45  181 1
  86   45  182 1
  87   46  183 1
  88   47   48 2
  89   47   50 1
  90   47   57 am
  91   49   50 1
  92   49  184 1
  93   50   51 1
  94   50  185 1
  95   51   52 1
  96   51  186 1
  97   51  187 1
  98   52   53 2
  99   52   54 1
 100   54  188 1
 101   55   56 2
 102   55   58 1
 103   55   68 am
 104   57   58 1
 105   57  189 1
 106   58   59 1
 107   58  190 1
 108   59   60 1
 109   59  191 1
 110   59  192 1
 111   60   61 1
 112   60  193 1
 113   60  194 1
 114   61   62 1
 115   61  195 1
 116   61  196 1
 117   62   63 1
 118   62  197 1
 119   63   64 2
 120   63   65 1
 121   64  198 1
 122   65  199 1
 123   65  200 1
 124   66   67 2
 125   66   69 1
 126   66   76 am
 127   68   69 1
 128   68  201 1
 129   69   70 1
 130   69  202 1
 131   70   71 1
 132   70  203 1
 133   70  204 1
 134   71   72 1
 135   71   73 1
 136   71  205 1
 137   72  206 1
 138   72  207 1
 139   72  208 1
 140   73  209 1
 141   73  210 1
 142   73  211 1
 143   74   75 2
 144   74   77 1
 145   74   87 am
 146   76   77 1
 147   76  212 1
 148   77   78 1
 149   77  213 1
 150   78   79 1
 151   78  214 1
 152   78  215 1
 153   79   80 1
 154   79  216 1
 155   79  217 1
 156   80   81 1
 157   80  218 1
 158   80  219 1
 159   81   82 1
 160   81  220 1
 161   82   83 2
 162   82   84 1
 163   83  221 1
 164   84  222 1
 165   84  223 1
 166   85   86 2
 167   85   88 1
 168   85   96 am
 169   87   88 1
 170   87  224 1
 171   88   89 1
 172   88  225 1
 173   89   90 1
 174   89  226 1
 175   89  227 1
 176   90   91 1
 177   90  228 1
 178   90  229 1
 179   91   92 1
 180   91  230 1
 181   91  231 1
 182   92   93 1
 183   92  232 1
 184   92  233 1
 185   93  234 1
 186   93  235 1
 187   94   95 2
 188   94   97 1
 189   94  110 am
 190   96   97 1
 191   96  236 1
 192   97   98 1
 193   97  237 1
 194   98   99 1
 195   98  238 1
 196   98  239 1
 197   99  100 2
 198   99  107 1
 199  100  101 1
 200  100  240 1
 201  101  102 1
 202  101  241 1
 203  102  103 ar
 204  102  107 ar
 205  103  104 ar
 206  103  242 1
 207  104  105 ar
 208  104  243 1
 209  105  106 ar
 210  105  244 1
 211  106  107 ar
 212  106  245 1
 213  108  109 2
 214  108  111 1
 215  108  118 am
 216  110  111 1
 217  110  246 1
 218  111  112 1
 219  111  247 1
 220  112  113 1
 221  112  248 1
 222  112  249 1
 223  113  114 1
 224  113  250 1
 225  113  251 1
 226  114  115 1
 227  115  252 1
 228  115  253 1
 229  115  254 1
 230  116  117 2
 231  116  119 1
 232  116  127 1
 233  118  119 1
 234  118  255 1
 235  119  120 1
 236  119  256 1
 237  120  121 1
 238  120  257 1
 239  120  258 1
 240  121  122 ar
 241  121  126 ar
 242  122  123 ar
 243  122  259 1
 244  123  124 ar
 245  123  260 1
 246  124  125 ar
 247  124  261 1
 248  125  126 ar
 249  125  262 1
 250  126  263 1
 251  127  264 1
 252  128  129 2
 253  128  144 1
 254  130  131 1
 255  130  265 1
 256  130  266 1
 257  130  267 1
 258  131  132 1
 259  131  268 1
 260  131  269 1
 261  132  133 1
 262  132  270 1
 263  132  271 1
 264  133  134 1
 265  133  272 1
 266  133  273 1
 267  134  135 1
 268  134  274 1
 269  134  275 1
 270  135  136 1
 271  135  276 1
 272  135  277 1
 273  136  137 1
 274  136  278 1
 275  136  279 1
 276  137  138 1
 277  137  280 1
 278  137  281 1
 279  138  139 1
 280  138  282 1
 281  138  283 1
 282  139  140 1
 283  139  284 1
 284  139  285 1
 285  140  141 1
 286  140  286 1
 287  140  287 1
 288  141  142 1
 289  141  288 1
 290  141  289 1
 291  142  143 1
 292  142  290 1
 293  142  291 1
 294  143  144 1
 295  143  292 1
 296  143  293 1
 297  144  294 1
 298  144  295 1

#	End of record

