#	Name: ASD05313241
#	Creating user name:	WinNT
#	Creation time:	15. 06. 2019 20:59

#	Modifying user name:	WinNT
#	Modification time:	15. 06. 2019 20:59

#	Program:	/corina/corina34_cracker 3.40 0067  02.08.2006

@<TRIPOS>MOLECULE
ASD05313241
  33   35    0    0    0
SMALL
NO_CHARGES


@<TRIPOS>ATOM
   1 C1            -0.0737     0.8179     1.0262 C.2     
   2 C2             0.1132    -0.6201     0.5973 C.3     
   3 N3             0.9279     1.7300     1.0527 N.pl3   
   4 N4             1.4556    -0.7207    -0.0044 N.am    
   5 C5             2.5697    -0.0400     0.6729 C.3     
   6 C6             2.3158     1.4716     0.6636 C.3     
   7 N7            -1.1709     1.3884     1.4266 N.2     
   8 C8            -0.9172     2.6739     1.7240 C.2     
   9 C9             0.3936     2.9049     1.4977 C.2     
  10 C10            1.6559    -1.4162    -1.1413 C.2     
  11 O11            2.7477    -1.4063    -1.6756 O.2     
  12 C12            0.5482    -2.1910    -1.7383 C.ar    
  13 C13            0.3175    -2.1388    -3.1155 C.ar    
  14 C14           -0.7198    -2.8657    -3.6661 C.ar    
  15 C15           -1.5288    -3.6431    -2.8572 C.ar    
  16 C16           -1.3055    -3.6984    -1.4927 C.ar    
  17 C17           -0.2691    -2.9829    -0.9300 C.ar    
  18 C18           -0.9710    -2.8114    -5.1510 C.3     
  19 F19           -2.0652    -3.6231    -5.4688 F       
  20 F20           -1.2430    -1.4925    -5.5300 F       
  21 F21            0.1621    -3.2683    -5.8326 F       
  22 Cl22           1.3316    -1.1626    -4.1315 Cl      
  23 Cl23          -2.0723     3.8340     2.3016 Cl      
  24 Br24           1.3123     4.5381     1.7519 Br      
  25 H25            0.0437    -1.2784     1.4633 H       
  26 H26           -0.6449    -0.8903    -0.1379 H       
  27 H27            2.6395    -0.3914     1.7023 H       
  28 H28            3.5010    -0.2561     0.1492 H       
  29 H29            2.4924     1.8643    -0.3377 H       
  30 H30            2.9885     1.9580     1.3700 H       
  31 H31           -2.3388    -4.2094    -3.2926 H       
  32 H32           -1.9417    -4.3070    -0.8671 H       
  33 H33           -0.0933    -3.0315     0.1345 H       
@<TRIPOS>BOND
   1    1    2 1
   2    1    3 1
   3    1    7 2
   4    2    4 1
   5    2   25 1
   6    2   26 1
   7    3    6 1
   8    3    9 1
   9    4    5 1
  10    4   10 am
  11    5    6 1
  12    5   27 1
  13    5   28 1
  14    6   29 1
  15    6   30 1
  16    7    8 1
  17    8    9 2
  18    8   23 1
  19    9   24 1
  20   10   11 2
  21   10   12 1
  22   12   13 ar
  23   12   17 ar
  24   13   14 ar
  25   13   22 1
  26   14   15 ar
  27   14   18 1
  28   15   16 ar
  29   15   31 1
  30   16   17 ar
  31   16   32 1
  32   17   33 1
  33   18   19 1
  34   18   20 1
  35   18   21 1

#	End of record

