#	Name: ASD08820003
#	Creating user name:	WinNT
#	Creation time:	15. 06. 2019 21:19

#	Modifying user name:	WinNT
#	Modification time:	15. 06. 2019 21:19

#	Program:	/corina/corina34_cracker 3.40 0067  02.08.2006

@<TRIPOS>MOLECULE
ASD08820003
  45   47    0    0    0
SMALL
NO_CHARGES


@<TRIPOS>ATOM
   1 C1            -0.0245     1.5232    -0.2853 C.3     
   2 C2            -0.0029    -0.0062    -0.2498 C.3     
   3 C3            -1.4374    -0.5355    -0.1958 C.3     
   4 O4            -1.4172    -1.9639    -0.1626 O.3     
   5 C5            -2.6187    -2.5969    -0.1129 C.ar    
   6 C6            -3.7956    -1.8432    -0.0967 C.ar    
   7 C7            -5.0128    -2.4487    -0.0472 C.ar    
   8 C8            -5.0928    -3.8517    -0.0121 C.ar    
   9 C9            -3.9004    -4.6171    -0.0289 C.ar    
  10 C10           -2.6611    -3.9626    -0.0850 C.ar    
  11 C11           -3.9827    -6.0259     0.0064 C.ar    
  12 C12           -5.2197    -6.6302     0.0565 C.ar    
  13 C13           -6.3844    -5.8678     0.0726 C.ar    
  14 C14           -6.3347    -4.5077     0.0403 C.ar    
  15 N15           -2.8192    -6.8010    -0.0098 N.pl3   
  16 C16           -2.5599    -7.8347     0.8366 C.2     
  17 C17           -1.3381    -8.3269     0.5019 C.2     
  18 C18           -0.8939    -7.5286    -0.5845 C.2     
  19 N19           -1.8426    -6.6440    -0.8293 N.2     
  20 C20            0.3842    -7.6651    -1.3068 C.2     
  21 O21            1.1759    -8.5298    -0.9838 O.2     
  22 N22            0.6750    -6.8316    -2.3252 N.am    
  23 N23           -0.6588    -9.3978     1.1036 N.am    
  24 C24           -1.2217   -10.0590     2.1343 C.2     
  25 O25           -2.3180    -9.7279     2.5430 O.2     
  26 N26           -0.5695   -11.0873     2.7121 N.am    
  27 H27            0.9975     1.9002    -0.3238 H       
  28 H28           -0.5689     1.8584    -1.1682 H       
  29 H29           -0.5175     1.9005     0.6106 H       
  30 H30            0.4901    -0.3836    -1.1457 H       
  31 H31            0.5415    -0.3415     0.6330 H       
  32 H32           -1.9304    -0.1581     0.7001 H       
  33 H33           -1.9818    -0.2002    -1.0786 H       
  34 H34           -3.7379    -0.7651    -0.1235 H       
  35 H35           -5.9141    -1.8538    -0.0345 H       
  36 H36           -1.7452    -4.5347    -0.0987 H       
  37 H37           -5.2866    -7.7078     0.0833 H       
  38 H38           -7.3431    -6.3634     0.1121 H       
  39 H39           -7.2491    -3.9332     0.0534 H       
  40 H40           -3.2035    -8.1958     1.6253 H       
  41 H41            0.0435    -6.1419    -2.5829 H       
  42 H42            1.5159    -6.9214    -2.8004 H       
  43 H43            0.2158    -9.6620     0.7776 H       
  44 H44            0.3051   -11.3515     2.3860 H       
  45 H45           -0.9746   -11.5632     3.4539 H       
@<TRIPOS>BOND
   1    1    2 1
   2    1   27 1
   3    1   28 1
   4    1   29 1
   5    2    3 1
   6    2   30 1
   7    2   31 1
   8    3    4 1
   9    3   32 1
  10    3   33 1
  11    4    5 1
  12    5    6 ar
  13    5   10 ar
  14    6    7 ar
  15    6   34 1
  16    7    8 ar
  17    7   35 1
  18    8    9 ar
  19    8   14 ar
  20    9   10 ar
  21    9   11 ar
  22   10   36 1
  23   11   12 ar
  24   11   15 1
  25   12   13 ar
  26   12   37 1
  27   13   14 ar
  28   13   38 1
  29   14   39 1
  30   15   16 1
  31   15   19 1
  32   16   17 2
  33   16   40 1
  34   17   18 1
  35   17   23 1
  36   18   19 2
  37   18   20 1
  38   20   21 2
  39   20   22 am
  40   22   41 1
  41   22   42 1
  42   23   24 am
  43   23   43 1
  44   24   25 2
  45   24   26 am
  46   26   44 1
  47   26   45 1

#	End of record

