#	Name: ASD08170330
#	Creating user name:	WinNT
#	Creation time:	15. 06. 2019 21:17

#	Modifying user name:	WinNT
#	Modification time:	15. 06. 2019 21:17

#	Program:	/corina/corina34_cracker 3.40 0067  02.08.2006

@<TRIPOS>MOLECULE
ASD08170330
  41   42    0    0    0
SMALL
NO_CHARGES


@<TRIPOS>ATOM
   1 C1            -0.0176     1.4478     0.0100 C.3     
   2 O2             0.0021    -0.0041     0.0020 O.3     
   3 C3             0.6200    -0.6127     1.0319 C.2     
   4 O4             1.1290     0.0512     1.9132 O.2     
   5 N5             0.6741    -1.9583     1.0852 N.am    
   6 C6             1.3125    -2.5870     2.1491 C.2     
   7 N7             1.8904    -1.9880     3.1462 N.2     
   8 N8             2.4259    -2.7097     4.0329 N.2     
   9 C9             2.3474    -3.9911     3.8625 C.2     
  10 S10            1.4606    -4.2800     2.3653 S.3     
  11 C11            2.9077    -5.0459     4.7814 C.3     
  12 C12            1.8548    -5.4248     5.8248 C.3     
  13 S13            2.5292    -6.6946     6.9309 S.3     
  14 C14            1.1584    -7.0070     8.0772 C.3     
  15 C15            1.5750    -8.0738     9.0917 C.3     
  16 C16            0.4362    -8.3334    10.0440 C.2     
  17 N17           -0.5027    -9.2120     9.8905 N.2     
  18 N18           -1.3710    -9.2766    10.8047 N.2     
  19 C19           -1.2488    -8.4642    11.8108 C.2     
  20 S20            0.1471    -7.5003    11.5718 S.3     
  21 N21           -2.1058    -8.3930    12.9040 N.am    
  22 C22           -3.1717    -9.2143    12.9794 C.2     
  23 O23           -3.3840   -10.0171    12.0923 O.2     
  24 O24           -4.0013    -9.1453    14.0376 O.3     
  25 C25           -5.1287   -10.0602    14.0522 C.3     
  26 H26            1.0050     1.8251     0.0023 H       
  27 H27           -0.5448     1.8089    -0.8731 H       
  28 H28           -0.5278     1.7993     0.9068 H       
  29 H29            0.2679    -2.4883     0.3817 H       
  30 H30            3.1773    -5.9279     4.2004 H       
  31 H31            3.7934    -4.6570     5.2837 H       
  32 H32            1.5852    -4.5428     6.4058 H       
  33 H33            0.9690    -5.8137     5.3225 H       
  34 H34            0.9062    -6.0855     8.6018 H       
  35 H35            0.2900    -7.3564     7.5186 H       
  36 H36            1.8272    -8.9954     8.5671 H       
  37 H37            2.4434    -7.7245     9.6504 H       
  38 H38           -1.9363    -7.7521    13.6122 H       
  39 H39           -5.7149    -9.9002    14.9571 H       
  40 H40           -5.7540    -9.8803    13.1776 H       
  41 H41           -4.7636   -11.0871    14.0327 H       
@<TRIPOS>BOND
   1    1    2 1
   2    1   26 1
   3    1   27 1
   4    1   28 1
   5    2    3 1
   6    3    4 2
   7    3    5 am
   8    5    6 1
   9    5   29 1
  10    6    7 2
  11    6   10 1
  12    7    8 1
  13    8    9 2
  14    9   10 1
  15    9   11 1
  16   11   12 1
  17   11   30 1
  18   11   31 1
  19   12   13 1
  20   12   32 1
  21   12   33 1
  22   13   14 1
  23   14   15 1
  24   14   34 1
  25   14   35 1
  26   15   16 1
  27   15   36 1
  28   15   37 1
  29   16   17 2
  30   16   20 1
  31   17   18 1
  32   18   19 2
  33   19   20 1
  34   19   21 1
  35   21   22 am
  36   21   38 1
  37   22   23 2
  38   22   24 1
  39   24   25 1
  40   25   39 1
  41   25   40 1
  42   25   41 1

#	End of record

