#	Name: ASD00170681
#	Creating user name:	WinNT
#	Creation time:	15. 06. 2019 18:32

#	Modifying user name:	WinNT
#	Modification time:	15. 06. 2019 18:32

#	Program:	/corina/corina34_cracker 3.40 0067  02.08.2006

@<TRIPOS>MOLECULE
ASD00170681
  35   36    0    0    0
SMALL
NO_CHARGES


@<TRIPOS>ATOM
   1 Cl1            2.1186     4.9007    -5.5294 Cl      
   2 C2             1.4306     5.2263    -3.9692 C.ar    
   3 C3             2.0639     4.7661    -2.8264 C.ar    
   4 C4             1.5224     5.0220    -1.5843 C.ar    
   5 C5             0.3335     5.7464    -1.4800 C.ar    
   6 C6            -0.3001     6.2076    -2.6353 C.ar    
   7 C7             0.2537     5.9501    -3.8716 C.ar    
   8 C8            -0.2525     6.0237    -0.1509 C.2     
   9 O9             0.2427     5.5326     0.8474 O.2     
  10 C10           -1.4270     6.8879    -0.0353 C.2     
  11 C11           -2.7208     6.4364    -0.1564 C.2     
  12 N12           -3.0754     5.1250    -0.3999 N.pl3   
  13 S13           -3.8252     7.7202     0.0363 S.3     
  14 C14           -2.5424     8.8910     0.2847 C.2     
  15 C15           -1.3542     8.3103     0.2252 C.2     
  16 C16           -0.0566     9.0562     0.4007 C.3     
  17 C17           -0.3501    10.5321     0.6771 C.3     
  18 C18            0.7185     8.4611     1.5780 C.3     
  19 C19            0.7793     8.9326    -0.8749 C.3     
  20 H20            2.9833     4.2055    -2.9084 H       
  21 H21            2.0168     4.6624    -0.6940 H       
  22 H22           -1.2202     6.7683    -2.5607 H       
  23 H23           -0.2356     6.3063    -4.7661 H       
  24 H24           -2.3895     4.4608    -0.5707 H       
  25 H25           -4.0107     4.8676    -0.4002 H       
  26 H26           -2.7010     9.9438     0.4658 H       
  27 H27           -0.9455    10.6201     1.5858 H       
  28 H28            0.5885    11.0716     0.8040 H       
  29 H29           -0.9023    10.9560    -0.1616 H       
  30 H30            1.0366     7.4487     1.3290 H       
  31 H31            1.5941     9.0765     1.7847 H       
  32 H32            0.0771     8.4342     2.4589 H       
  33 H33            0.1807     9.2393    -1.7326 H       
  34 H34            1.6577     9.5732    -0.7971 H       
  35 H35            1.0949     7.8972    -1.0036 H       
@<TRIPOS>BOND
   1    1    2 1
   2    2    3 ar
   3    2    7 ar
   4    3    4 ar
   5    3   20 1
   6    4    5 ar
   7    4   21 1
   8    5    6 ar
   9    5    8 1
  10    6    7 ar
  11    6   22 1
  12    7   23 1
  13    8    9 2
  14    8   10 1
  15   10   11 2
  16   10   15 1
  17   11   12 1
  18   11   13 1
  19   12   24 1
  20   12   25 1
  21   13   14 1
  22   14   15 2
  23   14   26 1
  24   15   16 1
  25   16   17 1
  26   16   18 1
  27   16   19 1
  28   17   27 1
  29   17   28 1
  30   17   29 1
  31   18   30 1
  32   18   31 1
  33   18   32 1
  34   19   33 1
  35   19   34 1
  36   19   35 1

#	End of record

