#	Name: ASD00451031
#	Creating user name:	WinNT
#	Creation time:	15. 06. 2019 18:36

#	Modifying user name:	WinNT
#	Modification time:	15. 06. 2019 18:36

#	Program:	/corina/corina34_cracker 3.40 0067  02.08.2006

@<TRIPOS>MOLECULE
ASD00451031
  60   64    0    0    0
SMALL
NO_CHARGES


@<TRIPOS>ATOM
   1 C1             0.0503     1.1462    -0.0349 C.ar    
   2 C2            -0.0616    -0.2246    -0.1113 C.ar    
   3 C3             1.3258     1.7448    -0.1078 C.ar    
   4 N4            -1.0931     1.9394     0.1081 N.am    
   5 C5             1.0673    -1.0251    -0.2588 C.ar    
   6 C6             1.4815     3.1382    -0.0333 C.ar    
   7 C7             2.4705     0.9244    -0.2584 C.ar    
   8 C8             2.3155    -0.4748    -0.3319 C.ar    
   9 C9             2.7276     3.6819    -0.1066 C.ar    
  10 C10            3.7401     1.5206    -0.3309 C.ar    
  11 O11            3.4050    -1.2742    -0.4756 O.3     
  12 C12            3.8539     2.8751    -0.2553 C.ar    
  13 C13            4.1347    -1.5625     0.6326 C.ar    
  14 C14            5.3246    -2.2802     0.5397 C.ar    
  15 C15            3.7172    -1.1436     1.8941 C.ar    
  16 C16            6.0480    -2.5573     1.7001 C.ar    
  17 N17            6.0310    -2.8386    -0.5236 N.am    
  18 C18            4.4864    -1.4556     2.9971 C.ar    
  19 N19            7.1709    -3.2750     1.3077 N.am    
  20 N20            5.6073    -2.1415     2.8779 N.ar    
  21 C21            7.1358    -3.4293    -0.0290 C.2     
  22 C22            8.2183    -3.7791     2.1994 C.3     
  23 O23            7.9739    -4.0139    -0.6897 O.2     
  24 C24           -2.2490     1.5670    -0.4765 C.2     
  25 O25           -2.2740     0.5995    -1.2126 O.2     
  26 N26           -3.3772     2.2671    -0.2451 N.am    
  27 C27           -4.5954     1.8289    -0.7799 C.ar    
  28 C28            5.6397    -2.7918    -1.9346 C.3     
  29 C29           -5.7764     2.0199    -0.0714 C.ar    
  30 C30           -6.9770     1.5857    -0.6031 C.ar    
  31 C31           -7.0026     0.9627    -1.8372 C.ar    
  32 C32           -5.8292     0.7715    -2.5433 C.ar    
  33 C33           -4.6271     1.2082    -2.0210 C.ar    
  34 F34           -5.7511     2.6282     1.1347 F       
  35 C35            7.8516    -5.1874     2.6718 C.3     
  36 C36           -5.8624     0.0911    -3.8875 C.3     
  37 F37           -7.1813    -0.2520    -4.2040 F       
  38 F38           -5.3597     0.9595    -4.8623 F       
  39 F39           -5.0772    -1.0660    -3.8441 F       
  40 H40           -1.0375    -0.6839    -0.0556 H       
  41 H41           -1.0540     2.7574     0.6279 H       
  42 H42            0.9549    -2.0977    -0.3161 H       
  43 H43            0.6171     3.7755     0.0812 H       
  44 H44            2.8447     4.7540    -0.0491 H       
  45 H45            4.6218     0.9075    -0.4454 H       
  46 H46            4.8314     3.3309    -0.3113 H       
  47 H47            2.8024    -0.5809     2.0077 H       
  48 H48            4.1647    -1.1320     3.9760 H       
  49 H49            9.1671    -3.8111     1.6638 H       
  50 H50            8.3100    -3.1189     3.0618 H       
  51 H51           -3.3456     3.0743     0.2918 H       
  52 H52            6.0634    -1.9018    -2.3998 H       
  53 H53            6.0116    -3.6805    -2.4445 H       
  54 H54            4.5527    -2.7583    -2.0092 H       
  55 H55           -7.8952     1.7330    -0.0538 H       
  56 H56           -7.9413     0.6244    -2.2506 H       
  57 H57           -3.7114     1.0581    -2.5736 H       
  58 H58            8.6309    -5.5624     3.3353 H       
  59 H59            6.9028    -5.1554     3.2074 H       
  60 H60            7.7599    -5.8476     1.8094 H       
@<TRIPOS>BOND
   1    1    2 ar
   2    1    3 ar
   3    1    4 1
   4    2    5 ar
   5    2   40 1
   6    3    6 ar
   7    3    7 ar
   8    4   24 am
   9    4   41 1
  10    5    8 ar
  11    5   42 1
  12    6    9 ar
  13    6   43 1
  14    7    8 ar
  15    7   10 ar
  16    8   11 1
  17    9   12 ar
  18    9   44 1
  19   10   12 ar
  20   10   45 1
  21   11   13 1
  22   12   46 1
  23   13   15 ar
  24   13   14 ar
  25   14   16 ar
  26   14   17 1
  27   15   18 ar
  28   15   47 1
  29   16   19 1
  30   16   20 ar
  31   17   21 am
  32   17   28 1
  33   18   20 ar
  34   18   48 1
  35   19   22 1
  36   19   21 am
  37   21   23 2
  38   22   35 1
  39   22   49 1
  40   22   50 1
  41   24   25 2
  42   24   26 am
  43   26   27 1
  44   26   51 1
  45   27   29 ar
  46   27   33 ar
  47   28   52 1
  48   28   53 1
  49   28   54 1
  50   29   30 ar
  51   29   34 1
  52   30   31 ar
  53   30   55 1
  54   31   32 ar
  55   31   56 1
  56   32   33 ar
  57   32   36 1
  58   33   57 1
  59   35   58 1
  60   35   59 1
  61   35   60 1
  62   36   37 1
  63   36   38 1
  64   36   39 1

#	End of record

