#	Name: ASD00170890
#	Creating user name:	WinNT
#	Creation time:	15. 06. 2019 18:32

#	Modifying user name:	WinNT
#	Modification time:	15. 06. 2019 18:32

#	Program:	/corina/corina34_cracker 3.40 0067  02.08.2006

@<TRIPOS>MOLECULE
ASD00170890
  41   44    0    0    0
SMALL
NO_CHARGES


@<TRIPOS>ATOM
   1 C1             0.6357     0.4607    -1.0966 C.2     
   2 N2             0.0320    -0.0040     0.0122 N.am    
   3 C3             0.6807     0.3966     1.1205 C.2     
   4 C4             1.8420     1.2164     0.7161 C.ar    
   5 C5             2.8451     1.8800     1.4042 C.ar    
   6 C6             3.8137     2.5795     0.7014 C.ar    
   7 C7             3.7856     2.6194    -0.6800 C.ar    
   8 C8             2.7881     1.9608    -1.3820 C.ar    
   9 C9             1.8133     1.2571    -0.6930 C.ar    
  10 O10            0.2761     0.2556    -2.2383 O.2     
  11 O11            0.3649     0.1294     2.2623 O.2     
  12 C12           -1.1102    -0.7933     0.0126 C.2     
  13 C13           -1.1139    -2.1619    -0.0981 C.2     
  14 C14           -2.4472    -2.7222    -0.0679 C.2     
  15 C15           -3.3955    -1.8054     0.0602 C.2     
  16 S16           -2.7004    -0.1974     0.1579 S.3     
  17 C17           -4.8714    -2.1042     0.1192 C.3     
  18 C18            0.1019    -2.9682    -0.2328 C.2     
  19 C19            0.5812    -3.3647    -1.5742 C.ar    
  20 C20            1.8002    -4.0308    -1.7143 C.ar    
  21 C21            2.2420    -4.3980    -2.9678 C.ar    
  22 C22            1.4790    -4.1073    -4.0868 C.ar    
  23 C23            0.2688    -3.4466    -3.9541 C.ar    
  24 C24           -0.1862    -3.0794    -2.7052 C.ar    
  25 O25            0.7176    -3.3116     0.7596 O.2     
  26 Cl26           2.0420    -4.5722    -5.6617 Cl      
  27 C27           -2.7293    -4.1989    -0.1720 C.3     
  28 Br28          -2.7471    -4.9911     1.6272 Br      
  29 H29            2.8719     1.8527     2.4836 H       
  30 H30            4.5957     3.0973     1.2370 H       
  31 H31            4.5460     3.1678    -1.2162 H       
  32 H32            2.7708     1.9960    -2.4613 H       
  33 H33           -5.1695    -2.2593     1.1561 H       
  34 H34           -5.4288    -1.2653    -0.2975 H       
  35 H35           -5.0833    -3.0040    -0.4583 H       
  36 H36            2.3961    -4.2578    -0.8426 H       
  37 H37            3.1849    -4.9131    -3.0775 H       
  38 H38           -0.3216    -3.2222    -4.8302 H       
  39 H39           -1.1320    -2.5683    -2.6026 H       
  40 H40           -3.6992    -4.3510    -0.6456 H       
  41 H41           -1.9536    -4.6756    -0.7712 H       
@<TRIPOS>BOND
   1    1    2 am
   2    1    9 1
   3    1   10 2
   4    2    3 am
   5    2   12 1
   6    3    4 1
   7    3   11 2
   8    4    5 ar
   9    4    9 ar
  10    5    6 ar
  11    5   29 1
  12    6    7 ar
  13    6   30 1
  14    7    8 ar
  15    7   31 1
  16    8    9 ar
  17    8   32 1
  18   12   13 2
  19   12   16 1
  20   13   14 1
  21   13   18 1
  22   14   15 2
  23   14   27 1
  24   15   16 1
  25   15   17 1
  26   17   33 1
  27   17   34 1
  28   17   35 1
  29   18   19 1
  30   18   25 2
  31   19   20 ar
  32   19   24 ar
  33   20   21 ar
  34   20   36 1
  35   21   22 ar
  36   21   37 1
  37   22   23 ar
  38   22   26 1
  39   23   24 ar
  40   23   38 1
  41   24   39 1
  42   27   28 1
  43   27   40 1
  44   27   41 1

#	End of record

