#	Name: ASD01870602
#	Creating user name:	WinNT
#	Creation time:	15. 06. 2019 19:39

#	Modifying user name:	WinNT
#	Modification time:	15. 06. 2019 19:39

#	Program:	/corina/corina34_cracker 3.40 0067  02.08.2006

@<TRIPOS>MOLECULE
ASD01870602
  40   43    0    0    0
SMALL
NO_CHARGES


@<TRIPOS>ATOM
   1 C1            -0.0301     1.3999    -0.2328 C.ar    
   2 C2            -0.0270     0.0159    -0.1048 C.ar    
   3 C3             1.1512    -0.6611     0.1405 C.ar    
   4 C4             2.3480     0.0293     0.2623 C.ar    
   5 C5             2.3627     1.4085     0.1370 C.ar    
   6 C6             1.1609     2.1032    -0.1132 C.ar    
   7 C7             3.4188     2.4402     0.2048 C.2     
   8 N8             2.8538     3.6447     0.0056 N.am    
   9 C9             1.5274     3.5312    -0.1875 C.2     
  10 C10            3.5558     4.8607     0.0024 C.ar    
  11 C11            4.0868     5.3524    -1.1818 C.ar    
  12 C12            4.7768     6.5483    -1.1856 C.ar    
  13 C13            4.9406     7.2603    -0.0042 C.ar    
  14 C14            4.4099     6.7696     1.1815 C.ar    
  15 C15            3.7140     5.5751     1.1846 C.ar    
  16 O16            0.7596     4.4502    -0.3913 O.2     
  17 O17            4.5987     2.2350     0.4070 O.2     
  18 N18            5.6410     8.4720    -0.0088 N.am    
  19 C19            6.4134     8.8080     1.0433 C.2     
  20 C20            7.2267    10.0271     0.9962 C.2     
  21 O21            6.4359     8.0993     2.0326 O.2     
  22 C22            8.0492    10.4819     1.9869 C.2     
  23 C23            8.6264    11.6721     1.5176 C.2     
  24 C24            8.1373    11.8890     0.2767 C.2     
  25 O25            7.2981    10.8930    -0.0359 O.3     
  26 C26            8.2900     9.8320     3.3251 C.3     
  27 F27            3.1925     5.0997     2.3366 F       
  28 F28           -1.1850     2.0567    -0.4779 F       
  29 H29           -0.9522    -0.5336    -0.1974 H       
  30 H30            1.1407    -1.7366     0.2387 H       
  31 H31            3.2656    -0.5069     0.4545 H       
  32 H32            3.9606     4.7991    -2.1007 H       
  33 H33            5.1898     6.9302    -2.1076 H       
  34 H34            4.5371     7.3231     2.1002 H       
  35 H35            5.5705     9.0701    -0.7693 H       
  36 H36            9.3291    12.2972     2.0485 H       
  37 H37            8.3853    12.7256    -0.3597 H       
  38 H38            9.1276     9.1388     3.2469 H       
  39 H39            8.5206    10.5985     4.0650 H       
  40 H40            7.3961     9.2887     3.6313 H       
@<TRIPOS>BOND
   1    1    2 ar
   2    1    6 ar
   3    1   28 1
   4    2    3 ar
   5    2   29 1
   6    3    4 ar
   7    3   30 1
   8    4    5 ar
   9    4   31 1
  10    5    7 1
  11    5    6 ar
  12    6    9 1
  13    7    8 am
  14    7   17 2
  15    8    9 am
  16    8   10 1
  17    9   16 2
  18   10   11 ar
  19   10   15 ar
  20   11   12 ar
  21   11   32 1
  22   12   13 ar
  23   12   33 1
  24   13   14 ar
  25   13   18 1
  26   14   15 ar
  27   14   34 1
  28   15   27 1
  29   18   19 am
  30   18   35 1
  31   19   20 1
  32   19   21 2
  33   20   22 2
  34   20   25 1
  35   22   23 1
  36   22   26 1
  37   23   24 2
  38   23   36 1
  39   24   25 1
  40   24   37 1
  41   26   38 1
  42   26   39 1
  43   26   40 1

#	End of record

