#	Name: ASD01810029
#	Creating user name:	WinNT
#	Creation time:	15. 06. 2019 19:23

#	Modifying user name:	WinNT
#	Modification time:	15. 06. 2019 19:23

#	Program:	/corina/corina34_cracker 3.40 0067  02.08.2006

@<TRIPOS>MOLECULE
ASD01810029
  41   45    0    0    0
SMALL
NO_CHARGES


@<TRIPOS>ATOM
   1 N1            -0.0163     1.3478     0.0095 N.am    
   2 C2             0.0021    -0.0041     0.0020 C.2     
   3 C3            -1.2676    -0.7370    -0.3570 C.3     
   4 C4            -2.5158    -0.1235     0.2728 C.3     
   5 C5            -2.5119     1.3734     0.1213 C.ar    
   6 C6            -1.2657     1.9814     0.0315 C.ar    
   7 C7            -3.6299     2.1620     0.0686 C.ar    
   8 C8            -3.5019     3.5488    -0.0476 C.ar    
   9 C9            -2.2633     4.1497    -0.0982 C.ar    
  10 C10           -1.1107     3.3589    -0.0515 C.ar    
  11 C11            0.9575     2.3079     0.0053 C.ar    
  12 C12            0.3366     3.5841    -0.0419 C.ar    
  13 C13            1.0879     4.7567    -0.0677 C.ar    
  14 C14            2.4711     4.6230    -0.0391 C.ar    
  15 C15            3.0784     3.3774     0.0129 C.ar    
  16 C16            2.3464     2.2027     0.0383 C.ar    
  17 C17           -4.7709     4.3611    -0.1210 C.3     
  18 C18           -4.4754     5.8276     0.1903 C.3     
  19 N19           -3.3515     6.2666    -0.6520 N.3     
  20 C20           -2.1053     5.6437    -0.1961 C.3     
  21 O21            1.0141    -0.6129     0.2767 O.2     
  22 O22            3.2468     5.7395    -0.0631 O.3     
  23 C23            4.6624     5.5467    -0.0319 C.3     
  24 H24           -1.3822    -0.7284    -1.4410 H       
  25 H25           -1.1805    -1.7715    -0.0250 H       
  26 H26           -3.4010    -0.5308    -0.2157 H       
  27 H27           -2.5438    -0.3764     1.3327 H       
  28 H28           -4.6106     1.7124     0.1166 H       
  29 H29            0.6163     5.7274    -0.1086 H       
  30 H30            4.1567     3.3221     0.0360 H       
  31 H31            2.8340     1.2399     0.0787 H       
  32 H32           -5.1929     4.2824    -1.1230 H       
  33 H33           -5.4891     3.9757     0.6027 H       
  34 H34           -5.3551     6.4329    -0.0283 H       
  35 H35           -4.2076     5.9320     1.2418 H       
  36 H36           -3.5253     6.0586    -1.6239 H       
  37 H37           -1.8421     6.0420     0.7838 H       
  38 H38           -1.3085     5.8750    -0.9030 H       
  39 H39            4.9372     5.0187     0.8812 H       
  40 H40            4.9682     4.9590    -0.8974 H       
  41 H41            5.1616     6.5154    -0.0557 H       
@<TRIPOS>BOND
   1    1    2 am
   2    1   11 1
   3    1    6 1
   4    2    3 1
   5    2   21 2
   6    3    4 1
   7    3   24 1
   8    3   25 1
   9    4    5 1
  10    4   26 1
  11    4   27 1
  12    5    6 ar
  13    5    7 ar
  14    6   10 ar
  15    7    8 ar
  16    7   28 1
  17    8    9 ar
  18    8   17 1
  19    9   10 ar
  20    9   20 1
  21   10   12 1
  22   11   12 ar
  23   11   16 ar
  24   12   13 ar
  25   13   14 ar
  26   13   29 1
  27   14   15 ar
  28   14   22 1
  29   15   16 ar
  30   15   30 1
  31   16   31 1
  32   17   18 1
  33   17   32 1
  34   17   33 1
  35   18   19 1
  36   18   34 1
  37   18   35 1
  38   19   20 1
  39   19   36 1
  40   20   37 1
  41   20   38 1
  42   22   23 1
  43   23   39 1
  44   23   40 1
  45   23   41 1

#	End of record

