#	Name: ASD01880131
#	Creating user name:	WinNT
#	Creation time:	15. 06. 2019 19:40

#	Modifying user name:	WinNT
#	Modification time:	15. 06. 2019 19:40

#	Program:	/corina/corina34_cracker 3.40 0067  02.08.2006

@<TRIPOS>MOLECULE
ASD01880131
  49   52    0    0    0
SMALL
NO_CHARGES


@<TRIPOS>ATOM
   1 C1            -0.0168     1.3866     0.0097 C.ar    
   2 C2             0.0021    -0.0041     0.0020 C.ar    
   3 C3            -1.1908    -0.7171     0.0095 C.ar    
   4 C4            -2.3920    -0.0608     0.0240 C.ar    
   5 C5            -2.4274     1.3358     0.0319 C.ar    
   6 C6            -1.2195     2.0577     0.0305 C.ar    
   7 C7            -3.8022    -0.6015     0.0348 C.3     
   8 C8            -4.7307     0.6205     0.0504 C.3     
   9 C9            -3.8138     1.8193     0.0479 C.2     
  10 Cl10          -1.2453     3.7935     0.0407 Cl      
  11 Cl11           1.4742     2.2757     0.0002 Cl      
  12 O12            1.1867    -0.6655    -0.0133 O.3     
  13 C13           -5.6171     0.6286    -1.1967 C.3     
  14 C14           -5.5927     0.6151     1.3145 C.3     
  15 C15           -6.5593     1.8580    -1.1925 C.3     
  16 C16           -6.9053     2.0745    -2.6802 C.3     
  17 C17           -5.7662     1.4357    -3.4939 C.3     
  18 C18           -4.7677     0.8532    -2.4723 C.3     
  19 O19           -4.1620     2.9813     0.0575 O.2     
  20 C20            1.1324    -2.0935    -0.0204 C.3     
  21 C21            2.5544    -2.6578    -0.0375 C.3     
  22 C22            2.4963    -4.1867    -0.0451 C.3     
  23 C23            3.8969    -4.7426    -0.0619 C.2     
  24 N24            4.6452    -5.0416     1.0001 N.2     
  25 N25            5.7733    -5.4885     0.5624 N.2     
  26 N26            5.7510    -5.4772    -0.7252 N.pl3   
  27 N27            4.6098    -5.0297    -1.1233 N.2     
  28 H28           -1.1699    -1.7969     0.0035 H       
  29 H29           -3.9819    -1.1970    -0.8603 H       
  30 H30           -3.9645    -1.2066     0.9268 H       
  31 H31           -6.1893    -0.2964    -1.2681 H       
  32 H32           -4.9485     0.6333     2.1936 H       
  33 H33           -6.2375     1.4940     1.3183 H       
  34 H34           -6.2061    -0.2857     1.3321 H       
  35 H35           -7.4610     1.6456    -0.6181 H       
  36 H36           -6.0457     2.7308    -0.7893 H       
  37 H37           -7.8518     1.5889    -2.9179 H       
  38 H38           -6.9672     3.1407    -2.8978 H       
  39 H39           -6.1599     0.6401    -4.1265 H       
  40 H40           -5.2753     2.1919    -4.1064 H       
  41 H41           -3.9649     1.5638    -2.2758 H       
  42 H42           -4.3620    -0.0924    -2.8319 H       
  43 H43            0.6140    -2.4418     0.8729 H       
  44 H44            0.5964    -2.4322    -0.9069 H       
  45 H45            3.0728    -2.3095    -0.9308 H       
  46 H46            3.0905    -2.3190     0.8491 H       
  47 H47            1.9778    -4.5350     0.8482 H       
  48 H48            1.9602    -4.5255    -0.9317 H       
  49 H49            6.4757    -5.7634    -1.3029 H       
@<TRIPOS>BOND
   1    1    2 ar
   2    1   11 1
   3    1    6 ar
   4    2    3 ar
   5    2   12 1
   6    3    4 ar
   7    3   28 1
   8    4    5 ar
   9    4    7 1
  10    5    6 ar
  11    5    9 1
  12    6   10 1
  13    7    8 1
  14    7   29 1
  15    7   30 1
  16    8    9 1
  17    8   13 1
  18    8   14 1
  19    9   19 2
  20   12   20 1
  21   13   15 1
  22   13   18 1
  23   13   31 1
  24   14   32 1
  25   14   33 1
  26   14   34 1
  27   15   16 1
  28   15   35 1
  29   15   36 1
  30   16   17 1
  31   16   37 1
  32   16   38 1
  33   17   18 1
  34   17   39 1
  35   17   40 1
  36   18   41 1
  37   18   42 1
  38   20   21 1
  39   20   43 1
  40   20   44 1
  41   21   22 1
  42   21   45 1
  43   21   46 1
  44   22   23 1
  45   22   47 1
  46   22   48 1
  47   23   24 1
  48   23   27 2
  49   24   25 2
  50   25   26 1
  51   26   27 1
  52   26   49 1

#	End of record

