#	Name: ASD01420107
#	Creating user name:	WinNT
#	Creation time:	15. 06. 2019 19:20

#	Modifying user name:	WinNT
#	Modification time:	15. 06. 2019 19:20

#	Program:	/corina/corina34_cracker 3.40 0067  02.08.2006

@<TRIPOS>MOLECULE
ASD01420107
  68   71    0    0    0
SMALL
NO_CHARGES


@<TRIPOS>ATOM
   1 C1            -0.0149     1.5022     0.0474 C.2     
   2 C2             0.0021    -0.0041     0.0020 C.3     
   3 O3             1.0284     2.1196     0.0834 O.2     
   4 N4            -1.1894     2.1633     0.0425 N.am    
   5 N5             1.3871    -0.4743    -0.1344 N.3     
   6 C6             1.9486    -0.0882    -1.4371 C.3     
   7 C7             3.4080    -0.5445    -1.5132 C.3     
   8 O8             3.4730    -1.9561    -1.2925 O.3     
   9 C9             2.9351    -2.3672    -0.0327 C.3     
  10 C10            1.4709    -1.9293     0.0584 C.3     
  11 C11           -1.2059     3.6275     0.0866 C.3     
  12 C12           -2.6537     4.1219     0.0708 C.3     
  13 O13           -3.3142     3.7002     1.2657 O.3     
  14 C14           -8.6970     5.0417     2.1340 C.3     
  15 N15           -8.7289     4.7766     3.5901 N.3     
  16 C16           -7.6425     3.7922     3.7961 C.3     
  17 C17           -6.6426     4.0504     2.6918 C.ar    
  18 C18           -5.3192     3.6838     2.5460 C.ar    
  19 C19           -4.6168     4.0595     1.4104 C.ar    
  20 C20           -5.2465     4.8032     0.4225 C.ar    
  21 C21           -6.5703     5.1674     0.5721 C.ar    
  22 C22           -7.2689     4.7926     1.7045 C.ar    
  23 C23           -9.6288     4.1019     1.4132 C.2     
  24 C24           -9.9940     4.3594     0.0181 C.ar    
  25 C25          -10.8636     3.4843    -0.6581 C.ar    
  26 C26          -11.2012     3.7391    -1.9758 C.ar    
  27 C27          -10.6818     4.8527    -2.6208 C.ar    
  28 C28           -9.8215     5.7170    -1.9488 C.ar    
  29 C29           -9.4836     5.4818    -0.6478 C.ar    
  30 O30          -10.0765     3.1318     1.9884 O.2     
  31 C31           -9.2642     6.9224    -2.6611 C.3     
  32 C32           -9.6928     8.1933    -1.9248 C.3     
  33 C33           -7.7367     6.8386    -2.6870 C.3     
  34 O34          -11.0138     5.1003    -3.9127 O.3     
  35 O35          -11.3675     2.3975    -0.0227 O.3     
  36 H36           -0.4271    -0.4002     0.9224 H       
  37 H37           -0.5842    -0.3485    -0.8499 H       
  38 H38           -2.0237     1.6696     0.0097 H       
  39 H39            1.3769    -0.5624    -2.2349 H       
  40 H40            1.8997     0.9951    -1.5479 H       
  41 H41            3.8114    -0.3113    -2.4985 H       
  42 H42            3.9907    -0.0295    -0.7494 H       
  43 H43            2.9965    -3.4521     0.0527 H       
  44 H44            3.5040    -1.9052     0.7742 H       
  45 H45            1.0734    -2.1900     1.0392 H       
  46 H46            0.8916    -2.4330    -0.7155 H       
  47 H47           -0.7153     3.9691     0.9981 H       
  48 H48           -0.6773     4.0232    -0.7807 H       
  49 H49           -2.6654     5.2104     0.0140 H       
  50 H50           -3.1698     3.7074    -0.7952 H       
  51 H51           -8.9755     6.0763     1.9334 H       
  52 H52           -8.5564     5.6207     4.1152 H       
  53 H53           -7.1761     3.9443     4.7695 H       
  54 H54           -8.0341     2.7778     3.7198 H       
  55 H55           -4.8311     3.1049     3.3161 H       
  56 H56           -4.7017     5.0972    -0.4624 H       
  57 H57           -7.0604     5.7463    -0.1968 H       
  58 H58          -11.8678     3.0717    -2.5017 H       
  59 H59           -8.8192     6.1593    -0.1320 H       
  60 H60           -9.6440     6.9487    -3.6825 H       
  61 H61           -9.2897     9.0651    -2.4400 H       
  62 H62          -10.7810     8.2530    -1.9064 H       
  63 H63           -9.3130     8.1670    -0.9034 H       
  64 H64           -7.4313     5.9332    -3.2116 H       
  65 H65           -7.3336     7.7105    -3.2022 H       
  66 H66           -7.3569     6.8123    -1.6656 H       
  67 H67          -11.8018     5.6507    -4.0178 H       
  68 H68          -12.2054     2.5608     0.4316 H       
@<TRIPOS>BOND
   1    1    2 1
   2    1    3 2
   3    1    4 am
   4    2    5 1
   5    2   36 1
   6    2   37 1
   7    4   11 1
   8    4   38 1
   9    5    6 1
  10    5   10 1
  11    6    7 1
  12    6   39 1
  13    6   40 1
  14    7    8 1
  15    7   41 1
  16    7   42 1
  17    8    9 1
  18    9   10 1
  19    9   43 1
  20    9   44 1
  21   10   45 1
  22   10   46 1
  23   11   12 1
  24   11   47 1
  25   11   48 1
  26   12   13 1
  27   12   49 1
  28   12   50 1
  29   13   19 1
  30   14   15 1
  31   14   22 1
  32   14   23 1
  33   14   51 1
  34   15   16 1
  35   15   52 1
  36   16   17 1
  37   16   53 1
  38   16   54 1
  39   17   18 ar
  40   17   22 ar
  41   18   19 ar
  42   18   55 1
  43   19   20 ar
  44   20   21 ar
  45   20   56 1
  46   21   22 ar
  47   21   57 1
  48   23   24 1
  49   23   30 2
  50   24   25 ar
  51   24   29 ar
  52   25   26 ar
  53   25   35 1
  54   26   27 ar
  55   26   58 1
  56   27   28 ar
  57   27   34 1
  58   28   29 ar
  59   28   31 1
  60   29   59 1
  61   31   32 1
  62   31   33 1
  63   31   60 1
  64   32   61 1
  65   32   62 1
  66   32   63 1
  67   33   64 1
  68   33   65 1
  69   33   66 1
  70   34   67 1
  71   35   68 1

#	End of record

