#	Name: ASD02980003
#	Creating user name:	WinNT
#	Creation time:	15. 06. 2019 20:26

#	Modifying user name:	WinNT
#	Modification time:	15. 06. 2019 20:26

#	Program:	/corina/corina34_cracker 3.40 0067  02.08.2006

@<TRIPOS>MOLECULE
ASD02980003
  72   74    0    0    0
SMALL
NO_CHARGES


@<TRIPOS>ATOM
   1 O1            -1.2909    -2.4838     0.9237 O.3     
   2 P2             0.2608    -2.0604     0.9938 P.3     
   3 O3             0.3808    -0.5489     1.5353 O.3     
   4 O4             0.9799    -2.9718     1.9118 O.2     
   5 O5             0.9104    -2.1570    -0.4762 O.3     
   6 C6             1.0525    -3.3898    -1.1848 C.3     
   7 C7             1.7040    -3.1248    -2.5436 C.3     
   8 O8             3.0563    -2.6745    -2.3577 O.3     
   9 C9             3.8290    -3.1938    -3.4612 C.3     
  10 N10            5.2531    -3.2343    -3.1200 N.am    
  11 C11            6.1633    -2.6341    -3.9376 C.2     
  12 C12            7.4768    -2.6783    -3.6115 C.2     
  13 C13            7.8656    -3.3460    -2.4320 C.2     
  14 N14            9.1932    -3.4057    -2.0766 N.pl3   
  15 N15            6.9439    -3.9158    -1.6668 N.2     
  16 C16            5.6551    -3.8591    -1.9981 C.2     
  17 O17            4.8261    -4.3867    -1.2753 O.2     
  18 C18            3.2719    -4.6279    -3.6495 C.3     
  19 O19            3.4784    -5.0836    -4.9881 O.3     
  20 C20            1.7640    -4.4307    -3.3594 C.3     
  21 O21            1.0339    -4.2920    -4.5799 O.3     
  22 C22           -1.3973    -0.6047     3.1430 C.2     
  23 O23           -1.7007    -1.9118     3.1785 O.3     
  24 O24           -2.2583     0.2208     3.3352 O.2     
  25 C25            0.0174    -0.1669     2.8634 C.3     
  26 O26            0.1112     1.2531     2.9934 O.3     
  27 C27            1.4121     1.7791     2.7226 C.3     
  28 C28            1.3862     3.3023     2.8641 C.3     
  29 O29            0.9993     3.6506     4.1949 O.3     
  30 C30            0.3817     3.8898     1.8707 C.3     
  31 O31            0.7525     3.5172     0.5419 O.3     
  32 C32            0.3784     5.4151     1.9905 C.3     
  33 O33           -0.6405     5.9569     1.1478 O.3     
  34 C34            2.4160     1.1910     3.7176 C.3     
  35 N35            3.7602     1.6825     3.4052 N.am    
  36 C36            4.6991     1.7369     4.3705 C.2     
  37 O37            4.4312     1.3789     5.4979 O.2     
  38 C38            6.0819     2.2426     4.0491 C.3     
  39 C39            2.3923    -0.3370     3.6119 C.3     
  40 O40            3.2727    -0.8974     4.5881 O.3     
  41 C41            0.9653    -0.8334     3.8639 C.3     
  42 H42           -1.8328    -1.9021     0.3732 H       
  43 H43            1.6788    -4.0703    -0.6080 H       
  44 H44            0.0703    -3.8383    -1.3341 H       
  45 H45            1.1339    -2.3714    -3.0872 H       
  46 H46            3.6672    -2.5958    -4.3581 H       
  47 H47            5.8405    -2.1291    -4.8360 H       
  48 H48            8.2151    -2.2097    -4.2452 H       
  49 H49            9.8649    -2.9878    -2.6379 H       
  50 H50            9.4577    -3.8658    -1.2646 H       
  51 H51            3.7197    -5.3163    -2.9328 H       
  52 H52            3.1466    -5.9763    -5.1552 H       
  53 H53            1.3759    -5.2644    -2.7742 H       
  54 H54            1.0383    -5.0851    -5.1332 H       
  55 H55           -2.6214    -2.1439     3.3615 H       
  56 H56            1.7077     1.5133     1.7077 H       
  57 H57            2.3785     3.7033     2.6575 H       
  58 H58            0.1243     3.3256     4.4479 H       
  59 H59           -0.6143     3.5058     2.0912 H       
  60 H60            1.6297     3.8261     0.2770 H       
  61 H61            0.1828     5.6978     3.0249 H       
  62 H62            1.3489     5.8057     1.6844 H       
  63 H63           -0.7003     6.9217     1.1734 H       
  64 H64            2.1444     1.4913     4.7296 H       
  65 H65            3.9745     1.9689     2.5035 H       
  66 H66            6.1330     2.5157     2.9952 H       
  67 H67            6.3006     3.1170     4.6621 H       
  68 H68            6.8123     1.4608     4.2577 H       
  69 H69            2.7139    -0.6386     2.6151 H       
  70 H70            3.3074    -1.8637     4.5779 H       
  71 H71            0.6638    -0.5751     4.8790 H       
  72 H72            0.9279    -1.9152     3.7360 H       
@<TRIPOS>BOND
   1    1    2 1
   2    1   42 1
   3    2    3 1
   4    2    4 2
   5    2    5 1
   6    3   25 1
   7    5    6 1
   8    6    7 1
   9    6   43 1
  10    6   44 1
  11    7    8 1
  12    7   20 1
  13    7   45 1
  14    8    9 1
  15    9   10 1
  16    9   18 1
  17    9   46 1
  18   10   11 1
  19   10   16 am
  20   11   12 2
  21   11   47 1
  22   12   13 1
  23   12   48 1
  24   13   14 1
  25   13   15 2
  26   14   49 1
  27   14   50 1
  28   15   16 1
  29   16   17 2
  30   18   19 1
  31   18   20 1
  32   18   51 1
  33   19   52 1
  34   20   21 1
  35   20   53 1
  36   21   54 1
  37   22   23 1
  38   22   24 2
  39   22   25 1
  40   23   55 1
  41   25   26 1
  42   25   41 1
  43   26   27 1
  44   27   28 1
  45   27   34 1
  46   27   56 1
  47   28   29 1
  48   28   30 1
  49   28   57 1
  50   29   58 1
  51   30   31 1
  52   30   32 1
  53   30   59 1
  54   31   60 1
  55   32   33 1
  56   32   61 1
  57   32   62 1
  58   33   63 1
  59   34   35 1
  60   34   39 1
  61   34   64 1
  62   35   36 am
  63   35   65 1
  64   36   37 2
  65   36   38 1
  66   38   66 1
  67   38   67 1
  68   38   68 1
  69   39   40 1
  70   39   41 1
  71   39   69 1
  72   40   70 1
  73   41   71 1
  74   41   72 1

#	End of record

