#	Name: ASD01881111
#	Creating user name:	WinNT
#	Creation time:	15. 06. 2019 19:42

#	Modifying user name:	WinNT
#	Modification time:	15. 06. 2019 19:42

#	Program:	/corina/corina34_cracker 3.40 0067  02.08.2006

@<TRIPOS>MOLECULE
ASD01881111
  49   52    0    0    0
SMALL
NO_CHARGES


@<TRIPOS>ATOM
   1 N1             0.0645     1.3751    -0.6397 N.ar    
   2 C2             0.1103     0.0791    -0.8729 C.ar    
   3 N3             1.2172    -0.6174    -0.7103 N.ar    
   4 C4             2.3355    -0.0351    -0.3031 C.ar    
   5 C5             2.3333     1.3233    -0.0470 C.ar    
   6 C6             1.1452     2.0292    -0.2289 C.ar    
   7 C7             3.5841     2.0234     0.4182 C.3     
   8 O8             4.3203     2.4867    -0.7155 O.3     
   9 C9             5.4820     3.1437    -0.4692 C.ar    
  10 C10            6.2483     3.6215    -1.5284 C.ar    
  11 C11            7.4228     4.2863    -1.2791 C.ar    
  12 C12            7.8570     4.4880     0.0355 C.ar    
  13 C13            7.0835     4.0060     1.0968 C.ar    
  14 C14            5.9018     3.3435     0.8397 C.ar    
  15 C15            8.4630     4.9157    -2.1720 C.3     
  16 N16            9.4867     5.4712    -1.2795 N.am    
  17 C17            9.1328     5.2219    -0.0071 C.2     
  18 O18            9.7747     5.5556     0.9701 O.2     
  19 C19            3.5940    -0.8437    -0.1208 C.3     
  20 Cl20           7.6072     4.2468     2.7344 Cl      
  21 O21            1.0937     3.3624     0.0088 O.3     
  22 C22           -0.1134     3.9802    -0.0809 C.ar    
  23 C23           -1.0446     3.8374     0.9377 C.ar    
  24 C24           -2.2707     4.4669     0.8443 C.ar    
  25 C25           -2.5703     5.2388    -0.2631 C.ar    
  26 C26           -1.6441     5.3827    -1.2795 C.ar    
  27 C27           -0.4146     4.7596    -1.1886 C.ar    
  28 C28           10.3981     7.6783    -1.8079 C.3     
  29 C29           10.6955     6.1810    -1.7053 C.3     
  30 H30           -0.7841    -0.4265    -1.2061 H       
  31 H31            3.3132     2.8717     1.0469 H       
  32 H32            4.1980     1.3282     0.9908 H       
  33 H33            5.9191     3.4689    -2.5456 H       
  34 H34            5.3043     2.9716     1.6590 H       
  35 H35            8.9034     4.1613    -2.8239 H       
  36 H36            8.0140     5.7105    -2.7678 H       
  37 H37            4.1573    -0.8545    -1.0539 H       
  38 H38            4.2023    -0.3970     0.6656 H       
  39 H39            3.3328    -1.8647     0.1576 H       
  40 H40           -0.8112     3.2343     1.8027 H       
  41 H41           -2.9960     4.3558     1.6368 H       
  42 H42           -3.5296     5.7298    -0.3343 H       
  43 H43           -1.8807     5.9859    -2.1436 H       
  44 H44            0.3087     4.8726    -1.9826 H       
  45 H45            9.6047     7.8421    -2.5371 H       
  46 H46           10.0804     8.0531    -0.8349 H       
  47 H47           11.2975     8.2065    -2.1247 H       
  48 H48           11.4889     6.0172    -0.9761 H       
  49 H49           11.0132     5.8062    -2.6783 H       
@<TRIPOS>BOND
   1    1    2 ar
   2    1    6 ar
   3    2    3 ar
   4    2   30 1
   5    3    4 ar
   6    4    5 ar
   7    4   19 1
   8    5    6 ar
   9    5    7 1
  10    6   21 1
  11    7    8 1
  12    7   31 1
  13    7   32 1
  14    8    9 1
  15    9   10 ar
  16    9   14 ar
  17   10   11 ar
  18   10   33 1
  19   11   12 ar
  20   11   15 1
  21   12   13 ar
  22   12   17 1
  23   13   14 ar
  24   13   20 1
  25   14   34 1
  26   15   16 1
  27   15   35 1
  28   15   36 1
  29   16   17 am
  30   16   29 1
  31   17   18 2
  32   19   37 1
  33   19   38 1
  34   19   39 1
  35   21   22 1
  36   22   23 ar
  37   22   27 ar
  38   23   24 ar
  39   23   40 1
  40   24   25 ar
  41   24   41 1
  42   25   26 ar
  43   25   42 1
  44   26   27 ar
  45   26   43 1
  46   27   44 1
  47   28   29 1
  48   28   45 1
  49   28   46 1
  50   28   47 1
  51   29   48 1
  52   29   49 1

#	End of record

