#	Name: ASD07930055
#	Creating user name:	WinNT
#	Creation time:	15. 06. 2019 21:11

#	Modifying user name:	WinNT
#	Modification time:	15. 06. 2019 21:11

#	Program:	/corina/corina34_cracker 3.40 0067  02.08.2006

@<TRIPOS>MOLECULE
ASD07930055
  55   57    0    0    0
SMALL
NO_CHARGES


@<TRIPOS>ATOM
   1 C1             0.0757     1.0550    -0.2646 C.3     
   2 C2             1.3841     1.8392    -0.1466 C.3     
   3 C3             2.3736     1.3592    -1.2132 C.3     
   4 C4             2.9399     0.0218    -0.8249 C.2     
   5 N5             2.9465    -0.4165     0.4425 N.am    
   6 C6             2.3756     0.3163     1.4532 C.2     
   7 N7             1.9889     1.6030     1.1766 N.pl3   
   8 C8             1.1098     3.3332    -0.3306 C.3     
   9 N9             2.2028    -0.2035     2.6597 N.2     
  10 O10            3.4078    -0.6872    -1.6899 O.2     
  11 C11            3.5748    -1.7026     0.7544 C.3     
  12 C12           -0.9121     1.5449     0.7975 C.3     
  13 O13           -2.1527     0.8517     0.6482 O.3     
  14 C14           -2.7886     1.0590    -0.6147 C.3     
  15 C15           -1.8763     0.5495    -1.7335 C.3     
  16 C16           -0.5298     1.2756    -1.6542 C.3     
  17 C17            3.4942     2.3586    -1.3417 C.ar    
  18 C18            3.7246     2.9869    -2.5512 C.ar    
  19 C19            4.7525     3.9036    -2.6691 C.ar    
  20 C20            5.5498     4.1923    -1.5773 C.ar    
  21 C21            5.3187     3.5647    -0.3676 C.ar    
  22 C22            4.2881     2.6512    -0.2485 C.ar    
  23 S23            6.8965     5.3917    -1.7320 Du      
  24 F24            6.4541     6.0680    -0.3395 F       
  25 F25            7.3388     4.7154    -3.1245 F       
  26 F26            7.8770     4.3934    -0.9357 F       
  27 F27            8.0944     6.4586    -1.8696 F       
  28 F28            5.9159     6.3900    -2.5283 F       
  29 C29            2.2948    -1.5211     2.8370 C.2     
  30 C30            3.2177    -2.0769     3.8907 C.3     
  31 F31            3.1422    -3.4738     3.8870 F       
  32 F32            4.5310    -1.6801     3.6167 F       
  33 F33            2.8368    -1.5926     5.1468 F       
  34 O34            1.6345    -2.2744     2.1489 O.2     
  35 H35            0.2728    -0.0068    -0.1166 H       
  36 H36            1.8591     1.2701    -2.1700 H       
  37 H37            2.1085     2.3202     1.8186 H       
  38 H38            0.4152     3.6724     0.4379 H       
  39 H39            2.0445     3.8874    -0.2457 H       
  40 H40            0.6742     3.5040    -1.3151 H       
  41 H41            4.3379    -1.9246     0.0084 H       
  42 H42            4.0351    -1.6523     1.7412 H       
  43 H43            2.8189    -2.4879     0.7457 H       
  44 H44           -0.5046     1.3512     1.7897 H       
  45 H45           -1.0767     2.6154     0.6746 H       
  46 H46           -3.7330     0.5153    -0.6398 H       
  47 H47           -2.9778     2.1231    -0.7561 H       
  48 H48           -1.7194    -0.5227    -1.6158 H       
  49 H49           -2.3401     0.7468    -2.7000 H       
  50 H50           -0.6803     2.3422    -1.8213 H       
  51 H51            0.1441     0.8779    -2.4130 H       
  52 H52            3.1018     2.7614    -3.4042 H       
  53 H53            4.9330     4.3940    -3.6143 H       
  54 H54            5.9418     3.7900     0.4853 H       
  55 H55            4.1076     2.1608     0.6967 H       
@<TRIPOS>BOND
   1    1   12 1
   2    1    2 1
   3    1   16 1
   4    1   35 1
   5    2    8 1
   6    2    3 1
   7    2    7 1
   8    3    4 1
   9    3   17 1
  10    3   36 1
  11    4    5 am
  12    4   10 2
  13    5    6 1
  14    5   11 1
  15    6    7 1
  16    6    9 2
  17    7   37 1
  18    8   38 1
  19    8   39 1
  20    8   40 1
  21    9   29 1
  22   11   41 1
  23   11   42 1
  24   11   43 1
  25   12   13 1
  26   12   44 1
  27   12   45 1
  28   13   14 1
  29   14   15 1
  30   14   46 1
  31   14   47 1
  32   15   16 1
  33   15   48 1
  34   15   49 1
  35   16   50 1
  36   16   51 1
  37   17   18 ar
  38   17   22 ar
  39   18   19 ar
  40   18   52 1
  41   19   20 ar
  42   19   53 1
  43   20   21 ar
  44   20   23 1
  45   21   22 ar
  46   21   54 1
  47   22   55 1
  48   23   24 1
  49   23   25 1
  50   23   26 1
  51   23   27 1
  52   23   28 1
  53   29   30 1
  54   29   34 2
  55   30   31 1
  56   30   32 1
  57   30   33 1

#	End of record

