#	Name: ASD01913916
#	Creating user name:	WinNT
#	Creation time:	15. 06. 2019 20:02

#	Modifying user name:	WinNT
#	Modification time:	15. 06. 2019 20:02

#	Program:	/corina/corina34_cracker 3.40 0067  02.08.2006

@<TRIPOS>MOLECULE
ASD01913916
  47   49    0    0    0
SMALL
NO_CHARGES


@<TRIPOS>ATOM
   1 C1            -0.0173     1.4278     0.0099 C.ar    
   2 C2             0.0021    -0.0041     0.0020 C.1     
   3 C3             0.0180    -1.1779    -0.0044 C.1     
   4 C4             0.0374    -2.6098    -0.0123 C.ar    
   5 C5            -1.1552    -3.3455    -0.0049 C.ar    
   6 C6             0.0738    -5.2913    -0.0280 C.ar    
   7 N7             1.2234    -4.6330    -0.0407 N.ar    
   8 C8             1.2495    -3.3127    -0.0336 C.ar    
   9 N9            -1.0934    -4.6646    -0.0130 N.ar    
  10 C10            1.1563     3.5243     0.0104 C.ar    
  11 C11           -1.2353     2.1128     0.0310 C.ar    
  12 C12           -0.0549     4.1980     0.0261 C.ar    
  13 N13            0.0926    -6.6794    -0.0361 N.am    
  14 C14            1.1816     2.1458     0.0023 C.ar    
  15 C15            1.1946    -7.4405    -0.0556 C.2     
  16 N16            0.9455    -8.7567    -0.0596 N.am    
  17 C17           -0.5088    -8.9732    -0.0408 C.3     
  18 C18           -1.0941    -7.5477    -0.0182 C.3     
  19 C19           -0.9565    -9.7233    -1.2969 C.3     
  20 C20           -0.9217    -9.7375     1.2187 C.3     
  21 C21            1.9608    -9.8127    -0.0797 C.3     
  22 C22            2.8172    -9.6729    -1.3398 C.3     
  23 C23            2.8510    -9.6878     1.1584 C.3     
  24 O24            2.3191    -6.9787    -0.0689 O.2     
  25 C25           -1.2474     3.4915     0.0390 C.ar    
  26 F26           -0.0732     5.5488     0.0345 F       
  27 H27           -2.1103    -2.8414     0.0077 H       
  28 H28            2.1905    -2.7828    -0.0443 H       
  29 H29            2.0821     4.0803     0.0000 H       
  30 H30           -2.1650     1.5634     0.0408 H       
  31 H31            2.1260     1.6219    -0.0095 H       
  32 H32           -1.6782    -7.3883     0.8881 H       
  33 H33           -1.7041    -7.3706    -0.9039 H       
  34 H34           -0.4555   -10.6904    -1.3404 H       
  35 H35           -2.0355    -9.8742    -1.2648 H       
  36 H36           -0.6973    -9.1398    -2.1803 H       
  37 H37           -0.6381    -9.1640     2.1011 H       
  38 H38           -2.0012    -9.8882     1.2147 H       
  39 H39           -0.4199   -10.7050     1.2374 H       
  40 H40            1.4718   -10.7868    -0.0789 H       
  41 H41            3.3062    -8.6988    -1.3406 H       
  42 H42            3.5726   -10.4586    -1.3547 H       
  43 H43            2.1830    -9.7619    -2.2218 H       
  44 H44            2.2408    -9.7874     2.0562 H       
  45 H45            3.6063   -10.4735     1.1435 H       
  46 H46            3.3399    -8.7137     1.1576 H       
  47 H47           -2.1880     4.0221     0.0508 H       
@<TRIPOS>BOND
   1    1    2 1
   2    1   14 ar
   3    1   11 ar
   4    2    3 3
   5    3    4 1
   6    4    5 ar
   7    4    8 ar
   8    5    9 ar
   9    5   27 1
  10    6    7 ar
  11    6   13 1
  12    6    9 ar
  13    7    8 ar
  14    8   28 1
  15   10   12 ar
  16   10   14 ar
  17   10   29 1
  18   11   25 ar
  19   11   30 1
  20   12   25 ar
  21   12   26 1
  22   13   15 am
  23   13   18 1
  24   14   31 1
  25   15   16 am
  26   15   24 2
  27   16   17 1
  28   16   21 1
  29   17   18 1
  30   17   19 1
  31   17   20 1
  32   18   32 1
  33   18   33 1
  34   19   34 1
  35   19   35 1
  36   19   36 1
  37   20   37 1
  38   20   38 1
  39   20   39 1
  40   21   22 1
  41   21   23 1
  42   21   40 1
  43   22   41 1
  44   22   42 1
  45   22   43 1
  46   23   44 1
  47   23   45 1
  48   23   46 1
  49   25   47 1

#	End of record

