#	Name: ASD09740523
#	Creating user name:	WinNT
#	Creation time:	15. 06. 2019 21:23

#	Modifying user name:	WinNT
#	Modification time:	15. 06. 2019 21:23

#	Program:	/corina/corina34_cracker 3.40 0067  02.08.2006

@<TRIPOS>MOLECULE
ASD09740523
  64   68    0    0    0
SMALL
NO_CHARGES


@<TRIPOS>ATOM
   1 N1            -0.1598     1.3378    -0.9978 N.2     
   2 C2            -0.1050     0.0489    -0.7718 C.2     
   3 C3             0.9716     1.9595    -1.1790 C.2     
   4 S4             2.2952     0.8037    -1.0559 S.3     
   5 C5             1.1346    -0.4879    -0.7536 C.2     
   6 C6             1.1203     3.4050    -1.4464 C.ar    
   7 C7            -0.0075     4.2190    -1.5212 C.ar    
   8 C8             2.3933     3.9569    -1.6185 C.ar    
   9 C9             2.5378     5.3047    -1.8676 C.ar    
  10 C10            1.4211     6.1241    -1.9490 C.ar    
  11 C11            0.1388     5.5821    -1.7731 C.ar    
  12 O12            1.5692     7.4503    -2.1936 O.3     
  13 C13            2.9044     7.9582    -2.2290 C.3     
  14 C14            3.4907     7.7545    -3.6275 C.3     
  15 C15            2.8912     9.4510    -1.8940 C.3     
  16 C16           -1.0155     6.4254    -1.8570 C.1     
  17 N17           -1.9312     7.0943    -1.9236 N.1     
  18 C18            1.4607    -1.9105    -0.5207 C.ar    
  19 C19            2.3150    -2.5853    -1.3976 C.ar    
  20 C20            2.6154    -3.9133    -1.1747 C.ar    
  21 C21            2.0701    -4.5722    -0.0838 C.ar    
  22 C22            1.2243    -3.9093     0.7862 C.ar    
  23 C23            0.9208    -2.5801     0.5777 C.ar    
  24 C24            3.0277    -2.0995    -2.6413 C.3     
  25 C25            4.1342    -3.1426    -2.9057 C.3     
  26 C26            3.5516    -4.4145    -2.2537 C.3     
  27 N27            4.6265    -5.2218    -1.6614 N.3     
  28 C28            5.1742    -6.1695    -2.6411 C.3     
  29 C29            6.5740    -6.6043    -2.2027 C.3     
  30 C30            7.1444    -7.5914    -3.2231 C.3     
  31 C31            6.2336    -8.8176    -3.3107 C.3     
  32 C32            4.8337    -8.3828    -3.7492 C.3     
  33 C33            4.2633    -7.3957    -2.7288 C.3     
  34 H34           -0.9922    -0.5454    -0.6103 H       
  35 H35           -0.9916     3.7956    -1.3848 H       
  36 H36            3.2667     3.3247    -1.5557 H       
  37 H37            3.5240     5.7247    -1.9997 H       
  38 H38            3.5147     7.4273    -1.4984 H       
  39 H39            4.5091     8.1420    -3.6545 H       
  40 H40            3.5001     6.6910    -3.8662 H       
  41 H41            2.8804     8.2855    -4.3581 H       
  42 H42            2.4736     9.5962    -0.8977 H       
  43 H43            3.9097     9.8385    -1.9210 H       
  44 H44            2.2810     9.9820    -2.6246 H       
  45 H45            2.3075    -5.6117     0.0878 H       
  46 H46            0.8043    -4.4318     1.6330 H       
  47 H47            0.2604    -2.0619     1.2572 H       
  48 H48            2.3359    -2.0603    -3.4828 H       
  49 H49            3.4675    -1.1176    -2.4662 H       
  50 H50            4.2818    -3.2884    -3.9758 H       
  51 H51            5.0659    -2.8506    -2.4211 H       
  52 H52            3.0009    -4.9990    -2.9907 H       
  53 H53            5.3533    -4.6336    -1.2819 H       
  54 H54            5.2322    -5.6894    -3.6179 H       
  55 H55            7.2229    -5.7308    -2.1402 H       
  56 H56            6.5161    -7.0845    -1.2258 H       
  57 H57            7.2024    -7.1113    -4.1999 H       
  58 H58            8.1417    -7.9012    -2.9107 H       
  59 H59            6.6399    -9.5208    -4.0377 H       
  60 H60            6.1756    -9.2978    -2.3339 H       
  61 H61            4.8917    -7.9027    -4.7260 H       
  62 H62            4.1848    -9.2564    -3.8116 H       
  63 H63            4.2054    -7.8759    -1.7519 H       
  64 H64            3.2661    -7.0859    -3.0411 H       
@<TRIPOS>BOND
   1    1    2 1
   2    1    3 2
   3    2    5 2
   4    2   34 1
   5    3    4 1
   6    3    6 1
   7    4    5 1
   8    5   18 1
   9    6    7 ar
  10    6    8 ar
  11    7   11 ar
  12    7   35 1
  13    8    9 ar
  14    8   36 1
  15    9   10 ar
  16    9   37 1
  17   10   11 ar
  18   10   12 1
  19   11   16 1
  20   12   13 1
  21   13   14 1
  22   13   15 1
  23   13   38 1
  24   14   39 1
  25   14   40 1
  26   14   41 1
  27   15   42 1
  28   15   43 1
  29   15   44 1
  30   16   17 3
  31   18   19 ar
  32   18   23 ar
  33   19   20 ar
  34   19   24 1
  35   20   21 ar
  36   20   26 1
  37   21   22 ar
  38   21   45 1
  39   22   23 ar
  40   22   46 1
  41   23   47 1
  42   24   25 1
  43   24   48 1
  44   24   49 1
  45   25   26 1
  46   25   50 1
  47   25   51 1
  48   26   27 1
  49   26   52 1
  50   27   28 1
  51   27   53 1
  52   28   29 1
  53   28   33 1
  54   28   54 1
  55   29   30 1
  56   29   55 1
  57   29   56 1
  58   30   31 1
  59   30   57 1
  60   30   58 1
  61   31   32 1
  62   31   59 1
  63   31   60 1
  64   32   33 1
  65   32   61 1
  66   32   62 1
  67   33   63 1
  68   33   64 1

#	End of record

