#	Name: ASD06020024
#	Creating user name:	WinNT
#	Creation time:	15. 06. 2019 21:04

#	Modifying user name:	WinNT
#	Modification time:	15. 06. 2019 21:04

#	Program:	/corina/corina34_cracker 3.40 0067  02.08.2006

@<TRIPOS>MOLECULE
ASD06020024
  43   46    0    0    0
SMALL
NO_CHARGES


@<TRIPOS>ATOM
   1 C1            -0.2117     1.1114     0.4535 C.ar    
   2 C2             0.9001     1.9408     0.6478 C.ar    
   3 C3             2.1298     1.3412     0.8506 C.ar    
   4 C4             2.1877    -0.0535     0.8493 C.ar    
   5 N5             1.0806    -0.7623     0.6567 N.ar    
   6 N6            -0.0616    -0.2078     0.4683 N.ar    
   7 C7            -1.5496     1.7030     0.2386 C.2     
   8 O8            -1.7088     2.9028     0.3512 O.2     
   9 N9            -2.5926     0.9120    -0.0822 N.am    
  10 C10           -3.9393     1.4800    -0.1819 C.3     
  11 C11           -2.3796    -0.5159    -0.3312 C.3     
  12 N12            3.3989    -0.6981     1.0481 N.pl3   
  13 C13            3.4390    -2.0849     1.1597 C.ar    
  14 C14            4.6459    -2.7238     1.4629 C.ar    
  15 C15            4.6796    -4.1186     1.5737 C.ar    
  16 C16            3.4597    -4.8117     1.3668 C.ar    
  17 C17            2.3318    -4.1114     1.0759 C.ar    
  18 N18            2.3354    -2.7908     0.9841 N.ar    
  19 S19            6.2665    -2.1050     1.7607 S.3     
  20 C20            6.8570    -3.7435     2.0078 C.2     
  21 N21            5.8916    -4.5923     1.8661 N.2     
  22 C22            8.2552    -4.0989     2.3299 C.ar    
  23 C23            8.6163    -5.4365     2.5060 C.ar    
  24 C24            9.9246    -5.7612     2.8063 C.ar    
  25 C25           10.8763    -4.7654     2.9327 C.ar    
  26 C26           10.5259    -3.4384     2.7596 C.ar    
  27 C27            9.2225    -3.0993     2.4538 C.ar    
  28 Cl28           8.7865    -1.4339     2.2299 Cl      
  29 Cl29           7.4234    -6.6879     2.3484 Cl      
  30 H30            0.8002     3.0162     0.6392 H       
  31 H31            3.0189     1.9345     1.0051 H       
  32 H32           -3.9509     2.2549    -0.9485 H       
  33 H33           -4.6462     0.6944    -0.4487 H       
  34 H34           -4.2227     1.9135     0.7772 H       
  35 H35           -2.3835    -1.0545     0.6164 H       
  36 H36           -3.1776    -0.8966    -0.9687 H       
  37 H37           -1.4193    -0.6591    -0.8266 H       
  38 H38            4.2183    -0.1827     1.1095 H       
  39 H39            3.4273    -5.8887     1.4397 H       
  40 H40            1.4067    -4.6464     0.9197 H       
  41 H41           10.2052    -6.7951     2.9431 H       
  42 H42           11.8979    -5.0251     3.1680 H       
  43 H43           11.2742    -2.6662     2.8597 H       
@<TRIPOS>BOND
   1    1    2 ar
   2    1    6 ar
   3    1    7 1
   4    2    3 ar
   5    2   30 1
   6    3    4 ar
   7    3   31 1
   8    4    5 ar
   9    4   12 1
  10    5    6 ar
  11    7    8 2
  12    7    9 am
  13    9   10 1
  14    9   11 1
  15   10   32 1
  16   10   33 1
  17   10   34 1
  18   11   35 1
  19   11   36 1
  20   11   37 1
  21   12   13 1
  22   12   38 1
  23   13   14 ar
  24   13   18 ar
  25   14   15 ar
  26   14   19 1
  27   15   16 ar
  28   15   21 1
  29   16   17 ar
  30   16   39 1
  31   17   18 ar
  32   17   40 1
  33   19   20 1
  34   20   21 2
  35   20   22 1
  36   22   23 ar
  37   22   27 ar
  38   23   24 ar
  39   23   29 1
  40   24   25 ar
  41   24   41 1
  42   25   26 ar
  43   25   42 1
  44   26   27 ar
  45   26   43 1
  46   27   28 1

#	End of record

