#	Name: ASD01917072
#	Creating user name:	WinNT
#	Creation time:	15. 06. 2019 20:08

#	Modifying user name:	WinNT
#	Modification time:	15. 06. 2019 20:08

#	Program:	/corina/corina34_cracker 3.40 0067  02.08.2006

@<TRIPOS>MOLECULE
ASD01917072
  41   43    0    0    0
SMALL
NO_CHARGES


@<TRIPOS>ATOM
   1 C1            -0.0426     1.4704     0.1528 C.ar    
   2 C2            -0.0086    -0.0061     0.0639 C.2     
   3 N3             1.0564    -0.7657     0.2109 N.2     
   4 C4             0.7168    -2.0513     0.0661 C.2     
   5 N5            -0.5741    -2.1277    -0.1759 N.2     
   6 N6            -1.0680    -0.8132    -0.1769 N.pl3   
   7 C7            -2.4545    -0.3971    -0.4022 C.3     
   8 C8            -3.1962    -0.3896     0.9097 C.2     
   9 O9            -4.4911    -0.0381     0.9466 O.3     
  10 O10           -2.6252    -0.6999     1.9283 O.2     
  11 C11           -5.1417    -0.0536     2.2446 C.3     
  12 C12            1.6456    -3.2047     0.1628 C.ar    
  13 C13            1.1305     2.2085    -0.0074 C.ar    
  14 C14            1.0934     3.5846     0.0758 C.ar    
  15 C15           -0.1065     4.2344     0.3181 C.ar    
  16 C16           -1.2746     3.5058     0.4780 C.ar    
  17 C17           -1.2490     2.1296     0.3913 C.ar    
  18 C18            1.1679    -4.5021    -0.0086 C.ar    
  19 C19            2.0332    -5.5742     0.0822 C.ar    
  20 C20            3.3758    -5.3636     0.3429 C.ar    
  21 C21            3.8595    -4.0715     0.5146 C.ar    
  22 C22            2.9984    -2.9921     0.4196 C.ar    
  23 F23           -0.1376     5.5826     0.3992 F       
  24 F24            4.2184    -6.4160     0.4312 F       
  25 O25            5.1791    -3.8680     0.7711 O.3     
  26 C26            5.6066    -2.5145     0.9364 C.3     
  27 H27           -2.4680     0.6041    -0.8329 H       
  28 H28           -2.9362    -1.0942    -1.0878 H       
  29 H29           -6.1825     0.2501     2.1330 H       
  30 H30           -5.0995    -1.0604     2.6601 H       
  31 H31           -4.6313     0.6379     2.9151 H       
  32 H32            2.0661     1.7030    -0.1959 H       
  33 H33            2.0009     4.1568    -0.0477 H       
  34 H34           -2.2071     4.0168     0.6666 H       
  35 H35           -2.1598     1.5627     0.5156 H       
  36 H36            0.1205    -4.6693    -0.2122 H       
  37 H37            1.6613    -6.5794    -0.0503 H       
  38 H38            3.3727    -1.9878     0.5524 H       
  39 H39            5.3951    -1.9529     0.0264 H       
  40 H40            5.0728    -2.0645     1.7734 H       
  41 H41            6.6781    -2.4937     1.1354 H       
@<TRIPOS>BOND
   1    1    2 1
   2    1   13 ar
   3    1   17 ar
   4    2    3 2
   5    2    6 1
   6    3    4 1
   7    4    5 2
   8    4   12 1
   9    5    6 1
  10    6    7 1
  11    7    8 1
  12    7   27 1
  13    7   28 1
  14    8    9 1
  15    8   10 2
  16    9   11 1
  17   11   29 1
  18   11   30 1
  19   11   31 1
  20   12   18 ar
  21   12   22 ar
  22   13   14 ar
  23   13   32 1
  24   14   15 ar
  25   14   33 1
  26   15   16 ar
  27   15   23 1
  28   16   17 ar
  29   16   34 1
  30   17   35 1
  31   18   19 ar
  32   18   36 1
  33   19   20 ar
  34   19   37 1
  35   20   21 ar
  36   20   24 1
  37   21   22 ar
  38   21   25 1
  39   22   38 1
  40   25   26 1
  41   26   39 1
  42   26   40 1
  43   26   41 1

#	End of record

