#	Name: ASD03912017
#	Creating user name:	WinNT
#	Creation time:	15. 06. 2019 20:47

#	Modifying user name:	WinNT
#	Modification time:	15. 06. 2019 20:47

#	Program:	/corina/corina34_cracker 3.40 0067  02.08.2006

@<TRIPOS>MOLECULE
ASD03912017
  49   51    0    0    0
SMALL
NO_CHARGES


@<TRIPOS>ATOM
   1 C1            -0.3546     1.7750     0.8364 C.ar    
   2 C2            -0.1302     0.6835     0.0176 C.ar    
   3 C3            -1.1586     0.1814    -0.7637 C.ar    
   4 C4            -2.4081     0.7657    -0.7294 C.ar    
   5 C5            -2.6365     1.8621     0.0919 C.ar    
   6 C6            -1.6049     2.3670     0.8702 C.ar    
   7 C7             0.9163     2.1266     1.5799 C.3     
   8 C8             1.8126     0.8757     1.4618 C.3     
   9 C9             1.3069     0.2277     0.1556 C.3     
  10 N10           -3.9015     2.4589     0.1303 N.am    
  11 C11           -5.0089     1.6988     0.0192 C.2     
  12 C12           -6.3713     2.3264     0.1639 C.3     
  13 O13           -4.9089     0.5096    -0.1972 O.2     
  14 C14           -7.4318     1.2687    -0.0018 C.ar    
  15 C15           -7.8901     0.5721     1.1011 C.ar    
  16 C16           -8.8622    -0.3980     0.9519 C.ar    
  17 C17           -9.3787    -0.6731    -0.3060 C.ar    
  18 C18           -8.9172     0.0273    -1.4111 C.ar    
  19 C19           -7.9490     1.0004    -1.2557 C.ar    
  20 O20          -10.3347    -1.6273    -0.4555 O.3     
  21 C21          -10.9086    -1.7725    -1.7562 C.3     
  22 C22          -10.2471    -2.9489    -2.4770 C.3     
  23 C23           -8.7698    -2.6330    -2.7193 C.3     
  24 C24          -12.3877    -2.0302    -1.6267 C.2     
  25 O25          -12.8981    -2.0839    -0.5329 O.2     
  26 O26          -13.1382    -2.2000    -2.7266 O.3     
  27 H27           -0.9813    -0.6710    -1.4027 H       
  28 H28           -3.2067     0.3714    -1.3403 H       
  29 H29           -1.7802     3.2195     1.5097 H       
  30 H30            1.4015     2.9848     1.1148 H       
  31 H31            0.6963     2.3369     2.6266 H       
  32 H32            2.8618     1.1577     1.3735 H       
  33 H33            1.6598     0.2082     2.3099 H       
  34 H34            1.3537    -0.8587     0.2295 H       
  35 H35            1.8970     0.5756    -0.6923 H       
  36 H36           -3.9815     3.4197     0.2368 H       
  37 H37           -6.4601     2.7783     1.1518 H       
  38 H38           -6.5009     3.0936    -0.5995 H       
  39 H39           -7.4875     0.7863     2.0801 H       
  40 H40           -9.2196    -0.9421     1.8136 H       
  41 H41           -9.3177    -0.1850    -2.3914 H       
  42 H42           -7.5894     1.5459    -2.1157 H       
  43 H43          -10.7477    -0.8588    -2.3284 H       
  44 H44          -10.3310    -3.8452    -1.8624 H       
  45 H45          -10.7445    -3.1156    -3.4324 H       
  46 H46           -8.2725    -2.4662    -1.7638 H       
  47 H47           -8.2986    -3.4711    -3.2328 H       
  48 H48           -8.6860    -1.7367    -3.3339 H       
  49 H49          -14.0820    -2.3627    -2.5932 H       
@<TRIPOS>BOND
   1    1    2 ar
   2    1    7 1
   3    1    6 ar
   4    2    3 ar
   5    2    9 1
   6    3    4 ar
   7    3   27 1
   8    4    5 ar
   9    4   28 1
  10    5    6 ar
  11    5   10 1
  12    6   29 1
  13    7    8 1
  14    7   30 1
  15    7   31 1
  16    8    9 1
  17    8   32 1
  18    8   33 1
  19    9   34 1
  20    9   35 1
  21   10   11 am
  22   10   36 1
  23   11   12 1
  24   11   13 2
  25   12   14 1
  26   12   37 1
  27   12   38 1
  28   14   15 ar
  29   14   19 ar
  30   15   16 ar
  31   15   39 1
  32   16   17 ar
  33   16   40 1
  34   17   18 ar
  35   17   20 1
  36   18   19 ar
  37   18   41 1
  38   19   42 1
  39   20   21 1
  40   21   22 1
  41   21   24 1
  42   21   43 1
  43   22   23 1
  44   22   44 1
  45   22   45 1
  46   23   46 1
  47   23   47 1
  48   23   48 1
  49   24   25 2
  50   24   26 1
  51   26   49 1

#	End of record

