#	Name: ASD03370002
#	Creating user name:	WinNT
#	Creation time:	15. 06. 2019 20:40

#	Modifying user name:	WinNT
#	Modification time:	15. 06. 2019 20:40

#	Program:	/corina/corina34_cracker 3.40 0067  02.08.2006

@<TRIPOS>MOLECULE
ASD03370002
  44   46    0    0    0
SMALL
NO_CHARGES


@<TRIPOS>ATOM
   1 C1            -0.0620     1.8797    -0.7288 C.3     
   2 N2             0.3495     0.5496    -0.2582 N.am    
   3 C3            -0.3186    -0.5678    -0.9270 C.3     
   4 C4            -0.5860    -0.1819    -2.4095 C.3     
   5 S5            -1.1390     1.5606    -2.1801 S.3     
   6 C6             1.3814     2.2101    -1.1046 C.3     
   7 C7             1.6336     0.8334    -0.5506 C.2     
   8 C8             0.6941    -0.2552    -3.2443 C.3     
   9 C9            -1.6945    -1.0429    -3.0185 C.3     
  10 O10            2.6540     0.1925    -0.4131 O.2     
  11 N11            1.6175     2.3345    -2.5451 N.am    
  12 C12            2.6765     3.0354    -2.9963 C.2     
  13 C13            2.9194     3.1634    -4.4781 C.3     
  14 O14            3.4340     3.5632    -2.2099 O.2     
  15 C15            4.1573     3.9896    -4.7147 C.ar    
  16 C16            4.0754     5.1668    -5.4347 C.ar    
  17 C17            5.2109     5.9247    -5.6518 C.ar    
  18 C18            6.4282     5.5056    -5.1485 C.ar    
  19 C19            6.5100     4.3289    -4.4277 C.ar    
  20 C20            5.3737     3.5732    -4.2070 C.ar    
  21 C21            3.1080     1.7932    -5.0764 C.2     
  22 O22            3.3393     1.6614    -6.3921 O.3     
  23 O23            3.0511     0.8133    -4.3719 O.2     
  24 C24            0.5626    -1.7892    -0.8734 C.2     
  25 O25            1.5734    -1.7763    -0.2117 O.2     
  26 O26            0.2245    -2.8914    -1.5609 O.3     
  27 H27           -0.4992     2.5281     0.0305 H       
  28 H28           -1.2642    -0.7802    -0.4281 H       
  29 H29            1.8243     3.0175    -0.5217 H       
  30 H30            0.9873    -1.2976    -3.3691 H       
  31 H31            0.5162     0.1918    -4.2224 H       
  32 H32            1.4908     0.2880    -2.7361 H       
  33 H33           -2.6156    -0.9028    -2.4528 H       
  34 H34           -1.8562    -0.7472    -4.0551 H       
  35 H35           -1.4014    -2.0921    -2.9814 H       
  36 H36            1.0116     1.9124    -3.1741 H       
  37 H37            2.0632     3.6495    -4.9460 H       
  38 H38            3.1243     5.4943    -5.8280 H       
  39 H39            5.1470     6.8441    -6.2149 H       
  40 H40            7.3155     6.0973    -5.3187 H       
  41 H41            7.4611     4.0013    -4.0348 H       
  42 H42            5.4375     2.6539    -3.6438 H       
  43 H43            3.4538     0.7625    -6.7298 H       
  44 H44            0.8209    -3.6497    -1.4956 H       
@<TRIPOS>BOND
   1    1    2 1
   2    1    6 1
   3    1    5 1
   4    1   27 1
   5    2    3 1
   6    2    7 am
   7    3    4 1
   8    3   24 1
   9    3   28 1
  10    4    5 1
  11    4    8 1
  12    4    9 1
  13    6    7 1
  14    6   11 1
  15    6   29 1
  16    7   10 2
  17    8   30 1
  18    8   31 1
  19    8   32 1
  20    9   33 1
  21    9   34 1
  22    9   35 1
  23   11   12 am
  24   11   36 1
  25   12   13 1
  26   12   14 2
  27   13   15 1
  28   13   21 1
  29   13   37 1
  30   15   16 ar
  31   15   20 ar
  32   16   17 ar
  33   16   38 1
  34   17   18 ar
  35   17   39 1
  36   18   19 ar
  37   18   40 1
  38   19   20 ar
  39   19   41 1
  40   20   42 1
  41   21   22 1
  42   21   23 2
  43   22   43 1
  44   24   25 2
  45   24   26 1
  46   26   44 1

#	End of record

