#	Name: ASD00100122
#	Creating user name:	WinNT
#	Creation time:	15. 06. 2019 18:30

#	Modifying user name:	WinNT
#	Modification time:	15. 06. 2019 18:30

#	Program:	/corina/corina34_cracker 3.40 0067  02.08.2006

@<TRIPOS>MOLECULE
ASD00100122
  42   44    0    0    0
SMALL
NO_CHARGES


@<TRIPOS>ATOM
   1 N1            -0.1256     1.5363     0.3559 N.pl3   
   2 C2            -0.0183     0.1677     0.1770 C.2     
   3 N3             1.1016    -0.4979     0.0327 N.2     
   4 C4             0.8186    -1.8162    -0.1183 C.2     
   5 C5            -0.5284    -1.9622    -0.0641 C.2     
   6 N6            -1.0578    -0.7092     0.1280 N.pl3   
   7 C7             1.8077    -2.9050    -0.3089 C.ar    
   8 C8             3.1695    -2.6134    -0.3451 C.ar    
   9 C9             4.0880    -3.6345    -0.5234 C.ar    
  10 C10            3.6510    -4.9446    -0.6656 C.ar    
  11 C11            2.3000    -5.2346    -0.6299 C.ar    
  12 C12            1.3777    -4.2237    -0.4468 C.ar    
  13 O13            5.4172    -3.3539    -0.5596 O.3     
  14 C14            6.3079    -4.4556    -0.7467 C.3     
  15 C15           -2.4793    -0.3778     0.2534 C.3     
  16 C16           -3.0242     0.0161    -1.0953 C.ar    
  17 C17           -3.4568    -0.9600    -1.9815 C.ar    
  18 C18           -3.9578    -0.5942    -3.2222 C.ar    
  19 C19           -4.0247     0.7406    -3.5726 C.ar    
  20 C20           -3.5926     1.7112    -2.6881 C.ar    
  21 C21           -3.0985     1.3495    -1.4482 C.ar    
  22 O22           -3.3895    -2.2722    -1.6346 O.3     
  23 C23           -3.8526    -3.2221    -2.5965 C.3     
  24 H24            0.6743     2.0794     0.4341 H       
  25 H25           -1.0006     1.9527     0.3989 H       
  26 H26           -1.0794    -2.8870    -0.1510 H       
  27 H27            3.5080    -1.5938    -0.2346 H       
  28 H28            4.3687    -5.7395    -0.8050 H       
  29 H29            1.9652    -6.2553    -0.7414 H       
  30 H30            0.3231    -4.4541    -0.4144 H       
  31 H31            6.1810    -5.1679     0.0686 H       
  32 H32            6.0860    -4.9454    -1.6948 H       
  33 H33            7.3361    -4.0940    -0.7564 H       
  34 H34           -3.0234    -1.2458     0.6256 H       
  35 H35           -2.5988     0.4520     0.9500 H       
  36 H36           -4.2948    -1.3521    -3.9138 H       
  37 H37           -4.4147     1.0260    -4.5385 H       
  38 H38           -3.6451     2.7540    -2.9642 H       
  39 H39           -2.7660     2.1098    -0.7571 H       
  40 H40           -4.9025    -3.0315    -2.8191 H       
  41 H41           -3.2650    -3.1301    -3.5100 H       
  42 H42           -3.7435    -4.2293    -2.1942 H       
@<TRIPOS>BOND
   1    1    2 1
   2    1   24 1
   3    1   25 1
   4    2    3 2
   5    2    6 1
   6    3    4 1
   7    4    5 2
   8    4    7 1
   9    5    6 1
  10    5   26 1
  11    6   15 1
  12    7    8 ar
  13    7   12 ar
  14    8    9 ar
  15    8   27 1
  16    9   10 ar
  17    9   13 1
  18   10   11 ar
  19   10   28 1
  20   11   12 ar
  21   11   29 1
  22   12   30 1
  23   13   14 1
  24   14   31 1
  25   14   32 1
  26   14   33 1
  27   15   16 1
  28   15   34 1
  29   15   35 1
  30   16   17 ar
  31   16   21 ar
  32   17   18 ar
  33   17   22 1
  34   18   19 ar
  35   18   36 1
  36   19   20 ar
  37   19   37 1
  38   20   21 ar
  39   20   38 1
  40   21   39 1
  41   22   23 1
  42   23   40 1
  43   23   41 1
  44   23   42 1

#	End of record

