#	Name: ASD08830034
#	Creating user name:	WinNT
#	Creation time:	15. 06. 2019 21:19

#	Modifying user name:	WinNT
#	Modification time:	15. 06. 2019 21:19

#	Program:	/corina/corina34_cracker 3.40 0067  02.08.2006

@<TRIPOS>MOLECULE
ASD08830034
  55   58    0    0    0
SMALL
NO_CHARGES


@<TRIPOS>ATOM
   1 C1             0.5487    -0.1073    -1.8850 C.ar    
   2 C2             0.9526    -1.3318    -2.4765 C.ar    
   3 C3             1.5189     0.7683    -1.3616 C.ar    
   4 C4             2.8336     0.4411    -1.4238 C.ar    
   5 C5             3.2490    -0.7716    -2.0089 C.ar    
   6 C6             2.3159    -1.6555    -2.5331 C.ar    
   7 C7             4.6808    -1.1027    -2.0650 C.2     
   8 C8             5.6981    -0.1465    -1.4979 C.3     
   9 C9             7.1018    -0.7264    -1.6829 C.3     
  10 N10            8.0935     0.2057    -1.1300 N.3     
  11 O11            5.0428    -2.1453    -2.5676 O.2     
  12 C12            9.4242    -0.4140    -1.0732 C.3     
  13 C13           -0.8172     0.2143    -1.8368 C.ar    
  14 C14           -0.0228    -2.2012    -2.9971 C.ar    
  15 C15           -1.3381    -1.8573    -2.9269 C.ar    
  16 C16           -1.7333    -0.6495    -2.3561 C.ar    
  17 C17           10.4582     0.6406    -0.6647 C.3     
  18 N18           10.0122     1.2720     0.5865 N.am    
  19 C19            8.6392     1.7954     0.6511 C.3     
  20 C20            7.6768     0.6953     0.1908 C.3     
  21 C21           10.8400     1.3689     1.6457 C.2     
  22 O22           10.6468     2.2200     2.4924 O.2     
  23 N23           11.8818     0.5225     1.7665 N.am    
  24 C24           11.8802    -0.7826     1.0868 C.3     
  25 C25           13.0573     0.8788     2.5769 C.3     
  26 C26           14.3152     0.6487     1.7315 C.3     
  27 O27           14.2889    -0.6783     1.2002 O.3     
  28 C28           13.1978    -0.9285     0.3170 C.3     
  29 H29            1.2159     1.7015    -0.9104 H       
  30 H30            3.5714     1.1187    -1.0202 H       
  31 H31            2.6371    -2.5843    -2.9810 H       
  32 H32            5.6283     0.8089    -2.0179 H       
  33 H33            5.5038     0.0029    -0.4358 H       
  34 H34            7.1717    -1.6818    -1.1628 H       
  35 H35            7.2961    -0.8758    -2.7450 H       
  36 H36            9.4186    -1.2209    -0.3403 H       
  37 H37            9.6811    -0.8146    -2.0538 H       
  38 H38           -1.1401     1.1427    -1.3893 H       
  39 H39            0.2702    -3.1366    -3.4505 H       
  40 H40           -2.0852    -2.5264    -3.3276 H       
  41 H41           -2.7833    -0.4005    -2.3123 H       
  42 H42           11.4259     0.1637    -0.5096 H       
  43 H43           10.5400     1.3953    -1.4469 H       
  44 H44            8.4044     2.0820     1.6762 H       
  45 H45            8.5462     2.6611    -0.0046 H       
  46 H46            6.6665     1.0993     0.1268 H       
  47 H47            7.6956    -0.1270     0.9060 H       
  48 H48           11.7957    -1.5806     1.8245 H       
  49 H49           11.0417    -0.8338     0.3923 H       
  50 H50           12.9979     1.9273     2.8687 H       
  51 H51           13.0934     0.2510     3.4672 H       
  52 H52           14.3405     1.3681     0.9130 H       
  53 H53           15.2006     0.7738     2.3547 H       
  54 H54           13.2737    -1.9417    -0.0776 H       
  55 H55           13.2240    -0.2138    -0.5056 H       
@<TRIPOS>BOND
   1    1    2 ar
   2    1    3 ar
   3    1   13 ar
   4    2   14 ar
   5    2    6 ar
   6    3    4 ar
   7    3   29 1
   8    4    5 ar
   9    4   30 1
  10    5    6 ar
  11    5    7 1
  12    6   31 1
  13    7    8 1
  14    7   11 2
  15    8    9 1
  16    8   32 1
  17    8   33 1
  18    9   10 1
  19    9   34 1
  20    9   35 1
  21   10   12 1
  22   10   20 1
  23   12   17 1
  24   12   36 1
  25   12   37 1
  26   13   16 ar
  27   13   38 1
  28   14   15 ar
  29   14   39 1
  30   15   16 ar
  31   15   40 1
  32   16   41 1
  33   17   18 1
  34   17   42 1
  35   17   43 1
  36   18   19 1
  37   18   21 am
  38   19   20 1
  39   19   44 1
  40   19   45 1
  41   20   46 1
  42   20   47 1
  43   21   22 2
  44   21   23 am
  45   23   24 1
  46   23   25 1
  47   24   28 1
  48   24   48 1
  49   24   49 1
  50   25   26 1
  51   25   50 1
  52   25   51 1
  53   26   27 1
  54   26   52 1
  55   26   53 1
  56   27   28 1
  57   28   54 1
  58   28   55 1

#	End of record

