#	Name: ASD01230543
#	Creating user name:	WinNT
#	Creation time:	15. 06. 2019 19:14

#	Modifying user name:	WinNT
#	Modification time:	15. 06. 2019 19:14

#	Program:	/corina/corina34_cracker 3.40 0067  02.08.2006

@<TRIPOS>MOLECULE
ASD01230543
  37   40    0    0    0
SMALL
NO_CHARGES


@<TRIPOS>ATOM
   1 S1            -0.0204     1.6504     0.0111 S.o2    
   2 N2             0.0021    -0.0041     0.0020 N.am    
   3 C3             1.0229    -0.6873    -0.4557 C.2     
   4 N4             2.1689    -0.1518    -0.9712 N.pl3   
   5 C5             2.3934     1.2854    -1.1473 C.3     
   6 C6             1.7501     2.0749    -0.0035 C.3     
   7 C7             0.8951    -2.1590    -0.3951 C.2     
   8 C8             1.9456    -2.9420    -0.8227 C.2     
   9 C9             3.1044    -2.3190    -1.3056 C.2     
  10 C10            3.1910    -0.9789    -1.3650 C.2     
  11 C11           -0.3449    -2.7835     0.1187 C.ar    
  12 C12           -0.3140    -3.5357     1.2938 C.ar    
  13 C13           -1.4703    -4.1159     1.7695 C.ar    
  14 C14           -2.6659    -3.9524     1.0804 C.ar    
  15 C15           -2.6999    -3.2043    -0.0902 C.ar    
  16 C16           -1.5483    -2.6164    -0.5679 C.ar    
  17 N17           -3.8395    -4.5435     1.5667 N.pl3   
  18 N18           -3.9520    -5.3197     2.7274 N.2     
  19 C19           -5.2003    -5.6937     2.8502 C.2     
  20 C20           -5.9228    -5.1687     1.7733 C.2     
  21 C21           -5.0654    -4.4608     1.0017 C.2     
  22 O22           -0.6346     2.0065    -1.2198 O.2     
  23 O23           -0.6110     1.9931     1.2573 O.2     
  24 H24            3.4654     1.4826    -1.1617 H       
  25 H25            1.9572     1.6041    -2.0939 H       
  26 H26            1.8743     3.1443    -0.1744 H       
  27 H27            2.2074     1.7939     0.9452 H       
  28 H28            1.8770    -4.0192    -0.7860 H       
  29 H29            3.9377    -2.9227    -1.6336 H       
  30 H30            4.1020    -0.5348    -1.7381 H       
  31 H31            0.6150    -3.6635     1.8296 H       
  32 H32           -1.4470    -4.6985     2.6786 H       
  33 H33           -3.6306    -3.0797    -0.6239 H       
  34 H34           -1.5765    -2.0308    -1.4750 H       
  35 H35           -5.6031    -6.3030     3.6458 H       
  36 H36           -6.9793    -5.3011     1.5921 H       
  37 H37           -5.3148    -3.9280     0.0960 H       
@<TRIPOS>BOND
   1    1    2 am
   2    1    6 1
   3    1   22 2
   4    1   23 2
   5    2    3 2
   6    3    4 1
   7    3    7 1
   8    4    5 1
   9    4   10 1
  10    5    6 1
  11    5   24 1
  12    5   25 1
  13    6   26 1
  14    6   27 1
  15    7    8 2
  16    7   11 1
  17    8    9 1
  18    8   28 1
  19    9   10 2
  20    9   29 1
  21   10   30 1
  22   11   12 ar
  23   11   16 ar
  24   12   13 ar
  25   12   31 1
  26   13   14 ar
  27   13   32 1
  28   14   15 ar
  29   14   17 1
  30   15   16 ar
  31   15   33 1
  32   16   34 1
  33   17   18 1
  34   17   21 1
  35   18   19 2
  36   19   20 1
  37   19   35 1
  38   20   21 2
  39   20   36 1
  40   21   37 1

#	End of record

