#	Name: ASD02448106
#	Creating user name:	WinNT
#	Creation time:	15. 06. 2019 20:21

#	Modifying user name:	WinNT
#	Modification time:	15. 06. 2019 20:21

#	Program:	/corina/corina34_cracker 3.40 0067  02.08.2006

@<TRIPOS>MOLECULE
ASD02448106
  76   81    0    0    0
SMALL
NO_CHARGES


@<TRIPOS>ATOM
   1 C1             3.8711    -7.3548    -2.2594 C.ar    
   2 C2             3.2636    -6.4511    -1.4109 C.ar    
   3 C3             2.5539    -5.3779    -1.9325 C.ar    
   4 C4             2.4545    -5.2134    -3.3074 C.ar    
   5 C5             3.0617    -6.1166    -4.1565 C.ar    
   6 C6             3.7723    -7.1903    -3.6351 C.ar    
   7 N7             4.3879    -8.1051    -4.4948 N.am    
   8 C8             5.5462    -8.9648    -4.2185 C.3     
   9 C9             5.8959    -9.8035    -5.4052 C.2     
  10 N10            5.1081    -9.6204    -6.4741 N.am    
  11 S11            3.9704    -8.4755    -6.0670 S.o2    
  12 O12            6.8207   -10.5882    -5.4014 O.2     
  13 O13            2.7102    -9.1311    -6.0305 O.2     
  14 O14            4.2406    -7.3196    -6.8482 O.2     
  15 N15            1.9364    -4.4593    -1.0695 N.pl3   
  16 C16            1.0305    -4.7524    -0.0858 C.2     
  17 C17            2.1310    -3.1149    -1.0513 C.2     
  18 N18            1.3878    -2.5937    -0.1153 N.2     
  19 C19            0.6956    -3.5734     0.5006 C.2     
  20 C20           -0.2618    -3.3955     1.6199 C.ar    
  21 C21           -0.5139    -2.1217     2.1295 C.ar    
  22 C22           -0.9165    -4.4994     2.1619 C.ar    
  23 C23           -1.8063    -4.3288     3.2032 C.ar    
  24 C24           -2.0492    -3.0637     3.7096 C.ar    
  25 C25           -1.4060    -1.9621     3.1714 C.ar    
  26 Cl26          -3.1700    -2.8566     5.0190 Cl      
  27 Cl27           0.2926    -0.7400     1.4556 Cl      
  28 C28            3.0555    -2.3507    -1.9637 C.3     
  29 C29            4.3821    -2.1468    -1.2785 C.ar    
  30 C30            5.3522    -3.1303    -1.3485 C.ar    
  31 C31            4.6273    -0.9743    -0.5867 C.ar    
  32 C32            5.8407    -0.7821     0.0423 C.ar    
  33 C33            6.8195    -1.7717    -0.0205 C.ar    
  34 C34            6.5691    -2.9486    -0.7232 C.ar    
  35 C35            8.1260    -1.5707     0.6538 C.ar    
  36 C36            8.3784    -0.3915     1.3522 C.ar    
  37 C37            9.1026    -2.5626     0.5959 C.ar    
  38 C38           10.3160    -2.3706     1.2253 C.ar    
  39 C39           10.5631    -1.1961     1.9126 C.ar    
  40 C40            9.5950    -0.2100     1.9778 C.ar    
  41 C41           11.8897    -0.9922     2.5978 C.3     
  42 C42           12.9481    -0.6170     1.5587 C.3     
  43 C43           12.5988     0.7387     0.9414 C.3     
  44 C44           14.3184    -0.5319     2.2341 C.3     
  45 N45           11.3544    -3.4237     1.1651 N.pl3   
  46 O46           11.1639    -4.4297     0.5054 O.2     
  47 O47           12.3993    -3.2842     1.7751 O.2     
  48 H48            4.4270    -8.1871    -1.8535 H       
  49 H49            3.3401    -6.5791    -0.3413 H       
  50 H50            1.9017    -4.3788    -3.7127 H       
  51 H51            2.9840    -5.9887    -5.2261 H       
  52 H52            6.4006    -8.3399    -3.9586 H       
  53 H53            5.3140    -9.6168    -3.3764 H       
  54 H54            5.1849   -10.0744    -7.3279 H       
  55 H55            0.6549    -5.7311     0.1738 H       
  56 H56           -0.7284    -5.4871     1.7677 H       
  57 H57           -2.3144    -5.1842     3.6235 H       
  58 H58           -1.5988    -0.9771     3.5700 H       
  59 H59            3.2050    -2.9145    -2.8845 H       
  60 H60            2.6150    -1.3817    -2.1985 H       
  61 H61            5.1569    -4.0422    -1.8932 H       
  62 H62            3.8680    -0.2078    -0.5390 H       
  63 H63            6.0312     0.1338     0.5819 H       
  64 H64            7.3243    -3.7189    -0.7751 H       
  65 H65            7.6235     0.3791     1.4034 H       
  66 H66            8.9105    -3.4803     0.0597 H       
  67 H67            9.7933     0.7054     2.5155 H       
  68 H68           11.8005    -0.1908     3.3312 H       
  69 H69           12.1845    -1.9134     3.1004 H       
  70 H70           12.9749    -1.3761     0.7769 H       
  71 H71           12.5720     1.4978     1.7232 H       
  72 H72           13.3528     1.0060     0.2011 H       
  73 H73           11.6226     0.6781     0.4602 H       
  74 H74           14.5673    -1.4977     2.6738 H       
  75 H75           15.0724    -0.2646     1.4937 H       
  76 H76           14.2916     0.2272     3.0158 H       
@<TRIPOS>BOND
   1    1    2 ar
   2    1    6 ar
   3    1   48 1
   4    2    3 ar
   5    2   49 1
   6    3    4 ar
   7    3   15 1
   8    4    5 ar
   9    4   50 1
  10    5    6 ar
  11    5   51 1
  12    6    7 1
  13    7    8 1
  14    7   11 am
  15    8    9 1
  16    8   52 1
  17    8   53 1
  18    9   10 am
  19    9   12 2
  20   10   11 am
  21   10   54 1
  22   11   13 2
  23   11   14 2
  24   15   16 1
  25   15   17 1
  26   16   19 2
  27   16   55 1
  28   17   18 2
  29   17   28 1
  30   18   19 1
  31   19   20 1
  32   20   21 ar
  33   20   22 ar
  34   21   27 1
  35   21   25 ar
  36   22   23 ar
  37   22   56 1
  38   23   24 ar
  39   23   57 1
  40   24   25 ar
  41   24   26 1
  42   25   58 1
  43   28   29 1
  44   28   59 1
  45   28   60 1
  46   29   30 ar
  47   29   31 ar
  48   30   34 ar
  49   30   61 1
  50   31   32 ar
  51   31   62 1
  52   32   33 ar
  53   32   63 1
  54   33   34 ar
  55   33   35 1
  56   34   64 1
  57   35   36 ar
  58   35   37 ar
  59   36   40 ar
  60   36   65 1
  61   37   38 ar
  62   37   66 1
  63   38   39 ar
  64   38   45 1
  65   39   41 1
  66   39   40 ar
  67   40   67 1
  68   41   42 1
  69   41   68 1
  70   41   69 1
  71   42   43 1
  72   42   44 1
  73   42   70 1
  74   43   71 1
  75   43   72 1
  76   43   73 1
  77   44   74 1
  78   44   75 1
  79   44   76 1
  80   45   46 2
  81   45   47 2

#	End of record

