#	Name: ASD01812321
#	Creating user name:	WinNT
#	Creation time:	15. 06. 2019 19:28

#	Modifying user name:	WinNT
#	Modification time:	15. 06. 2019 19:28

#	Program:	/corina/corina34_cracker 3.40 0067  02.08.2006

@<TRIPOS>MOLECULE
ASD01812321
  52   56    0    0    0
SMALL
NO_CHARGES


@<TRIPOS>ATOM
   1 O1            -0.0162     1.3448     0.0094 O.3     
   2 C2             0.0021    -0.0041     0.0020 C.2     
   3 O3             1.0636    -0.5979    -0.0113 O.2     
   4 C4            -1.2562    -0.7535     0.0100 C.2     
   5 C5            -1.2442    -2.1607     0.0082 C.2     
   6 C6            -2.4295    -2.8370     0.0163 C.2     
   7 C7            -2.4369    -4.3440     0.0151 C.3     
   8 N8            -2.3287    -4.8330    -1.3659 N.3     
   9 C9            -1.0260    -4.4844    -1.9471 C.3     
  10 C10           -1.0035    -4.8789    -3.4256 C.3     
  11 C11           -1.2527    -6.3845    -3.5509 C.3     
  12 C12           -2.5930    -6.7283    -2.8952 C.3     
  13 C13           -2.5694    -6.2801    -1.4321 C.3     
  14 C14           -1.2913    -6.7690    -5.0074 C.2     
  15 N15           -0.2792    -7.2280    -5.6841 N.2     
  16 C16           -0.6589    -7.4721    -6.9648 C.ar    
  17 C17            0.0098    -7.9590    -8.0909 C.ar    
  18 C18           -0.6687    -8.0972    -9.2826 C.ar    
  19 F19           -0.0226    -8.5684   -10.3714 F       
  20 C20           -2.0125    -7.7557    -9.3720 C.ar    
  21 C21           -2.6854    -7.2735    -8.2696 C.ar    
  22 C22           -2.0179    -7.1285    -7.0616 C.ar    
  23 N23           -2.3907    -6.6924    -5.8046 N.pl3   
  24 H24           -3.2724    -6.3864    -5.5402 H       
  25 C25           -3.6403    -2.1303     0.0262 C.2     
  26 C26           -4.8548    -2.8363     0.0346 C.2     
  27 C27           -6.0315    -2.1462     0.0442 C.2     
  28 C28           -6.0094    -0.7449     0.0456 C.2     
  29 C29           -4.8305    -0.0828     0.0375 C.2     
  30 N30           -3.6482    -0.7618     0.0283 N.am    
  31 C31           -2.4900    -0.0716     0.0254 C.2     
  32 O32           -2.5098     1.1477     0.0322 O.2     
  33 H33            0.8393     1.7955     0.0037 H       
  34 H34           -0.3080    -2.6991     0.0002 H       
  35 H35           -1.5926    -4.7119     0.5980 H       
  36 H36           -3.3669    -4.7031     0.4559 H       
  37 H37           -0.8631    -3.4105    -1.8553 H       
  38 H38           -0.2372    -5.0179    -1.4168 H       
  39 H39           -1.7832    -4.3353    -3.9592 H       
  40 H40           -0.0310    -4.6342    -3.8527 H       
  41 H41           -0.4521    -6.9291    -3.0505 H       
  42 H42           -3.3977    -6.2138    -3.4204 H       
  43 H43           -2.7562    -7.8049    -2.9434 H       
  44 H44           -1.7734    -6.8052    -0.9042 H       
  45 H45           -3.5275    -6.5106    -0.9662 H       
  46 H46            1.0544    -8.2259    -8.0278 H       
  47 H47           -2.5333    -7.8684   -10.3114 H       
  48 H48           -3.7297    -7.0092    -8.3459 H       
  49 H49           -4.8568    -3.9163     0.0330 H       
  50 H50           -6.9728    -2.6756     0.0503 H       
  51 H51           -6.9372    -0.1921     0.0528 H       
  52 H52           -4.8253     0.9972     0.0383 H       
@<TRIPOS>BOND
   1    1    2 1
   2    1   33 1
   3    2    3 2
   4    2    4 1
   5    4   31 1
   6    4    5 2
   7    5    6 1
   8    5   34 1
   9    6    7 1
  10    6   25 2
  11    7    8 1
  12    7   35 1
  13    7   36 1
  14    8   13 1
  15    8    9 1
  16    9   10 1
  17    9   37 1
  18    9   38 1
  19   10   11 1
  20   10   39 1
  21   10   40 1
  22   11   12 1
  23   11   14 1
  24   11   41 1
  25   12   13 1
  26   12   42 1
  27   12   43 1
  28   13   44 1
  29   13   45 1
  30   14   23 1
  31   14   15 2
  32   15   16 1
  33   16   22 ar
  34   16   17 ar
  35   17   18 ar
  36   17   46 1
  37   18   19 1
  38   18   20 ar
  39   20   21 ar
  40   20   47 1
  41   21   22 ar
  42   21   48 1
  43   22   23 1
  44   23   24 1
  45   25   30 1
  46   25   26 1
  47   26   27 2
  48   26   49 1
  49   27   28 1
  50   27   50 1
  51   28   29 2
  52   28   51 1
  53   29   30 1
  54   29   52 1
  55   30   31 am
  56   31   32 2

#	End of record

