#	Name: ASD01915026
#	Creating user name:	WinNT
#	Creation time:	15. 06. 2019 20:04

#	Modifying user name:	WinNT
#	Modification time:	15. 06. 2019 20:04

#	Program:	/corina/corina34_cracker 3.40 0067  02.08.2006

@<TRIPOS>MOLECULE
ASD01915026
  42   45    0    0    0
SMALL
NO_CHARGES


@<TRIPOS>ATOM
   1 C1            -0.0346     1.3808    -0.0557 C.ar    
   2 C2            -0.0183    -0.0028    -0.0717 C.ar    
   3 C3             1.2113    -0.6509    -0.0778 C.ar    
   4 C4             2.3712     0.1014    -0.0678 C.ar    
   5 N5             2.3212     1.4202    -0.0521 N.ar    
   6 C6             1.1705     2.0713    -0.0463 C.ar    
   7 O7             1.1669     3.4284    -0.0310 O.3     
   8 C8             2.4384     4.0805    -0.0220 C.3     
   9 C9             2.2369     5.5739    -0.0055 C.2     
  10 C10            1.0035     6.2391     0.0060 C.2     
  11 N11            3.1858     6.4809     0.0065 N.2     
  12 C12            1.3178     7.5684     0.0167 C.2     
  13 C13            0.4740     8.7727     0.0358 C.2     
  14 N14            2.6925     7.6569     0.0278 N.pl3   
  15 C15            3.3693     8.9586     0.0767 C.3     
  16 C16            2.4979    10.0057    -0.6154 C.3     
  17 N17            1.1055     9.9529    -0.1757 N.am    
  18 O18           -0.7252     8.7128     0.2303 O.2     
  19 C19            3.5935     9.3634     1.5350 C.3     
  20 F20            1.2724    -2.0004    -0.0929 F       
  21 C21            0.4131    11.1430     0.0358 C.ar    
  22 N22            0.3709    11.6706     1.2494 N.ar    
  23 C23           -0.2730    12.7958     1.4926 C.ar    
  24 C24           -0.9314    13.4678     0.4815 C.ar    
  25 C25           -0.9113    12.9480    -0.8054 C.ar    
  26 C26           -0.2225    11.7689    -1.0305 C.ar    
  27 H27           -0.9722     1.9168    -0.0550 H       
  28 H28           -0.9398    -0.5661    -0.0789 H       
  29 H29            3.3298    -0.3961    -0.0724 H       
  30 H30            2.9950     3.7791     0.8654 H       
  31 H31            2.9974     3.7992    -0.9145 H       
  32 H32            0.0183     5.7967     0.0059 H       
  33 H33            4.3296     8.8889    -0.4342 H       
  34 H34            2.8981    10.9962    -0.3988 H       
  35 H35            2.5358     9.8401    -1.6920 H       
  36 H36            4.2118     8.6141     2.0292 H       
  37 H37            4.0960    10.3300     1.5706 H       
  38 H38            2.6324     9.4347     2.0442 H       
  39 H39           -0.2859    13.1965     2.4954 H       
  40 H40           -1.4567    14.3882     0.6899 H       
  41 H41           -1.4185    13.4541    -1.6134 H       
  42 H42           -0.1828    11.3387    -2.0203 H       
@<TRIPOS>BOND
   1    1    2 ar
   2    1    6 ar
   3    1   27 1
   4    2    3 ar
   5    2   28 1
   6    3    4 ar
   7    3   20 1
   8    4    5 ar
   9    4   29 1
  10    5    6 ar
  11    6    7 1
  12    7    8 1
  13    8    9 1
  14    8   30 1
  15    8   31 1
  16    9   11 2
  17    9   10 1
  18   10   12 2
  19   10   32 1
  20   11   14 1
  21   12   14 1
  22   12   13 1
  23   13   17 am
  24   13   18 2
  25   14   15 1
  26   15   16 1
  27   15   19 1
  28   15   33 1
  29   16   17 1
  30   16   34 1
  31   16   35 1
  32   17   21 1
  33   19   36 1
  34   19   37 1
  35   19   38 1
  36   21   22 ar
  37   21   26 ar
  38   22   23 ar
  39   23   24 ar
  40   23   39 1
  41   24   25 ar
  42   24   40 1
  43   25   26 ar
  44   25   41 1
  45   26   42 1

#	End of record

