#	Name: ASD02030059
#	Creating user name:	WinNT
#	Creation time:	15. 06. 2019 20:14

#	Modifying user name:	WinNT
#	Modification time:	15. 06. 2019 20:14

#	Program:	/corina/corina34_cracker 3.40 0067  02.08.2006

@<TRIPOS>MOLECULE
ASD02030059
  44   45    0    0    0
SMALL
NO_CHARGES


@<TRIPOS>ATOM
   1 C1            -0.0180     1.4730     0.0101 C.2     
   2 C2             0.0021    -0.0041     0.0020 C.ar    
   3 C3             1.2188    -0.6888    -0.0133 C.ar    
   4 C4             1.2303    -2.0682    -0.0203 C.ar    
   5 C5             0.0396    -2.7731    -0.0127 C.ar    
   6 C6            -1.1697    -2.1009     0.0020 C.ar    
   7 C7            -1.1956    -0.7217     0.0154 C.ar    
   8 O8             1.0256     2.0946     0.0035 O.2     
   9 O9            -1.1936     2.1307     0.0193 O.3     
  10 C10            0.0601    -4.2800    -0.0210 C.3     
  11 O11           -1.0296    -4.7754     0.7596 O.3     
  12 C12           -0.0705    -4.7764    -1.4379 C.ar    
  13 C13           -1.2957    -4.7278    -2.0778 C.ar    
  14 C14           -1.4147    -5.1851    -3.3838 C.ar    
  15 C15           -0.3056    -5.6898    -4.0449 C.ar    
  16 C16            0.9180    -5.7380    -3.4050 C.ar    
  17 C17            1.0391    -5.2767    -2.1026 C.ar    
  18 O18            2.2449    -5.3198    -1.4755 O.3     
  19 C19            3.3447    -5.8475    -2.2198 C.3     
  20 O20            3.7738    -4.8836    -3.1836 O.3     
  21 C21            4.5114    -3.7936    -2.6268 C.3     
  22 O22           -2.6194    -5.1382    -4.0139 O.3     
  23 C23           -2.6687    -5.6254    -5.3564 C.3     
  24 F24           -2.3762    -4.2363    -1.4327 F       
  25 C25           -1.1373     3.5816     0.0269 C.3     
  26 H26            2.1488    -0.1398    -0.0199 H       
  27 H27            2.1707    -2.5992    -0.0321 H       
  28 H28           -2.0953    -2.6572     0.0071 H       
  29 H29           -2.1401    -0.1983     0.0318 H       
  30 H30            1.0004    -4.6329     0.4025 H       
  31 H31           -1.8996    -4.5001     0.4398 H       
  32 H32           -0.3982    -6.0458    -5.0603 H       
  33 H33            1.7816    -6.1313    -3.9207 H       
  34 H34            4.1672    -6.0740    -1.5414 H       
  35 H35            3.0338    -6.7586    -2.7309 H       
  36 H36            4.8006    -3.1067    -3.4222 H       
  37 H37            3.8910    -3.2683    -1.9007 H       
  38 H38            5.4053    -4.1745    -2.1328 H       
  39 H39           -2.3696    -6.6734    -5.3739 H       
  40 H40           -3.6845    -5.5310    -5.7401 H       
  41 H41           -1.9895    -5.0433    -5.9793 H       
  42 H42           -2.1501     3.9844     0.0339 H       
  43 H43           -0.6055     3.9199     0.9162 H       
  44 H44           -0.6140     3.9295    -0.8637 H       
@<TRIPOS>BOND
   1    1    2 1
   2    1    8 2
   3    1    9 1
   4    2    3 ar
   5    2    7 ar
   6    3    4 ar
   7    3   26 1
   8    4    5 ar
   9    4   27 1
  10    5    6 ar
  11    5   10 1
  12    6    7 ar
  13    6   28 1
  14    7   29 1
  15    9   25 1
  16   10   11 1
  17   10   12 1
  18   10   30 1
  19   11   31 1
  20   12   13 ar
  21   12   17 ar
  22   13   14 ar
  23   13   24 1
  24   14   15 ar
  25   14   22 1
  26   15   16 ar
  27   15   32 1
  28   16   17 ar
  29   16   33 1
  30   17   18 1
  31   18   19 1
  32   19   20 1
  33   19   34 1
  34   19   35 1
  35   20   21 1
  36   21   36 1
  37   21   37 1
  38   21   38 1
  39   22   23 1
  40   23   39 1
  41   23   40 1
  42   23   41 1
  43   25   42 1
  44   25   43 1
  45   25   44 1

#	End of record

