#	Name: ASD03092412
#	Creating user name:	WinNT
#	Creation time:	15. 06. 2019 20:32

#	Modifying user name:	WinNT
#	Modification time:	15. 06. 2019 20:32

#	Program:	/corina/corina34_cracker 3.40 0067  02.08.2006

@<TRIPOS>MOLECULE
ASD03092412
  55   58    0    0    0
SMALL
NO_CHARGES


@<TRIPOS>ATOM
   1 O1             0.8982     1.0010    -0.3490 O.3     
   2 N2             0.7562    -0.1982    -0.2888 N.2     
   3 C3             1.9106    -0.8154    -0.2431 C.2     
   4 C4             2.9044     0.2020    -0.2838 C.2     
   5 C5             2.1920     1.3504    -0.3516 C.2     
   6 C6             2.1363    -2.2793    -0.1648 C.2     
   7 O7             3.2686    -2.7183    -0.1282 O.2     
   8 N8             1.0853    -3.1225    -0.1343 N.am    
   9 C9             2.7459     2.7504    -0.4178 C.3     
  10 C10            1.3082    -4.5684    -0.0570 C.3     
  11 S11           -2.1414    -6.4541     0.6755 S.3     
  12 C12           -1.8189    -6.1974    -0.9835 C.2     
  13 N13           -0.6851    -5.5824    -1.1321 N.2     
  14 C14           -0.0195    -5.2810    -0.0366 C.2     
  15 C15           -0.6265    -5.6639     1.1047 C.2     
  16 C16           -0.0926    -6.5093     3.3920 C.ar    
  17 C17           -0.1117    -5.4571     2.4744 C.ar    
  18 C18            0.3655    -4.2032     2.8738 C.ar    
  19 C19            0.8371    -4.0625     4.1672 C.ar    
  20 C20            0.8223    -5.1545     5.0159 C.ar    
  21 N21            0.3665    -6.3250     4.6123 N.ar    
  22 C22            1.3356    -5.0050     6.4249 C.3     
  23 N23           -2.6478    -6.5894    -2.0202 N.3     
  24 C24           -3.8516    -7.2597    -1.5076 C.3     
  25 C25           -4.7092    -7.7283    -2.6861 C.3     
  26 O26           -5.0256    -6.6065    -3.5148 O.3     
  27 C27           -3.8763    -5.9303    -4.0318 C.3     
  28 C28           -3.0103    -5.4435    -2.8669 C.3     
  29 C29           -4.3233    -4.7321    -4.8717 C.3     
  30 C30           -6.0018    -8.3554    -2.1599 C.3     
  31 H31            3.9778     0.0848    -0.2644 H       
  32 H32            0.1813    -2.7720    -0.1636 H       
  33 H33            1.9237     3.4645    -0.4644 H       
  34 H34            3.3469     2.9456     0.4703 H       
  35 H35            3.3676     2.8535    -1.3071 H       
  36 H36            1.8823    -4.8944    -0.9243 H       
  37 H37            1.8603    -4.8027     0.8532 H       
  38 H38           -0.4615    -7.4813     3.0998 H       
  39 H39            0.3659    -3.3672     2.1901 H       
  40 H40            1.2133    -3.1100     4.5102 H       
  41 H41            0.5164    -4.7104     7.0808 H       
  42 H42            1.7487    -5.9551     6.7638 H       
  43 H43            2.1131    -4.2414     6.4493 H       
  44 H44           -3.5604    -8.1198    -0.9047 H       
  45 H45           -4.4239    -6.5624    -0.8957 H       
  46 H46           -4.1565    -8.4661    -3.2678 H       
  47 H47           -3.2994    -6.6158    -4.6526 H       
  48 H48           -3.5691    -4.7172    -2.2767 H       
  49 H49           -2.1050    -4.9778    -3.2563 H       
  50 H50           -4.8985    -4.0465    -4.2494 H       
  51 H51           -3.4470    -4.2172    -5.2654 H       
  52 H52           -4.9430    -5.0790    -5.6986 H       
  53 H53           -6.5545    -7.6162    -1.5801 H       
  54 H54           -6.6119    -8.6888    -2.9994 H       
  55 H55           -5.7599    -9.2080    -1.5253 H       
@<TRIPOS>BOND
   1    1    2 1
   2    1    5 1
   3    2    3 2
   4    3    4 1
   5    3    6 1
   6    4    5 2
   7    4   31 1
   8    5    9 1
   9    6    7 2
  10    6    8 am
  11    8   10 1
  12    8   32 1
  13    9   33 1
  14    9   34 1
  15    9   35 1
  16   10   14 1
  17   10   36 1
  18   10   37 1
  19   11   12 1
  20   11   15 1
  21   12   13 2
  22   12   23 1
  23   13   14 1
  24   14   15 2
  25   15   17 1
  26   16   17 ar
  27   16   21 ar
  28   16   38 1
  29   17   18 ar
  30   18   19 ar
  31   18   39 1
  32   19   20 ar
  33   19   40 1
  34   20   21 ar
  35   20   22 1
  36   22   41 1
  37   22   42 1
  38   22   43 1
  39   23   24 1
  40   23   28 1
  41   24   25 1
  42   24   44 1
  43   24   45 1
  44   25   26 1
  45   25   30 1
  46   25   46 1
  47   26   27 1
  48   27   28 1
  49   27   29 1
  50   27   47 1
  51   28   48 1
  52   28   49 1
  53   29   50 1
  54   29   51 1
  55   29   52 1
  56   30   53 1
  57   30   54 1
  58   30   55 1

#	End of record

