#	Name: ASD01140732
#	Creating user name:	WinNT
#	Creation time:	15. 06. 2019 19:01

#	Modifying user name:	WinNT
#	Modification time:	15. 06. 2019 19:01

#	Program:	/corina/corina34_cracker 3.40 0067  02.08.2006

@<TRIPOS>MOLECULE
ASD01140732
  61   64    0    0    0
SMALL
NO_CHARGES


@<TRIPOS>ATOM
   1 C1            -0.8617     0.9007     0.5562 C.3     
   2 C2            -0.6697    -0.6172     0.5397 C.3     
   3 C3             0.2438    -1.0286     1.6958 C.3     
   4 C4             0.4971     1.5869     0.4008 C.3     
   5 C5             1.4104     1.1764     1.5572 C.3     
   6 C6             2.7681     1.8648     1.4058 C.3     
   7 C7             3.6800     1.4557     2.5644 C.3     
   8 C8             3.8758    -0.0609     2.5476 C.3     
   9 C9             4.7332    -0.4950     3.7217 C.3     
  10 C10            6.1737     0.0276     3.7288 C.3     
  11 C11            6.9118    -1.0011     4.6284 C.3     
  12 C12            6.0823    -2.3080     4.5688 C.3     
  13 C13            6.9366    -3.4467     4.0742 C.2     
  14 C14            6.5963    -4.8645     4.4548 C.3     
  15 C15            4.9549    -2.0254     3.5811 C.3     
  16 C16            5.4179    -2.3527     2.1600 C.3     
  17 C17            3.6274    -2.7039     3.8566 C.3     
  18 C18            2.6508    -2.2660     2.7520 C.3     
  19 C19            2.5107    -0.7483     2.7047 C.3     
  20 C20            1.6027    -0.3417     1.5435 C.3     
  21 C21            2.2428    -0.7636     0.2194 C.3     
  22 O22            7.8939    -3.2229     3.3729 O.2     
  23 C23           -1.4964     1.3203     1.8836 C.3     
  24 O24            7.5463    -5.7563     3.8681 O.3     
  25 O25           -1.7158     1.2848    -0.5232 O.3     
  26 H26            0.9558     1.4745     2.5020 H       
  27 H27            2.0499    -0.4082     3.6322 H       
  28 H28            4.3512    -0.3605     1.6136 H       
  29 H29            4.2376    -0.2542     4.6621 H       
  30 H30           -1.6373    -1.1070     0.6493 H       
  31 H31           -0.2163    -0.9159    -0.4055 H       
  32 H32           -0.2100    -0.7304     2.6409 H       
  33 H33            0.3801    -2.1099     1.6838 H       
  34 H34            0.9500     1.2865    -0.5441 H       
  35 H35            0.3614     2.6684     0.4112 H       
  36 H36            3.2238     1.5658     0.4618 H       
  37 H37            2.6304     2.9460     1.4162 H       
  38 H38            4.6466     1.9481     2.4574 H       
  39 H39            3.2235     1.7527     3.5085 H       
  40 H40            6.5892     0.0270     2.7212 H       
  41 H41            6.2199     1.0252     4.1657 H       
  42 H42            7.9173    -1.1784     4.2466 H       
  43 H43            6.9597    -0.6348     5.6539 H       
  44 H44            5.6748    -2.5419     5.5523 H       
  45 H45            6.6244    -4.9662     5.5397 H       
  46 H46            5.5975    -5.1082     4.0928 H       
  47 H47            6.3446    -1.8193     1.9480 H       
  48 H48            5.5878    -3.4257     2.0713 H       
  49 H49            4.6513    -2.0462     1.4484 H       
  50 H50            3.7524    -3.7864     3.8331 H       
  51 H51            3.2481    -2.3947     4.8306 H       
  52 H52            3.0190    -2.6205     1.7892 H       
  53 H53            1.6734    -2.7088     2.9438 H       
  54 H54            1.5942    -0.4723    -0.6068 H       
  55 H55            3.2107    -0.2740     0.1115 H       
  56 H56            2.3795    -1.8449     0.2102 H       
  57 H57           -0.8444     1.0276     2.7066 H       
  58 H58           -1.6330     2.4016     1.8952 H       
  59 H59           -2.4638     0.8306     1.9946 H       
  60 H60            7.3886    -6.6884     4.0715 H       
  61 H61           -2.5959     0.8856    -0.4895 H       
@<TRIPOS>BOND
   1    1    2 1
   2    1    4 1
   3    1   23 1
   4    1   25 1
   5    2    3 1
   6    2   30 1
   7    2   31 1
   8    3   20 1
   9    3   32 1
  10    3   33 1
  11    4    5 1
  12    4   34 1
  13    4   35 1
  14    5    6 1
  15    5   20 1
  16    5   26 1
  17    6    7 1
  18    6   36 1
  19    6   37 1
  20    7    8 1
  21    7   38 1
  22    7   39 1
  23    8    9 1
  24    8   28 1
  25    8   19 1
  26    9   10 1
  27    9   15 1
  28    9   29 1
  29   10   11 1
  30   10   40 1
  31   10   41 1
  32   11   12 1
  33   11   42 1
  34   11   43 1
  35   12   13 1
  36   12   15 1
  37   12   44 1
  38   13   14 1
  39   13   22 2
  40   14   24 1
  41   14   45 1
  42   14   46 1
  43   15   16 1
  44   15   17 1
  45   16   47 1
  46   16   48 1
  47   16   49 1
  48   17   18 1
  49   17   50 1
  50   17   51 1
  51   18   19 1
  52   18   52 1
  53   18   53 1
  54   19   27 1
  55   19   20 1
  56   20   21 1
  57   21   54 1
  58   21   55 1
  59   21   56 1
  60   23   57 1
  61   23   58 1
  62   23   59 1
  63   24   60 1
  64   25   61 1

#	End of record

