#	Name: ASD08150947
#	Creating user name:	WinNT
#	Creation time:	15. 06. 2019 21:16

#	Modifying user name:	WinNT
#	Modification time:	15. 06. 2019 21:16

#	Program:	/corina/corina34_cracker 3.40 0067  02.08.2006

@<TRIPOS>MOLECULE
ASD08150947
  58   62    0    0    0
SMALL
NO_CHARGES


@<TRIPOS>ATOM
   1 C1             0.2864     0.7435    -0.7091 C.3     
   2 C2             0.1446    -0.7740    -0.5751 C.3     
   3 N3            -3.4297    -2.4529     1.0602 N.3     
   4 C4            -2.9625    -3.0177    -0.2122 C.3     
   5 C5            -1.4889    -2.6604    -0.4199 C.3     
   6 C6            -1.3344    -1.1371    -0.4288 C.3     
   7 C7            -1.8728    -0.5697     0.8876 C.3     
   8 C8            -3.3352    -0.9875     1.0573 C.3     
   9 N9            -5.5634    -1.8717    -0.6641 N.ar    
  10 C10           -6.5385    -1.5837    -1.4917 C.ar    
  11 C11           -7.8508    -1.9805    -1.2439 C.ar    
  12 C12           -8.1468    -2.6890    -0.1145 C.ar    
  13 C13           -7.0966    -2.9965     0.7712 C.ar    
  14 C14           -7.3265    -3.7224     1.9520 C.ar    
  15 C15           -6.2883    -4.0046     2.7888 C.ar    
  16 C16           -4.9954    -3.5838     2.4925 C.ar    
  17 C17           -4.7307    -2.8695     1.3444 C.ar    
  18 C18           -5.7856    -2.5617     0.4578 C.ar    
  19 C19           -3.8706    -3.9126     3.4400 C.3     
  20 C20           -3.6921    -2.7660     4.4372 C.3     
  21 N21           -4.1876    -5.1455     4.1651 N.pl3   
  22 N22           -4.5892    -7.7733     5.7092 N.2     
  23 C23           -4.2848    -8.8653     6.3484 C.2     
  24 N24           -2.9303    -9.0004     6.4208 N.pl3   
  25 C25           -2.3745    -7.9198     5.7838 C.ar    
  26 N26           -1.1341    -7.5114     5.5374 N.ar    
  27 C27           -0.9143    -6.3926     4.8793 C.ar    
  28 N28           -1.8944    -5.6269     4.4358 N.ar    
  29 C29           -3.1672    -5.9541     4.6344 C.ar    
  30 C30           -3.4527    -7.1400     5.3318 C.ar    
  31 Cl31          -8.9303    -4.2584     2.3448 Cl      
  32 O32            1.6679     1.0826    -0.8458 O.3     
  33 H33           -0.2599     1.0832    -1.5890 H       
  34 H34           -0.1200     1.2263     0.1796 H       
  35 H35            0.5510    -1.2568    -1.4639 H       
  36 H36            0.6909    -1.1137     0.3048 H       
  37 H37           -3.0739    -4.1017    -0.1911 H       
  38 H38           -3.5543    -2.6078    -1.0306 H       
  39 H39           -0.8946    -3.0818     0.3909 H       
  40 H40           -1.1467    -3.0665    -1.3718 H       
  41 H41           -1.8965    -0.7188    -1.2638 H       
  42 H42           -1.2845    -0.9581     1.7189 H       
  43 H43           -1.8048     0.5181     0.8698 H       
  44 H44           -3.9253    -0.5871     0.2330 H       
  45 H45           -3.7173    -0.5970     2.0005 H       
  46 H46           -6.3188    -1.0238    -2.3888 H       
  47 H47           -8.6333    -1.7277    -1.9441 H       
  48 H48           -9.1586    -3.0044     0.0936 H       
  49 H49           -6.4718    -4.5630     3.6949 H       
  50 H50           -2.9484    -4.0500     2.8754 H       
  51 H51           -2.8786    -3.0039     5.1225 H       
  52 H52           -3.4563    -1.8487     3.8977 H       
  53 H53           -4.6144    -2.6287     5.0017 H       
  54 H54           -5.1126    -5.3951     4.3163 H       
  55 H55           -4.9999    -9.5614     6.7612 H       
  56 H56           -2.4478    -9.7271     6.8451 H       
  57 H57            0.1059    -6.0894     4.6958 H       
  58 H58            1.8330     2.0312    -0.9356 H       
@<TRIPOS>BOND
   1    1    2 1
   2    1   32 1
   3    1   33 1
   4    1   34 1
   5    2    6 1
   6    2   35 1
   7    2   36 1
   8    3    4 1
   9    3    8 1
  10    3   17 1
  11    4    5 1
  12    4   37 1
  13    4   38 1
  14    5    6 1
  15    5   39 1
  16    5   40 1
  17    6    7 1
  18    6   41 1
  19    7    8 1
  20    7   42 1
  21    7   43 1
  22    8   44 1
  23    8   45 1
  24    9   10 ar
  25    9   18 ar
  26   10   11 ar
  27   10   46 1
  28   11   12 ar
  29   11   47 1
  30   12   13 ar
  31   12   48 1
  32   13   14 ar
  33   13   18 ar
  34   14   15 ar
  35   14   31 1
  36   15   16 ar
  37   15   49 1
  38   16   17 ar
  39   16   19 1
  40   17   18 ar
  41   19   20 1
  42   19   21 1
  43   19   50 1
  44   20   51 1
  45   20   52 1
  46   20   53 1
  47   21   29 1
  48   21   54 1
  49   22   23 2
  50   22   30 1
  51   23   24 1
  52   23   55 1
  53   24   25 1
  54   24   56 1
  55   25   26 ar
  56   25   30 ar
  57   26   27 ar
  58   27   28 ar
  59   27   57 1
  60   28   29 ar
  61   29   30 ar
  62   32   58 1

#	End of record

