#	Name: ASD00730005
#	Creating user name:	WinNT
#	Creation time:	15. 06. 2019 18:37

#	Modifying user name:	WinNT
#	Modification time:	15. 06. 2019 18:37

#	Program:	/corina/corina34_cracker 3.40 0067  02.08.2006

@<TRIPOS>MOLECULE
ASD00730005
  54   55    0    0    0
SMALL
NO_CHARGES


@<TRIPOS>ATOM
   1 C1             0.6689    -0.3397     3.7434 C.3     
   2 C2             1.1677    -1.7753     3.5666 C.3     
   3 C3             2.6299    -1.8651     4.0080 C.3     
   4 C4             3.0917    -3.3225     3.9495 C.3     
   5 O5             2.8589    -3.8438     2.6395 O.3     
   6 C6             3.2574    -5.2065     2.4769 C.3     
   7 O7             3.4400    -1.0734     3.1367 O.3     
   8 C8             3.6299     0.2234     3.4823 C.ar    
   9 N9             3.0814     0.7132     4.5905 N.ar    
  10 C10            3.2603     1.9726     4.9349 C.ar    
  11 C11            2.6198     2.4835     6.1997 C.3     
  12 N12            3.9832     2.7975     4.2056 N.ar    
  13 C13            4.5655     2.3836     3.0818 C.ar    
  14 N14            5.3256     3.2583     2.3194 N.pl3   
  15 C15            5.5749     4.5535     2.7822 C.ar    
  16 C16            6.8564     4.9174     3.1759 C.ar    
  17 C17            7.9804     3.9162     3.1041 C.3     
  18 C18            7.0992     6.1979     3.6327 C.ar    
  19 C19            6.0683     7.1172     3.6989 C.ar    
  20 C20            6.3371     8.5136     4.1979 C.3     
  21 C21            4.7914     6.7582     3.3077 C.ar    
  22 C22            4.5430     5.4813     2.8441 C.ar    
  23 C23            3.1524     5.0928     2.4122 C.3     
  24 C24            4.4050     1.0581     2.6868 C.ar    
  25 C25            5.0509     0.5436     1.4262 C.3     
  26 H26            1.2740     0.3326     3.1351 H       
  27 H27           -0.3728    -0.2758     3.4289 H       
  28 H28            0.7502    -0.0533     4.7919 H       
  29 H29            0.5627    -2.4476     4.1749 H       
  30 H30            1.0865    -2.0617     2.5181 H       
  31 H31            2.7248    -1.4946     5.0287 H       
  32 H32            4.1562    -3.3758     4.1779 H       
  33 H33            2.5338    -3.9100     4.6787 H       
  34 H34            2.7029    -5.8330     3.1755 H       
  35 H35            3.0478    -5.5269     1.4564 H       
  36 H36            4.3253    -5.2988     2.6747 H       
  37 H37            3.3042     2.3422     7.0362 H       
  38 H38            2.3943     3.5443     6.0899 H       
  39 H39            1.6977     1.9336     6.3877 H       
  40 H40            5.6841     2.9711     1.4650 H       
  41 H41            8.3960     3.9081     2.0965 H       
  42 H42            8.7585     4.1919     3.8159 H       
  43 H43            7.5997     2.9244     3.3481 H       
  44 H44            8.0953     6.4814     3.9390 H       
  45 H45            6.6104     9.1530     3.3586 H       
  46 H46            5.4408     8.9068     4.6775 H       
  47 H47            7.1546     8.4908     4.9185 H       
  48 H48            3.9885     7.4786     3.3607 H       
  49 H49            2.5855     4.7500     3.2778 H       
  50 H50            2.6547     5.9561     1.9706 H       
  51 H51            3.2113     4.2913     1.6758 H       
  52 H52            4.3709     0.6845     0.5860 H       
  53 H53            5.9749     1.0916     1.2416 H       
  54 H54            5.2740    -0.5173     1.5392 H       
@<TRIPOS>BOND
   1    1    2 1
   2    1   26 1
   3    1   27 1
   4    1   28 1
   5    2    3 1
   6    2   29 1
   7    2   30 1
   8    3    4 1
   9    3    7 1
  10    3   31 1
  11    4    5 1
  12    4   32 1
  13    4   33 1
  14    5    6 1
  15    6   34 1
  16    6   35 1
  17    6   36 1
  18    7    8 1
  19    8   24 ar
  20    8    9 ar
  21    9   10 ar
  22   10   11 1
  23   10   12 ar
  24   11   37 1
  25   11   38 1
  26   11   39 1
  27   12   13 ar
  28   13   14 1
  29   13   24 ar
  30   14   15 1
  31   14   40 1
  32   15   22 ar
  33   15   16 ar
  34   16   17 1
  35   16   18 ar
  36   17   41 1
  37   17   42 1
  38   17   43 1
  39   18   19 ar
  40   18   44 1
  41   19   20 1
  42   19   21 ar
  43   20   45 1
  44   20   46 1
  45   20   47 1
  46   21   22 ar
  47   21   48 1
  48   22   23 1
  49   23   49 1
  50   23   50 1
  51   23   51 1
  52   24   25 1
  53   25   52 1
  54   25   53 1
  55   25   54 1

#	End of record

