#	Name: ASD03912039
#	Creating user name:	WinNT
#	Creation time:	15. 06. 2019 20:47

#	Modifying user name:	WinNT
#	Modification time:	15. 06. 2019 20:47

#	Program:	/corina/corina34_cracker 3.40 0067  02.08.2006

@<TRIPOS>MOLECULE
ASD03912039
  66   68    0    0    0
SMALL
NO_CHARGES


@<TRIPOS>ATOM
   1 C1             0.7730     1.5452     2.0374 C.ar    
   2 C2             1.0617     0.3413     1.4213 C.ar    
   3 C3             0.0824    -0.3269     0.7096 C.ar    
   4 C4            -1.1876     0.2068     0.6115 C.ar    
   5 C5            -1.4808     1.4157     1.2290 C.ar    
   6 C6            -0.4967     2.0812     1.9482 C.ar    
   7 C7             1.8433     2.2700     2.8120 C.3     
   8 C8             0.4014    -1.6387     0.0398 C.3     
   9 N9            -2.7665     1.9591     1.1315 N.am    
  10 C10           -2.9300     3.2952     1.0640 C.2     
  11 C11           -4.3038     3.8763     0.8492 C.3     
  12 O12           -1.9716     4.0299     1.1761 O.2     
  13 C13           -4.2130     5.3801     0.8124 C.ar    
  14 C14           -4.0027     6.0295    -0.3900 C.ar    
  15 C15           -3.9191     7.4080    -0.4265 C.ar    
  16 C16           -4.0464     8.1407     0.7447 C.ar    
  17 C17           -4.2573     7.4867     1.9498 C.ar    
  18 C18           -4.3458     6.1084     1.9802 C.ar    
  19 O19           -3.9640     9.4968     0.7115 O.3     
  20 C20           -4.1837    10.1903     1.9414 C.3     
  21 C21           -5.5533     9.8653     2.4795 C.2     
  22 C22           -3.1070     9.7969     2.9680 C.3     
  23 C23           -2.3550    11.0925     3.3364 C.3     
  24 C24           -3.3644    12.2223     3.0143 C.3     
  25 C25           -4.0496    11.7114     1.7216 C.3     
  26 N26           -6.5897     9.7065     1.6327 N.am    
  27 O27           -5.7229     9.7465     3.6745 O.2     
  28 C28           -7.8962     9.2857     2.1448 C.3     
  29 C29           -8.6602    10.4928     2.6246 C.2     
  30 O30           -8.1643    11.5919     2.5467 O.2     
  31 O31           -9.8917    10.3471     3.1384 O.3     
  32 C32           -8.6828     8.5945     1.0293 C.3     
  33 S33           -7.8374     7.0617     0.5536 S.3     
  34 C34           -8.9023     6.3980    -0.7565 C.3     
  35 H35            2.0543    -0.0778     1.4960 H       
  36 H36           -1.9519    -0.3152     0.0548 H       
  37 H37           -0.7217     3.0213     2.4298 H       
  38 H38            2.3781     2.9474     2.1462 H       
  39 H39            1.3841     2.8411     3.6190 H       
  40 H40            2.5419     1.5459     3.2312 H       
  41 H41            0.2016    -2.4575     0.7309 H       
  42 H42           -0.2195    -1.7534    -0.8487 H       
  43 H43            1.4528    -1.6538    -0.2473 H       
  44 H44           -3.5401     1.3742     1.1125 H       
  45 H45           -4.7082     3.5134    -0.0957 H       
  46 H46           -4.9588     3.5717     1.6655 H       
  47 H47           -3.9034     5.4587    -1.3014 H       
  48 H48           -3.7545     7.9148    -1.3659 H       
  49 H49           -4.3567     8.0548     2.8629 H       
  50 H50           -4.5100     5.5987     2.9181 H       
  51 H51           -3.5752     9.3716     3.8557 H       
  52 H52           -2.4170     9.0769     2.5280 H       
  53 H53           -2.1017    11.0981     4.3965 H       
  54 H54           -1.4569    11.1984     2.7280 H       
  55 H55           -4.0916    12.3316     3.8188 H       
  56 H56           -2.8455    13.1631     2.8306 H       
  57 H57           -3.4253    11.9171     0.8521 H       
  58 H58           -5.0319    12.1690     1.6041 H       
  59 H59           -6.4706     9.8708     0.6842 H       
  60 H60           -7.7553     8.5919     2.9736 H       
  61 H61          -10.3425    11.1504     3.4328 H       
  62 H62           -9.6868     8.3609     1.3836 H       
  63 H63           -8.7472     9.2569     0.1660 H       
  64 H64           -9.9007     6.2193    -0.3574 H       
  65 H65           -8.9611     7.1153    -1.5751 H       
  66 H66           -8.4848     5.4607    -1.1241 H       
@<TRIPOS>BOND
   1    1    2 ar
   2    1    7 1
   3    1    6 ar
   4    2    3 ar
   5    2   35 1
   6    3    4 ar
   7    3    8 1
   8    4    5 ar
   9    4   36 1
  10    5    6 ar
  11    5    9 1
  12    6   37 1
  13    7   38 1
  14    7   39 1
  15    7   40 1
  16    8   41 1
  17    8   42 1
  18    8   43 1
  19    9   10 am
  20    9   44 1
  21   10   11 1
  22   10   12 2
  23   11   13 1
  24   11   45 1
  25   11   46 1
  26   13   14 ar
  27   13   18 ar
  28   14   15 ar
  29   14   47 1
  30   15   16 ar
  31   15   48 1
  32   16   17 ar
  33   16   19 1
  34   17   18 ar
  35   17   49 1
  36   18   50 1
  37   19   20 1
  38   20   21 1
  39   20   22 1
  40   20   25 1
  41   21   26 am
  42   21   27 2
  43   22   23 1
  44   22   51 1
  45   22   52 1
  46   23   24 1
  47   23   53 1
  48   23   54 1
  49   24   25 1
  50   24   55 1
  51   24   56 1
  52   25   57 1
  53   25   58 1
  54   26   28 1
  55   26   59 1
  56   28   29 1
  57   28   32 1
  58   28   60 1
  59   29   30 2
  60   29   31 1
  61   31   61 1
  62   32   33 1
  63   32   62 1
  64   32   63 1
  65   33   34 1
  66   34   64 1
  67   34   65 1
  68   34   66 1

#	End of record

