#	Name: ASD01811022
#	Creating user name:	WinNT
#	Creation time:	15. 06. 2019 19:25

#	Modifying user name:	WinNT
#	Modification time:	15. 06. 2019 19:25

#	Program:	/corina/corina34_cracker 3.40 0067  02.08.2006

@<TRIPOS>MOLECULE
ASD01811022
  56   59    0    0    0
SMALL
NO_CHARGES


@<TRIPOS>ATOM
   1 C1            -0.0184     1.5028     0.0103 C.3     
   2 C2             0.0021    -0.0041     0.0020 C.2     
   3 N3            -1.1558    -0.6938     0.0094 N.am    
   4 O4             1.0605    -0.5961    -0.0113 O.2     
   5 C5            -1.1360    -2.1586     0.0013 C.3     
   6 C6            -2.4310    -2.6913     0.6208 C.3     
   7 C7            -2.4313    -4.2203     0.5542 C.3     
   8 N8            -2.3240    -4.6506    -0.8457 N.3     
   9 C9            -1.0660    -4.1907    -1.4476 C.3     
  10 C10           -1.0249    -2.6609    -1.4409 C.3     
  11 C11           -2.4603    -6.1087    -0.9601 C.3     
  12 C12           -2.5936    -6.4943    -2.4347 C.3     
  13 C13           -2.7356    -8.0131    -2.5539 C.3     
  14 N14           -2.8633    -8.3823    -3.9659 N.am    
  15 C15           -1.7663    -8.6571    -4.7048 C.2     
  16 C16           -4.1263    -8.4614    -4.5695 C.ar    
  17 C17           -4.2572    -9.1167    -5.7933 C.ar    
  18 C18           -1.9149    -8.9979    -6.1657 C.3     
  19 O19           -3.1592    -9.6641    -6.3797 O.3     
  20 O20           -0.6661    -8.6294    -4.1949 O.2     
  21 C21           -5.2368    -7.8983    -3.9638 C.ar    
  22 C22           -5.4979    -9.2031    -6.3994 C.ar    
  23 C23           -6.6038    -8.6383    -5.7891 C.ar    
  24 C24           -6.4740    -7.9887    -4.5759 C.ar    
  25 C25            1.3821     2.1379     0.0003 C.3     
  26 C26            0.8157     3.1820    -0.9763 C.3     
  27 C27           -0.2239     2.1237    -1.3815 C.3     
  28 H28           -0.6784     1.9129     0.7747 H       
  29 H29           -2.0023    -0.2203     0.0200 H       
  30 H30           -0.2827    -2.5145     0.5787 H       
  31 H31           -2.4948    -2.3723     1.6611 H       
  32 H32           -3.2858    -2.3028     0.0672 H       
  33 H33           -1.5840    -4.6085     1.1195 H       
  34 H34           -3.3584    -4.6022     0.9816 H       
  35 H35           -0.2251    -4.5792    -0.8730 H       
  36 H36           -1.0015    -4.5512    -2.4743 H       
  37 H37           -1.8577    -2.2719    -2.0268 H       
  38 H38           -0.0843    -2.3202    -1.8735 H       
  39 H39           -1.5788    -6.5904    -0.5369 H       
  40 H40           -3.3479    -6.4344    -0.4177 H       
  41 H41           -3.4751    -6.0127    -2.8579 H       
  42 H42           -1.7060    -6.1687    -2.9771 H       
  43 H43           -1.8541    -8.4947    -2.1307 H       
  44 H44           -3.6232    -8.3387    -2.0115 H       
  45 H45           -1.8864    -8.0824    -6.7566 H       
  46 H46           -1.0977    -9.6516    -6.4708 H       
  47 H47           -5.1373    -7.3903    -3.0159 H       
  48 H48           -5.6030    -9.7101    -7.3472 H       
  49 H49           -7.5722    -8.7054    -6.2624 H       
  50 H50           -7.3412    -7.5502    -4.1045 H       
  51 H51            1.6790     2.5557     0.9624 H       
  52 H52            2.1481     1.4991    -0.4393 H       
  53 H53            0.3832     4.0523    -0.4826 H       
  54 H54            1.5038     3.4478    -1.7788 H       
  55 H55            0.1031     1.4811    -2.1989 H       
  56 H56           -1.2236     2.5300    -1.5350 H       
@<TRIPOS>BOND
   1    1    2 1
   2    1   25 1
   3    1   27 1
   4    1   28 1
   5    2    3 am
   6    2    4 2
   7    3    5 1
   8    3   29 1
   9    5    6 1
  10    5   10 1
  11    5   30 1
  12    6    7 1
  13    6   31 1
  14    6   32 1
  15    7    8 1
  16    7   33 1
  17    7   34 1
  18    8    9 1
  19    8   11 1
  20    9   10 1
  21    9   35 1
  22    9   36 1
  23   10   37 1
  24   10   38 1
  25   11   12 1
  26   11   39 1
  27   11   40 1
  28   12   13 1
  29   12   41 1
  30   12   42 1
  31   13   14 1
  32   13   43 1
  33   13   44 1
  34   14   15 am
  35   14   16 1
  36   15   18 1
  37   15   20 2
  38   16   17 ar
  39   16   21 ar
  40   17   22 ar
  41   17   19 1
  42   18   19 1
  43   18   45 1
  44   18   46 1
  45   21   24 ar
  46   21   47 1
  47   22   23 ar
  48   22   48 1
  49   23   24 ar
  50   23   49 1
  51   24   50 1
  52   25   26 1
  53   25   51 1
  54   25   52 1
  55   26   27 1
  56   26   53 1
  57   26   54 1
  58   27   55 1
  59   27   56 1

#	End of record

