#	Name: ASD01914206
#	Creating user name:	WinNT
#	Creation time:	15. 06. 2019 20:03

#	Modifying user name:	WinNT
#	Modification time:	15. 06. 2019 20:03

#	Program:	/corina/corina34_cracker 3.40 0067  02.08.2006

@<TRIPOS>MOLECULE
ASD01914206
  36   37    0    0    0
SMALL
NO_CHARGES


@<TRIPOS>ATOM
   1 C1            -0.0932     1.4778    -0.0027 C.2     
   2 C2            -0.1733     0.0030    -0.0101 C.ar    
   3 C3             0.2760    -0.7191    -1.1196 C.ar    
   4 C4             0.1974    -2.1019    -1.1177 C.ar    
   5 C5            -0.3243    -2.7654    -0.0205 C.ar    
   6 C6            -0.7700    -2.0535     1.0795 C.ar    
   7 C7            -0.6930    -0.6768     1.0935 C.ar    
   8 O8             0.9030     2.0346    -0.4218 O.2     
   9 N9            -1.1267     2.2065     0.4636 N.am    
  10 C10           -1.0048     3.6621     0.5763 C.3     
  11 C11           -1.4656     4.3150    -0.7285 C.3     
  12 C12           -1.3431     5.7775    -0.6152 C.1     
  13 C13           -1.2454     6.9439    -0.5249 C.1     
  14 C14           -1.1263     8.3667    -0.4148 C.ar    
  15 C15           -1.4914     9.1774    -1.4903 C.ar    
  16 C16           -1.3704    10.5502    -1.3683 C.ar    
  17 C17           -0.8882    11.0697    -0.1747 C.ar    
  18 C18           -0.5449    10.2085     0.8510 C.ar    
  19 N19           -0.6743     8.9048     0.7121 N.ar    
  20 C20           -2.3719     1.5430     0.8577 C.3     
  21 F21            0.6301    -2.8039    -2.1878 F       
  22 F22            0.7846    -0.0705    -2.1901 F       
  23 H23           -0.3841    -3.8438    -0.0231 H       
  24 H24           -1.1761    -2.5783     1.9316 H       
  25 H25           -1.0376    -0.1248     1.9554 H       
  26 H26           -1.6261     4.0161     1.3989 H       
  27 H27            0.0355     3.9259     0.7669 H       
  28 H28           -0.8443     3.9610    -1.5511 H       
  29 H29           -2.5058     4.0512    -0.9191 H       
  30 H30           -1.8627     8.7394    -2.4050 H       
  31 H31           -1.6447    11.2031    -2.1836 H       
  32 H32           -0.7819    12.1371    -0.0486 H       
  33 H33           -0.1692    10.6102     1.7804 H       
  34 H34           -2.2997     1.2227     1.8971 H       
  35 H35           -3.2043     2.2383     0.7487 H       
  36 H36           -2.5382     0.6744     0.2205 H       
@<TRIPOS>BOND
   1    1    2 1
   2    1    8 2
   3    1    9 am
   4    2    3 ar
   5    2    7 ar
   6    3    4 ar
   7    3   22 1
   8    4    5 ar
   9    4   21 1
  10    5    6 ar
  11    5   23 1
  12    6    7 ar
  13    6   24 1
  14    7   25 1
  15    9   10 1
  16    9   20 1
  17   10   11 1
  18   10   26 1
  19   10   27 1
  20   11   12 1
  21   11   28 1
  22   11   29 1
  23   12   13 3
  24   13   14 1
  25   14   15 ar
  26   14   19 ar
  27   15   16 ar
  28   15   30 1
  29   16   17 ar
  30   16   31 1
  31   17   18 ar
  32   17   32 1
  33   18   19 ar
  34   18   33 1
  35   20   34 1
  36   20   35 1
  37   20   36 1

#	End of record

