#	Name: ASD01912179
#	Creating user name:	WinNT
#	Creation time:	15. 06. 2019 19:59

#	Modifying user name:	WinNT
#	Modification time:	15. 06. 2019 19:59

#	Program:	/corina/corina34_cracker 3.40 0067  02.08.2006

@<TRIPOS>MOLECULE
ASD01912179
  40   43    0    0    0
SMALL
NO_CHARGES


@<TRIPOS>ATOM
   1 C1            -0.0183     1.5107     0.0189 C.3     
   2 C2            -0.0110     0.0037     0.0162 C.2     
   3 O3             0.5367    -0.7860    -0.9128 O.3     
   4 N4             0.3689    -1.9508    -0.6191 N.2     
   5 C5            -0.2905    -2.0400     0.5061 C.2     
   6 N6            -0.5352    -0.7785     0.9266 N.2     
   7 C7            -0.6905    -3.2923     1.1963 C.ar    
   8 N8            -1.3611    -3.2280     2.3386 N.ar    
   9 C9            -1.7345    -4.3146     2.9824 C.ar    
  10 C10           -1.4382    -5.5712     2.4861 C.ar    
  11 C11           -0.7380    -5.6836     1.2937 C.ar    
  12 C12           -0.3633    -4.5243     0.6358 C.ar    
  13 C13            1.4227     2.0710    -0.0076 C.3     
  14 C14            1.3276     3.2975    -0.8882 C.2     
  15 N15            0.1863     3.2697    -1.5978 N.am    
  16 C16           -0.5955     2.0631    -1.3032 C.3     
  17 O17            2.1598     4.1780    -0.9451 O.2     
  18 C18           -0.2064     4.2645    -2.5017 C.ar    
  19 C19            0.5423     5.4274    -2.6242 C.ar    
  20 C20            0.1532     6.4074    -3.5162 C.ar    
  21 C21           -0.9828     6.2308    -4.2882 C.ar    
  22 C22           -1.7311     5.0719    -4.1672 C.ar    
  23 C23           -1.3420     4.0869    -3.2808 C.ar    
  24 F24           -1.3618     7.1906    -5.1602 F       
  25 C25           -2.4945    -4.1871     4.2775 C.3     
  26 H26           -0.5703     1.8945     0.8768 H       
  27 H27           -1.7485    -6.4562     3.0217 H       
  28 H28           -0.4946    -6.6535     0.8856 H       
  29 H29            0.1827    -4.5748    -0.2947 H       
  30 H30            1.7434     2.3467     0.9970 H       
  31 H31            2.1075     1.3422    -0.4412 H       
  32 H32           -0.4754     1.3314    -2.1021 H       
  33 H33           -1.6482     2.3169    -1.1783 H       
  34 H34            1.4281     5.5657    -2.0220 H       
  35 H35            0.7350     7.3122    -3.6115 H       
  36 H36           -2.6171     4.9364    -4.7697 H       
  37 H37           -1.9258     3.1832    -3.1868 H       
  38 H38           -3.5642    -4.1597     4.0699 H       
  39 H39           -2.2701    -5.0415     4.9161 H       
  40 H40           -2.1989    -3.2679     4.7833 H       
@<TRIPOS>BOND
   1    1    2 1
   2    1   13 1
   3    1   16 1
   4    1   26 1
   5    2    3 1
   6    2    6 2
   7    3    4 1
   8    4    5 2
   9    5    6 1
  10    5    7 1
  11    7    8 ar
  12    7   12 ar
  13    8    9 ar
  14    9   10 ar
  15    9   25 1
  16   10   11 ar
  17   10   27 1
  18   11   12 ar
  19   11   28 1
  20   12   29 1
  21   13   14 1
  22   13   30 1
  23   13   31 1
  24   14   15 am
  25   14   17 2
  26   15   16 1
  27   15   18 1
  28   16   32 1
  29   16   33 1
  30   18   19 ar
  31   18   23 ar
  32   19   20 ar
  33   19   34 1
  34   20   21 ar
  35   20   35 1
  36   21   22 ar
  37   21   24 1
  38   22   23 ar
  39   22   36 1
  40   23   37 1
  41   25   38 1
  42   25   39 1
  43   25   40 1

#	End of record

