#	Name: ASD00111106
#	Creating user name:	WinNT
#	Creation time:	15. 06. 2019 18:30

#	Modifying user name:	WinNT
#	Modification time:	15. 06. 2019 18:30

#	Program:	/corina/corina34_cracker 3.40 0067  02.08.2006

@<TRIPOS>MOLECULE
ASD00111106
  32   32    0    0    0
SMALL
NO_CHARGES


@<TRIPOS>ATOM
   1 N1            -0.0178     1.4608     0.0101 N.am    
   2 C2            -1.2924    -0.5351     0.6212 C.3     
   3 C3             0.0021    -0.0041     0.0020 C.3     
   4 C4             0.1210    -0.5046    -1.4389 C.3     
   5 C5            -1.3503    -0.1451     2.0757 C.ar    
   6 C6            -1.9351     1.0503     2.4471 C.ar    
   7 C7            -1.9881     1.4087     3.7861 C.ar    
   8 C8            -1.4535     0.5651     4.7493 C.ar    
   9 C9            -0.8700    -0.6289     4.3729 C.ar    
  10 C10           -0.8234    -0.9865     3.0378 C.ar    
  11 O11           -2.5623     2.5842     4.1538 O.3     
  12 C12           -2.5814     2.8881     5.5500 C.3     
  13 C13            1.1401     2.1505     0.0027 C.2     
  14 O14            2.1985     1.5584    -0.0106 O.2     
  15 C15            1.1197     3.6573     0.0110 C.3     
  16 F16            2.4322     4.1416     0.0011 F       
  17 F17            0.4430     4.1208    -1.1224 F       
  18 F18            0.4648     4.1085     1.1620 F       
  19 H19           -0.8643     1.9343     0.0167 H       
  20 H20           -2.1475    -0.1091     0.0965 H       
  21 H21           -1.3174    -1.6214     0.5350 H       
  22 H22            0.8543    -0.3591     0.5815 H       
  23 H23            0.1358    -1.5945    -1.4449 H       
  24 H24           -0.7313    -0.1496    -2.0183 H       
  25 H25            1.0432    -0.1263    -1.8800 H       
  26 H26           -2.3502     1.7054     1.6954 H       
  27 H27           -1.4932     0.8420     5.7924 H       
  28 H28           -0.4534    -1.2857     5.1222 H       
  29 H29           -0.3710    -1.9227     2.7459 H       
  30 H30           -3.1327     2.1134     6.0830 H       
  31 H31           -1.5594     2.9309     5.9265 H       
  32 H32           -3.0666     3.8517     5.7055 H       
@<TRIPOS>BOND
   1    1    3 1
   2    1   13 am
   3    1   19 1
   4    2    3 1
   5    2    5 1
   6    2   20 1
   7    2   21 1
   8    3    4 1
   9    3   22 1
  10    4   23 1
  11    4   24 1
  12    4   25 1
  13    5    6 ar
  14    5   10 ar
  15    6    7 ar
  16    6   26 1
  17    7    8 ar
  18    7   11 1
  19    8    9 ar
  20    8   27 1
  21    9   10 ar
  22    9   28 1
  23   10   29 1
  24   11   12 1
  25   12   30 1
  26   12   31 1
  27   12   32 1
  28   13   14 2
  29   13   15 1
  30   15   16 1
  31   15   17 1
  32   15   18 1

#	End of record

