#	Name: ASD01708020
#	Creating user name:	WinNT
#	Creation time:	15. 06. 2019 19:22

#	Modifying user name:	WinNT
#	Modification time:	15. 06. 2019 19:22

#	Program:	/corina/corina34_cracker 3.40 0067  02.08.2006

@<TRIPOS>MOLECULE
ASD01708020
  67   69    0    0    0
SMALL
NO_CHARGES


@<TRIPOS>ATOM
   1 C1            -0.2699     2.0595     0.7340 C.ar    
   2 C2             0.8733     2.5666     1.3294 C.ar    
   3 C3            -0.2227     0.8625     0.0387 C.ar    
   4 C4             0.9643     0.1683    -0.0646 C.ar    
   5 C5             2.1200     0.6744     0.5334 C.ar    
   6 C6             2.0661     1.8815     1.2329 C.ar    
   7 C7             3.3952    -0.0649     0.4267 C.2     
   8 N8             3.3949    -1.4127     0.4283 N.am    
   9 O9             4.4443     0.5425     0.3375 O.2     
  10 C10            2.1643    -2.1752     0.6638 C.3     
  11 C11            2.4424    -3.3055     1.6238 C.ar    
  12 C12            3.7226    -3.6676     1.9833 C.ar    
  13 C13            4.9477    -2.9588     1.4679 C.3     
  14 C14            4.6287    -2.1793     0.1875 C.3     
  15 C15            1.3515    -3.9890     2.1476 C.ar    
  16 C16            1.5313    -5.0366     3.0244 C.ar    
  17 C17            2.8263    -5.4158     3.3887 C.ar    
  18 C18            3.9168    -4.7252     2.8619 C.ar    
  19 Cl19           5.5287    -5.1900     3.3084 Cl      
  20 Cl20           0.1589    -5.8793     3.6725 Cl      
  21 C21            3.0378    -6.5393     4.3237 C.2     
  22 N22            3.0985    -6.3096     5.6504 N.am    
  23 O23            3.1572    -7.6713     3.8967 O.2     
  24 C24            3.3082    -7.4240     6.5779 C.3     
  25 C25            1.9838    -8.0687     6.8963 C.2     
  26 O26            1.9317    -9.1179     7.7318 O.3     
  27 O27            0.9688    -7.6411     6.3994 O.2     
  28 C28            3.9442    -6.9014     7.8676 C.3     
  29 N29            5.1723    -6.1706     7.5452 N.pl3   
  30 N30            6.9028    -4.7898     8.2378 N.am    
  31 S31            7.4594    -4.7435     6.6788 S.o2    
  32 O32            7.7722    -6.0966     6.3780 O.2     
  33 O33            6.4450    -4.0500     5.9650 O.2     
  34 C34            8.9713    -3.7451     6.7674 C.3     
  35 Cl35          -1.7695     2.9241     0.8659 Cl      
  36 N36            5.4661    -5.6406     9.8481 N.pl3   
  37 N37            6.1554    -4.9945    10.8347 N.3     
  38 C38            5.3123    -3.9879    11.4934 C.3     
  39 C39            5.8660    -5.5203     8.5382 C.2     
  40 C40            6.6957    -5.9494    11.8115 C.3     
  41 H41            0.8305     3.5006     1.8699 H       
  42 H42           -1.1174     0.4718    -0.4231 H       
  43 H43            0.9999    -0.7651    -0.6067 H       
  44 H44            2.9570     2.2780     1.6972 H       
  45 H45            1.4057    -1.5174     1.0881 H       
  46 H46            1.8034    -2.5821    -0.2807 H       
  47 H47            5.3093    -2.2681     2.2296 H       
  48 H48            5.7238    -3.6938     1.2543 H       
  49 H49            4.4818    -2.8733    -0.6401 H       
  50 H50            5.4472    -1.4974    -0.0429 H       
  51 H51            0.3515    -3.6955     1.8645 H       
  52 H52            3.0032    -5.4064     5.9911 H       
  53 H53            3.9692    -8.1592     6.1189 H       
  54 H54            1.0596    -9.4978     7.9057 H       
  55 H55            3.2459    -6.2337     8.3723 H       
  56 H56            4.1817    -7.7404     8.5216 H       
  57 H57            5.4960    -6.1456     6.6312 H       
  58 H58            9.6836    -4.2234     7.4397 H       
  59 H59            9.4101    -3.6612     5.7731 H       
  60 H60            8.7288    -2.7509     7.1425 H       
  61 H61            4.6946    -6.1843    10.0717 H       
  62 H62            4.4432    -4.4749    11.9356 H       
  63 H63            5.8856    -3.4886    12.2745 H       
  64 H64            4.9825    -3.2532    10.7588 H       
  65 H65            7.3716    -6.6408    11.3082 H       
  66 H66            7.2397    -5.4085    12.5858 H       
  67 H67            5.8767    -6.5075    12.2653 H       
@<TRIPOS>BOND
   1    1    2 ar
   2    1    3 ar
   3    1   35 1
   4    2    6 ar
   5    2   41 1
   6    3    4 ar
   7    3   42 1
   8    4    5 ar
   9    4   43 1
  10    5    6 ar
  11    5    7 1
  12    6   44 1
  13    7    8 am
  14    7    9 2
  15    8   10 1
  16    8   14 1
  17   10   11 1
  18   10   45 1
  19   10   46 1
  20   11   12 ar
  21   11   15 ar
  22   12   13 1
  23   12   18 ar
  24   13   14 1
  25   13   47 1
  26   13   48 1
  27   14   49 1
  28   14   50 1
  29   15   16 ar
  30   15   51 1
  31   16   17 ar
  32   16   20 1
  33   17   18 ar
  34   17   21 1
  35   18   19 1
  36   21   22 am
  37   21   23 2
  38   22   24 1
  39   22   52 1
  40   24   25 1
  41   24   28 1
  42   24   53 1
  43   25   26 1
  44   25   27 2
  45   26   54 1
  46   28   29 1
  47   28   55 1
  48   28   56 1
  49   29   39 1
  50   29   57 1
  51   30   31 am
  52   30   39 2
  53   31   32 2
  54   31   33 2
  55   31   34 1
  56   34   58 1
  57   34   59 1
  58   34   60 1
  59   36   37 1
  60   36   39 1
  61   36   61 1
  62   37   38 1
  63   37   40 1
  64   38   62 1
  65   38   63 1
  66   38   64 1
  67   40   65 1
  68   40   66 1
  69   40   67 1

#	End of record

