#	Name: ASD01915190
#	Creating user name:	WinNT
#	Creation time:	15. 06. 2019 20:05

#	Modifying user name:	WinNT
#	Modification time:	15. 06. 2019 20:05

#	Program:	/corina/corina34_cracker 3.40 0067  02.08.2006

@<TRIPOS>MOLECULE
ASD01915190
  47   50    0    0    0
SMALL
NO_CHARGES


@<TRIPOS>ATOM
   1 C1            -0.0162     1.3436     0.0094 C.2     
   2 N2             0.0021    -0.0041     0.0020 N.am    
   3 C3             1.0368    -1.0490    -0.0135 C.3     
   4 C4             0.0358    -1.9749     0.6913 C.3     
   5 C5            -1.0039    -1.0768     0.0125 C.3     
   6 O6            -0.2019    -3.8004    -1.0585 O.3     
   7 N7            -0.1085    -5.0075    -1.1312 N.2     
   8 C8             0.2071    -5.5048     0.0362 C.2     
   9 N9             0.3115    -4.4674     0.8971 N.2     
  10 C10            0.0501    -3.3961     0.1904 C.2     
  11 C11            0.4118    -6.9396     0.3564 C.ar    
  12 C12            0.2699    -7.9052    -0.6382 C.ar    
  13 C13            0.7941    -9.6156     0.9537 C.ar    
  14 C14            0.7521    -7.3252     1.6511 C.ar    
  15 C15            0.4618    -9.2377    -0.3350 C.ar    
  16 C16            0.9417    -8.6609     1.9433 C.ar    
  17 C17            0.3087   -10.2831    -1.4096 C.3     
  18 O18            1.0258     1.9642     0.0028 O.2     
  19 C19           -1.3314     2.0792     0.0197 C.3     
  20 C20           -1.0722     3.5871     0.0266 C.3     
  21 C21           -2.4075     4.3340     0.0370 C.3     
  22 C22           -3.2106     3.9603    -1.2105 C.3     
  23 C23           -3.4698     2.4524    -1.2174 C.3     
  24 C24           -2.1345     1.7055    -1.2278 C.3     
  25 F25           -4.4316     4.6433    -1.2010 F       
  26 F26           -2.4871     4.3144    -2.3543 F       
  27 H27            1.3033    -1.3812    -1.0168 H       
  28 H28            1.9075    -0.8068     0.5960 H       
  29 H29            0.0455    -1.8987     1.7786 H       
  30 H30           -1.8650    -0.8582     0.6439 H       
  31 H31           -1.2866    -1.4165    -0.9839 H       
  32 H32            0.0099    -7.6113    -1.6443 H       
  33 H33            0.9430   -10.6596     1.1867 H       
  34 H34            0.8676    -6.5805     2.4247 H       
  35 H35            1.2009    -8.9614     2.9478 H       
  36 H36            1.2691   -10.4440    -1.8994 H       
  37 H37           -0.0319   -11.2169    -0.9622 H       
  38 H38           -0.4217    -9.9446    -2.1444 H       
  39 H39           -1.8951     1.8033     0.9108 H       
  40 H40           -0.5001     3.8533     0.9154 H       
  41 H41           -0.5085     3.8630    -0.8645 H       
  42 H42           -2.9712     4.0581     0.9282 H       
  43 H43           -2.2229     5.4083     0.0420 H       
  44 H44           -4.0335     2.1765    -0.3263 H       
  45 H45           -4.0419     2.1862    -2.1062 H       
  46 H46           -1.5708     1.9814    -2.1190 H       
  47 H47           -2.3191     0.6313    -1.2328 H       
@<TRIPOS>BOND
   1    1    2 am
   2    1   18 2
   3    1   19 1
   4    2    3 1
   5    2    5 1
   6    3    4 1
   7    3   27 1
   8    3   28 1
   9    4    5 1
  10    4   10 1
  11    4   29 1
  12    5   30 1
  13    5   31 1
  14    6    7 1
  15    6   10 1
  16    7    8 2
  17    8    9 1
  18    8   11 1
  19    9   10 2
  20   11   12 ar
  21   11   14 ar
  22   12   15 ar
  23   12   32 1
  24   13   15 ar
  25   13   16 ar
  26   13   33 1
  27   14   16 ar
  28   14   34 1
  29   15   17 1
  30   16   35 1
  31   17   36 1
  32   17   37 1
  33   17   38 1
  34   19   20 1
  35   19   24 1
  36   19   39 1
  37   20   21 1
  38   20   40 1
  39   20   41 1
  40   21   22 1
  41   21   42 1
  42   21   43 1
  43   22   23 1
  44   22   25 1
  45   22   26 1
  46   23   24 1
  47   23   44 1
  48   23   45 1
  49   24   46 1
  50   24   47 1

#	End of record

