#	Name: ASD02590055
#	Creating user name:	WinNT
#	Creation time:	15. 06. 2019 20:25

#	Modifying user name:	WinNT
#	Modification time:	15. 06. 2019 20:25

#	Program:	/corina/corina34_cracker 3.40 0067  02.08.2006

@<TRIPOS>MOLECULE
ASD02590055
  69   74    0    0    0
SMALL
NO_CHARGES


@<TRIPOS>ATOM
   1 O1            -0.0173     1.4248     0.0099 O.3     
   2 C2             0.0021    -0.0041     0.0020 C.3     
   3 C3            -1.4333    -0.5336     0.0129 C.3     
   4 O4            -2.0889    -0.1578    -1.2000 O.3     
   5 C5            -3.3798    -0.5525    -1.3511 C.ar    
   6 C6            -4.0856    -0.2245    -2.5057 C.ar    
   7 C7            -4.0090    -1.2930    -0.3574 C.ar    
   8 N8            -5.2588    -1.6802    -0.4946 N.ar    
   9 C9            -5.9660    -1.3823    -1.5785 C.ar    
  10 C10           -5.3977    -0.6463    -2.6184 C.ar    
  11 C11           -7.3679    -1.8406    -1.6868 C.2     
  12 N12           -8.0325    -2.5714    -0.7395 N.pl3   
  13 C13           -9.3106    -2.7937    -1.2175 C.ar    
  14 C14           -9.3722    -2.1690    -2.4758 C.ar    
  15 N15           -8.1622    -1.6032    -2.7018 N.2     
  16 C16          -10.4219    -3.4579    -0.7170 C.ar    
  17 C17          -11.5851    -3.5041    -1.4544 C.ar    
  18 C18          -11.6545    -2.8880    -2.7013 C.ar    
  19 C19          -10.5592    -2.2238    -3.2145 C.ar    
  20 C20            1.2801     2.0237     0.0007 C.3     
  21 C21            1.1386     3.5471     0.0102 C.3     
  22 O22            0.5393     3.9622     1.2393 O.3     
  23 C23            0.3415     5.2951     1.4097 C.ar    
  24 C24           -0.2374     5.7768     2.5809 C.ar    
  25 C25           -0.4201     7.1412     2.7131 C.ar    
  26 C26           -0.0209     7.9834     1.6753 C.ar    
  27 N27            0.5275     7.4863     0.5727 N.ar    
  28 C28            0.7198     6.1938     0.4193 C.ar    
  29 C29           -0.2106     9.4445     1.8039 C.2     
  30 N30           -0.7384    10.0476     2.8408 N.2     
  31 C31           -0.7609    11.3852     2.6275 C.ar    
  32 C32           -0.2013    11.6132     1.3578 C.ar    
  33 N33            0.1440    10.3704     0.8604 N.pl3   
  34 C34           -1.2062    12.4713     3.3890 C.ar    
  35 C35           -1.0917    13.7516     2.8871 C.ar    
  36 C36           -0.5366    13.9687     1.6286 C.ar    
  37 C37           -0.0939    12.9079     0.8687 C.ar    
  38 O38          -12.8087    -2.9420    -3.4182 O.3     
  39 C39          -13.9049    -3.6459    -2.8308 C.3     
  40 O40           -1.5240    14.8080     3.6261 O.3     
  41 C41           -1.3768    16.1070     3.0491 C.3     
  42 H42            0.5123    -0.3556    -0.8948 H       
  43 H43            0.5293    -0.3651     0.8851 H       
  44 H44           -1.4190    -1.6203     0.0965 H       
  45 H45           -1.9701    -0.1109     0.8621 H       
  46 H46           -3.6191     0.3465    -3.2948 H       
  47 H47           -3.4651    -1.5541     0.5384 H       
  48 H48           -5.9762    -0.4057    -3.4981 H       
  49 H49           -7.6739    -2.8766     0.1085 H       
  50 H50          -10.3750    -3.9382     0.2492 H       
  51 H51          -12.4484    -4.0217    -1.0630 H       
  52 H52          -10.6183    -1.7473    -4.1819 H       
  53 H53            1.8338     1.7047     0.8837 H       
  54 H54            1.8168     1.7143    -0.8961 H       
  55 H55            2.1235     4.0041    -0.0863 H       
  56 H56            0.5101     3.8589    -0.8239 H       
  57 H57           -0.5371     5.1005     3.3677 H       
  58 H58           -0.8664     7.5493     3.6080 H       
  59 H59            1.1691     5.8259    -0.4914 H       
  60 H60            0.5551    10.1881     0.0009 H       
  61 H61           -1.6380    12.3083     4.3653 H       
  62 H62           -0.4523    14.9751     1.2457 H       
  63 H63            0.3353    13.0834    -0.1067 H       
  64 H64          -13.6192    -4.6833    -2.6570 H       
  65 H65          -14.1706    -3.1784    -1.8827 H       
  66 H66          -14.7609    -3.6128    -3.5048 H       
  67 H67           -0.3222    16.2996     2.8518 H       
  68 H68           -1.9359    16.1549     2.1146 H       
  69 H69           -1.7600    16.8573     3.7406 H       
@<TRIPOS>BOND
   1    1    2 1
   2    1   20 1
   3    2    3 1
   4    2   42 1
   5    2   43 1
   6    3    4 1
   7    3   44 1
   8    3   45 1
   9    4    5 1
  10    5    6 ar
  11    5    7 ar
  12    6   10 ar
  13    6   46 1
  14    7    8 ar
  15    7   47 1
  16    8    9 ar
  17    9   10 ar
  18    9   11 1
  19   10   48 1
  20   11   12 1
  21   11   15 2
  22   12   13 1
  23   12   49 1
  24   13   14 ar
  25   13   16 ar
  26   14   15 1
  27   14   19 ar
  28   16   17 ar
  29   16   50 1
  30   17   18 ar
  31   17   51 1
  32   18   19 ar
  33   18   38 1
  34   19   52 1
  35   20   21 1
  36   20   53 1
  37   20   54 1
  38   21   22 1
  39   21   55 1
  40   21   56 1
  41   22   23 1
  42   23   24 ar
  43   23   28 ar
  44   24   25 ar
  45   24   57 1
  46   25   26 ar
  47   25   58 1
  48   26   27 ar
  49   26   29 1
  50   27   28 ar
  51   28   59 1
  52   29   30 2
  53   29   33 1
  54   30   31 1
  55   31   32 ar
  56   31   34 ar
  57   32   33 1
  58   32   37 ar
  59   33   60 1
  60   34   35 ar
  61   34   61 1
  62   35   36 ar
  63   35   40 1
  64   36   37 ar
  65   36   62 1
  66   37   63 1
  67   38   39 1
  68   39   64 1
  69   39   65 1
  70   39   66 1
  71   40   41 1
  72   41   67 1
  73   41   68 1
  74   41   69 1

#	End of record

