#	Name: ASD02198005
#	Creating user name:	WinNT
#	Creation time:	15. 06. 2019 20:18

#	Modifying user name:	WinNT
#	Modification time:	15. 06. 2019 20:18

#	Program:	/corina/corina34_cracker 3.40 0067  02.08.2006

@<TRIPOS>MOLECULE
ASD02198005
  40   42    0    0    0
SMALL
NO_CHARGES


@<TRIPOS>ATOM
   1 C1            -1.0491     1.3660     1.1204 C.2     
   2 C2            -1.1362    -0.1035     1.0162 C.ar    
   3 C3            -0.9802    -0.8971     2.1563 C.ar    
   4 C4            -1.0631    -2.2717     2.0535 C.ar    
   5 C5            -1.3020    -2.8650     0.8144 C.ar    
   6 C6            -1.4564    -2.0769    -0.3176 C.ar    
   7 C7            -1.3805    -0.7041    -0.2210 C.ar    
   8 O8            -0.8414     1.8877     2.1989 O.2     
   9 N9            -1.1942     2.1294     0.0193 N.am    
  10 O10           -1.3832    -4.2170     0.7150 O.3     
  11 C11           -1.6298    -4.7582    -0.5843 C.3     
  12 F12           -2.8489    -4.2718    -1.0685 F       
  13 F13           -0.5991    -4.3789    -1.4509 F       
  14 C14           -0.1031     5.6384     0.1466 C.ar    
  15 C15           -0.0396     4.2642     0.0291 C.ar    
  16 C16           -1.2148     3.5204     0.1323 C.ar    
  17 C17           -2.4113     4.2028     0.3509 C.ar    
  18 C18           -2.3888     5.5793     0.4564 C.ar    
  19 N19           -1.2554     6.2473     0.3534 N.ar    
  20 Cl20          -3.9079     3.3339     0.4880 Cl      
  21 Cl21           1.4816     3.4734    -0.2434 Cl      
  22 O22           -0.9114    -3.0468     3.1607 O.3     
  23 C23           -0.6688    -2.3720     4.3968 C.3     
  24 C24           -0.5264    -3.4009     5.5201 C.3     
  25 C25           -0.1452    -2.8829     6.9084 C.3     
  26 C26           -1.5691    -3.3737     6.6394 C.3     
  27 H27           -0.7950    -0.4362     3.1153 H       
  28 H28           -1.6409    -2.5403    -1.2756 H       
  29 H29           -1.5054    -0.0931    -1.1027 H       
  30 H30           -1.2842     1.7122    -0.8518 H       
  31 H31           -1.6712    -5.8457    -0.5231 H       
  32 H32            0.8025     6.2222     0.0725 H       
  33 H33           -3.3105     6.1161     0.6257 H       
  34 H34            0.2494    -1.7898     4.3187 H       
  35 H35           -1.5033    -1.7064     4.6173 H       
  36 H36           -0.1345    -4.3729     5.2205 H       
  37 H37            0.4972    -3.5143     7.5222 H       
  38 H38            0.0042    -1.8091     7.0214 H       
  39 H39           -2.3566    -2.6227     6.5755 H       
  40 H40           -1.8636    -4.3279     7.0763 H       
@<TRIPOS>BOND
   1    1    2 1
   2    1    8 2
   3    1    9 am
   4    2    3 ar
   5    2    7 ar
   6    3    4 ar
   7    3   27 1
   8    4    5 ar
   9    4   22 1
  10    5    6 ar
  11    5   10 1
  12    6    7 ar
  13    6   28 1
  14    7   29 1
  15    9   16 1
  16    9   30 1
  17   10   11 1
  18   11   12 1
  19   11   13 1
  20   11   31 1
  21   14   15 ar
  22   14   19 ar
  23   14   32 1
  24   15   16 ar
  25   15   21 1
  26   16   17 ar
  27   17   18 ar
  28   17   20 1
  29   18   19 ar
  30   18   33 1
  31   22   23 1
  32   23   24 1
  33   23   34 1
  34   23   35 1
  35   24   25 1
  36   24   26 1
  37   24   36 1
  38   25   26 1
  39   25   37 1
  40   25   38 1
  41   26   39 1
  42   26   40 1

#	End of record

