#	Name: ASD09740051
#	Creating user name:	WinNT
#	Creation time:	15. 06. 2019 21:22

#	Modifying user name:	WinNT
#	Modification time:	15. 06. 2019 21:22

#	Program:	/corina/corina34_cracker 3.40 0067  02.08.2006

@<TRIPOS>MOLECULE
ASD09740051
  61   65    0    0    0
SMALL
NO_CHARGES


@<TRIPOS>ATOM
   1 N1            -0.0144     1.2085     0.0087 N.2     
   2 O2             0.0021    -0.0041     0.0020 O.3     
   3 C3             1.2064     1.6802    -0.0004 C.2     
   4 N4             2.0463     0.6241    -0.0141 N.2     
   5 C5             1.2701    -0.4441    -0.0125 C.2     
   6 C6             1.7125    -1.8532    -0.0235 C.ar    
   7 C7             1.5952     3.1123     0.0035 C.ar    
   8 C8             3.0747    -2.1587    -0.0374 C.ar    
   9 C9             0.7687    -2.8832    -0.0144 C.ar    
  10 C10            1.1875    -4.1998    -0.0248 C.ar    
  11 C11            2.5490    -4.4978    -0.0444 C.ar    
  12 C12            3.4861    -3.4748    -0.0477 C.ar    
  13 C13            2.9476     3.4685    -0.0080 C.ar    
  14 C14            3.3225     4.7809    -0.0045 C.ar    
  15 C15            2.3582     5.7847     0.0106 C.ar    
  16 C16            0.9935     5.4380     0.0218 C.ar    
  17 C17            0.6158     4.0962     0.0129 C.ar    
  18 O18            2.9594    -5.7930    -0.0543 O.3     
  19 C19            4.3690    -6.0268    -0.0743 C.3     
  20 C20            4.6360    -7.5333    -0.0829 C.3     
  21 O21            0.2714    -5.2049    -0.0155 O.3     
  22 C22           -1.1065    -4.8266     0.0051 C.3     
  23 C23           -1.9801    -6.0827     0.0130 C.3     
  24 N24            2.4266     7.1592     0.0179 N.pl3   
  25 C25            1.1650     7.6889     0.0331 C.2     
  26 C26            0.2543     6.7031     0.0363 C.2     
  27 C27           -1.2438     6.8663     0.0513 C.3     
  28 N28           -1.7439     6.6721     1.4188 N.3     
  29 C29           -3.1684     7.0562     1.5218 C.3     
  30 C30           -3.3751     7.6525     2.9265 C.3     
  31 C31           -1.9805     7.6098     3.5924 C.3     
  32 C32           -1.0191     7.5431     2.3792 C.3     
  33 O33           -4.3040     6.8608     3.6697 O.3     
  34 H34            3.8062    -1.3642    -0.0403 H       
  35 H35           -0.2859    -2.6509     0.0012 H       
  36 H36            4.5402    -3.7096    -0.0629 H       
  37 H37            3.7032     2.6970    -0.0194 H       
  38 H38            4.3706     5.0414    -0.0132 H       
  39 H39           -0.4294     3.8244     0.0214 H       
  40 H40            4.7993    -5.5765    -0.9689 H       
  41 H41            4.8237    -5.5822     0.8109 H       
  42 H42            4.2057    -7.9836     0.8117 H       
  43 H43            4.1813    -7.9779    -0.9681 H       
  44 H44            5.7112    -7.7116    -0.0982 H       
  45 H45           -1.3084    -4.2381     0.9001 H       
  46 H46           -1.3333    -4.2319    -0.8797 H       
  47 H47           -1.7782    -6.6713    -0.8820 H       
  48 H48           -1.7533    -6.6775     0.8978 H       
  49 H49           -3.0311    -5.7942     0.0287 H       
  50 H50            3.2475     7.6759     0.0132 H       
  51 H51            0.9360     8.7444     0.0414 H       
  52 H52           -1.5037     7.8677    -0.2919 H       
  53 H53           -1.6964     6.1269    -0.6095 H       
  54 H54           -3.4078     7.8014     0.7632 H       
  55 H55           -3.8001     6.1771     1.3950 H       
  56 H56           -3.7277     8.6813     2.8527 H       
  57 H57           -1.8037     8.5136     4.1755 H       
  58 H58           -1.8776     6.7213     4.2154 H       
  59 H59           -0.0689     7.0925     2.6657 H       
  60 H60           -0.8636     8.5357     1.9566 H       
  61 H61           -4.4736     7.1888     4.5634 H       
@<TRIPOS>BOND
   1    1    2 1
   2    1    3 2
   3    2    5 1
   4    3    4 1
   5    3    7 1
   6    4    5 2
   7    5    6 1
   8    6    8 ar
   9    6    9 ar
  10    7   13 ar
  11    7   17 ar
  12    8   12 ar
  13    8   34 1
  14    9   10 ar
  15    9   35 1
  16   10   11 ar
  17   10   21 1
  18   11   12 ar
  19   11   18 1
  20   12   36 1
  21   13   14 ar
  22   13   37 1
  23   14   15 ar
  24   14   38 1
  25   15   16 ar
  26   15   24 1
  27   16   17 ar
  28   16   26 1
  29   17   39 1
  30   18   19 1
  31   19   20 1
  32   19   40 1
  33   19   41 1
  34   20   42 1
  35   20   43 1
  36   20   44 1
  37   21   22 1
  38   22   23 1
  39   22   45 1
  40   22   46 1
  41   23   47 1
  42   23   48 1
  43   23   49 1
  44   24   25 1
  45   24   50 1
  46   25   26 2
  47   25   51 1
  48   26   27 1
  49   27   28 1
  50   27   52 1
  51   27   53 1
  52   28   29 1
  53   28   32 1
  54   29   30 1
  55   29   54 1
  56   29   55 1
  57   30   31 1
  58   30   33 1
  59   30   56 1
  60   31   32 1
  61   31   57 1
  62   31   58 1
  63   32   59 1
  64   32   60 1
  65   33   61 1

#	End of record

