#	Name: ASD01811626
#	Creating user name:	WinNT
#	Creation time:	15. 06. 2019 19:27

#	Modifying user name:	WinNT
#	Modification time:	15. 06. 2019 19:27

#	Program:	/corina/corina34_cracker 3.40 0067  02.08.2006

@<TRIPOS>MOLECULE
ASD01811626
  27   28    0    0    0
SMALL
NO_CHARGES


@<TRIPOS>ATOM
   1 C1             0.0241     1.4119     0.2328 C.ar    
   2 C2             0.0791     0.0489     0.4907 C.ar    
   3 C3             1.2616    -0.6386     0.2365 C.ar    
   4 C4             2.3491     0.0769    -0.2705 C.ar    
   5 C5             2.2168     1.4284    -0.5004 C.ar    
   6 N6             1.0800     2.0519    -0.2484 N.ar    
   7 N7             1.3589    -2.0053     0.4816 N.pl3   
   8 N8            -1.1526     2.1113     0.4764 N.3     
   9 C9            -0.9990     3.5380     0.1373 C.3     
  10 C10           -2.0930     3.8828    -0.8950 C.3     
  11 C11           -3.1584     2.7806    -0.6566 C.3     
  12 C12           -2.2718     1.5572    -0.3148 C.3     
  13 N13            3.6289    -0.6095    -0.5568 N.pl3   
  14 O14            4.6853    -0.0434    -0.3400 O.2     
  15 O15            3.6255    -1.7404    -1.0092 O.2     
  16 H16           -0.7829    -0.4699     0.8832 H       
  17 H17            3.0544     1.9862    -0.8923 H       
  18 H18            0.5699    -2.5103     0.7335 H       
  19 H19            2.2157    -2.4528     0.4006 H       
  20 H20           -1.1277     4.1477     1.0316 H       
  21 H21           -0.0135     3.7125    -0.2945 H       
  22 H22           -2.5100     4.8707    -0.6992 H       
  23 H23           -1.6981     3.8242    -1.9093 H       
  24 H24           -3.8069     3.0389     0.1805 H       
  25 H25           -3.7420     2.5998    -1.5593 H       
  26 H26           -1.8981     1.0926    -1.2272 H       
  27 H27           -2.8339     0.8348     0.2772 H       
@<TRIPOS>BOND
   1    1    2 ar
   2    1    6 ar
   3    1    8 1
   4    2    3 ar
   5    2   16 1
   6    3    4 ar
   7    3    7 1
   8    4    5 ar
   9    4   13 1
  10    5    6 ar
  11    5   17 1
  12    7   18 1
  13    7   19 1
  14    8    9 1
  15    8   12 1
  16    9   10 1
  17    9   20 1
  18    9   21 1
  19   10   11 1
  20   10   22 1
  21   10   23 1
  22   11   12 1
  23   11   24 1
  24   11   25 1
  25   12   26 1
  26   12   27 1
  27   13   14 2
  28   13   15 2

#	End of record

