#	Name: ASD01230230
#	Creating user name:	WinNT
#	Creation time:	15. 06. 2019 19:12

#	Modifying user name:	WinNT
#	Modification time:	15. 06. 2019 19:12

#	Program:	/corina/corina34_cracker 3.40 0067  02.08.2006

@<TRIPOS>MOLECULE
ASD01230230
  24   25    0    0    0
SMALL
NO_CHARGES


@<TRIPOS>ATOM
   1 C1            -0.0168     1.3840     0.0097 C.ar    
   2 C2             0.0021    -0.0041     0.0020 C.ar    
   3 C3             1.2048    -0.6788    -0.0127 C.ar    
   4 C4             2.4025     0.0347    -0.0203 C.ar    
   5 C5             2.3802     1.4285    -0.0131 C.ar    
   6 C6             1.1742     2.0974     0.0021 C.ar    
   7 O7            -1.2035     2.0460     0.0189 O.3     
   8 C8             4.6898    -0.3529    -0.9681 C.ar    
   9 C9             3.6975    -0.6876    -0.0356 C.ar    
  10 C10            3.9496    -1.7112     0.8774 C.ar    
  11 C11            5.1758    -2.3560     0.8230 C.ar    
  12 C12            6.1042    -1.9707    -0.1242 C.ar    
  13 N13            5.8443    -0.9986    -0.9786 N.ar    
  14 N14            4.4572     0.6591    -1.8896 N.pl3   
  15 H15           -0.9261    -0.5562     0.0080 H       
  16 H16            1.2188    -1.7587    -0.0179 H       
  17 H17            3.3064     1.9841    -0.0186 H       
  18 H18            1.1562     3.1772     0.0078 H       
  19 H19           -1.5428     2.2327     0.9049 H       
  20 H20            3.2077    -1.9945     1.6093 H       
  21 H21            5.4032    -3.1527     1.5158 H       
  22 H22            7.0593    -2.4731    -0.1664 H       
  23 H23            3.6103     1.1321    -1.8871 H       
  24 H24            5.1415     0.8932    -2.5360 H       
@<TRIPOS>BOND
   1    1    2 ar
   2    1    6 ar
   3    1    7 1
   4    2    3 ar
   5    2   15 1
   6    3    4 ar
   7    3   16 1
   8    4    5 ar
   9    4    9 1
  10    5    6 ar
  11    5   17 1
  12    6   18 1
  13    7   19 1
  14    8    9 ar
  15    8   13 ar
  16    8   14 1
  17    9   10 ar
  18   10   11 ar
  19   10   20 1
  20   11   12 ar
  21   11   21 1
  22   12   13 ar
  23   12   22 1
  24   14   23 1
  25   14   24 1

#	End of record

