#	Name: ASD01190022
#	Creating user name:	WinNT
#	Creation time:	15. 06. 2019 19:07

#	Modifying user name:	WinNT
#	Modification time:	15. 06. 2019 19:07

#	Program:	/corina/corina34_cracker 3.40 0067  02.08.2006

@<TRIPOS>MOLECULE
ASD01190022
  71   74    0    0    0
SMALL
NO_CHARGES


@<TRIPOS>ATOM
   1 C1            -0.0187     1.5271     0.0104 C.3     
   2 C2            -3.7238    -0.0306     5.2084 C.ar    
   3 C3            -2.9150     0.1663     6.3183 C.ar    
   4 C4            -1.5508     0.3296     6.1554 C.ar    
   5 C5            -0.9788     0.3033     4.8891 C.ar    
   6 C6            -1.7942     0.1126     3.7880 C.ar    
   7 C7            -3.1578    -0.0574     3.9495 C.ar    
   8 C8             0.5149     0.4867     4.8027 C.3     
   9 C9             0.9712     0.7371     3.3596 C.3     
  10 C10            0.2579    -0.3029     2.5001 C.3     
  11 C11           -1.2102     0.1186     2.4017 C.3     
  12 C12            0.8395    -0.5853     1.1599 C.3     
  13 C13            0.0021    -0.0041     0.0020 C.3     
  14 C14           -1.3971    -0.5597    -0.0146 C.3     
  15 C15           -1.9424    -0.7637     1.4101 C.3     
  16 C16            2.2370    -0.0311     0.8477 C.3     
  17 C17            2.3218    -0.1376    -0.7012 C.3     
  18 C18            0.8799    -0.4154    -1.2012 C.3     
  19 O19           -3.4627     0.1990     7.5619 O.3     
  20 C20            1.1421    -3.8635    -4.5949 C.3     
  21 C21            0.9807    -5.3146    -4.9681 C.2     
  22 N22            1.2338    -5.7184    -6.2288 N.am    
  23 O23            0.6230    -6.1191    -4.1340 O.2     
  24 C24            1.0769    -7.1290    -6.5917 C.3     
  25 C25            1.4243    -7.3172    -8.0698 C.3     
  26 C26            1.2604    -8.7904    -8.4487 C.3     
  27 C27            1.6078    -8.9785    -9.9268 C.3     
  28 C28            1.4439   -10.4518   -10.3057 C.3     
  29 C29            0.7947    -3.6754    -3.1168 C.3     
  30 C30            0.9562    -2.2243    -2.7436 C.2     
  31 O31            1.3125    -1.4228    -3.5746 O.2     
  32 O32            0.7041    -1.8222    -1.4880 O.3     
  33 H33            0.9775     1.9053    -0.2191 H       
  34 H34           -0.7248     1.8850    -0.7389 H       
  35 H35           -0.3236     1.8809     0.9953 H       
  36 H36           -4.7892    -0.1587     5.3256 H       
  37 H37           -0.9235     0.4779     7.0213 H       
  38 H38           -3.7921    -0.2092     3.0888 H       
  39 H39            0.8067     1.3355     5.4177 H       
  40 H40            1.0040    -0.4134     5.1728 H       
  41 H41            0.6877     1.7397     3.0539 H       
  42 H42            2.0484     0.6057     3.2916 H       
  43 H43            0.2761    -1.2522     3.0780 H       
  44 H44           -1.2677     1.1538     2.0730 H       
  45 H45            0.8911    -1.6890     1.0309 H       
  46 H46           -2.0593     0.1247    -0.5622 H       
  47 H47           -1.4107    -1.5219    -0.5441 H       
  48 H48           -1.8265    -1.8138     1.6982 H       
  49 H49           -3.0109    -0.5239     1.4221 H       
  50 H50            2.3439     0.9977     1.1779 H       
  51 H51            3.0034    -0.6574     1.3110 H       
  52 H52            2.6906     0.7976    -1.1213 H       
  53 H53            2.9787    -0.9593    -0.9835 H       
  54 H54            0.6400     0.2009    -2.0585 H       
  55 H55           -3.5083    -0.6647     7.9944 H       
  56 H56            2.1737    -3.5565    -4.7676 H       
  57 H57            0.4749    -3.2550    -5.2053 H       
  58 H58            1.5199    -5.0749    -6.8960 H       
  59 H59            1.7441    -7.7376    -5.9813 H       
  60 H60            0.0454    -7.4360    -6.4189 H       
  61 H61            0.7571    -6.7086    -8.6801 H       
  62 H62            2.4558    -7.0102    -8.2425 H       
  63 H63            1.9276    -9.3990    -7.8383 H       
  64 H64            0.2289    -9.0974    -8.2760 H       
  65 H65            0.9406    -8.3700   -10.5372 H       
  66 H66            2.6393    -8.6716   -10.0995 H       
  67 H67            2.1111   -11.0603    -9.6953 H       
  68 H68            0.4124   -10.7588   -10.1330 H       
  69 H69            1.6914   -10.5858   -11.3587 H       
  70 H70           -0.2368    -3.9824    -2.9441 H       
  71 H71            1.4620    -4.2839    -2.5064 H       
@<TRIPOS>BOND
   1    1   13 1
   2    1   33 1
   3    1   34 1
   4    1   35 1
   5    2    3 ar
   6    2    7 ar
   7    2   36 1
   8    3    4 ar
   9    3   19 1
  10    4    5 ar
  11    4   37 1
  12    5    6 ar
  13    5    8 1
  14    6    7 ar
  15    6   11 1
  16    7   38 1
  17    8    9 1
  18    8   39 1
  19    8   40 1
  20    9   10 1
  21    9   41 1
  22    9   42 1
  23   10   11 1
  24   10   12 1
  25   10   43 1
  26   11   15 1
  27   11   44 1
  28   12   13 1
  29   12   16 1
  30   12   45 1
  31   13   14 1
  32   13   18 1
  33   14   15 1
  34   14   46 1
  35   14   47 1
  36   15   48 1
  37   15   49 1
  38   16   17 1
  39   16   50 1
  40   16   51 1
  41   17   18 1
  42   17   52 1
  43   17   53 1
  44   18   32 1
  45   18   54 1
  46   19   55 1
  47   20   21 1
  48   20   29 1
  49   20   56 1
  50   20   57 1
  51   21   22 am
  52   21   23 2
  53   22   24 1
  54   22   58 1
  55   24   25 1
  56   24   59 1
  57   24   60 1
  58   25   26 1
  59   25   61 1
  60   25   62 1
  61   26   27 1
  62   26   63 1
  63   26   64 1
  64   27   28 1
  65   27   65 1
  66   27   66 1
  67   28   67 1
  68   28   68 1
  69   28   69 1
  70   29   30 1
  71   29   70 1
  72   29   71 1
  73   30   31 2
  74   30   32 1

#	End of record

