#	Name: ASD01915330
#	Creating user name:	WinNT
#	Creation time:	15. 06. 2019 20:05

#	Modifying user name:	WinNT
#	Modification time:	15. 06. 2019 20:05

#	Program:	/corina/corina34_cracker 3.40 0067  02.08.2006

@<TRIPOS>MOLECULE
ASD01915330
  35   37    0    0    0
SMALL
NO_CHARGES


@<TRIPOS>ATOM
   1 C1            -0.0046     1.3249    -0.0197 C.2     
   2 N2             0.0094    -0.0259    -0.0290 N.pl3   
   3 C3            -1.3057    -0.4567    -0.0125 C.2     
   4 C4            -2.0825     0.6209     0.0062 C.2     
   5 O5            -1.2940     1.7193     0.0062 O.3     
   6 N6             1.2473     1.7376    -0.0351 N.2     
   7 C7             2.0665     0.6884    -0.0540 C.2     
   8 N8             1.3555    -0.4112    -0.0510 N.2     
   9 C9            -3.5893     0.6192     0.0284 C.3     
  10 C10           -1.7723    -1.8896    -0.0156 C.3     
  11 C11           -4.0806     1.2195     1.3472 C.3     
  12 O12           -4.0906     1.4114    -1.0804 O.3     
  13 C13           -5.2813     1.0542    -1.5978 C.2     
  14 N14           -5.8036     1.7478    -2.6286 N.am    
  15 O15           -5.8850     0.1064    -1.1353 O.2     
  16 C16           -6.9847     1.3103    -3.2399 C.ar    
  17 C17           -7.8986     2.2344    -3.7276 C.ar    
  18 C18           -9.0641     1.7996    -4.3307 C.ar    
  19 C19           -9.3195     0.4437    -4.4482 C.ar    
  20 C20           -8.4096    -0.4786    -3.9621 C.ar    
  21 C21           -7.2411    -0.0489    -3.3644 C.ar    
  22 Cl22         -10.7838    -0.0999    -5.2059 Cl      
  23 Cl23         -10.2082     2.9541    -4.9405 Cl      
  24 H24            3.1453     0.7365    -0.0693 H       
  25 H25           -3.9529    -0.4043    -0.0626 H       
  26 H26           -0.9078    -2.5532    -0.0327 H       
  27 H27           -2.3605    -2.0821     0.8816 H       
  28 H28           -2.3862    -2.0698    -0.8981 H       
  29 H29           -3.7043     0.6249     2.1796 H       
  30 H30           -3.7170     2.2430     1.4383 H       
  31 H31           -5.1705     1.2183     1.3633 H       
  32 H32           -5.3612     2.5502    -2.9469 H       
  33 H33           -7.6995     3.2919    -3.6356 H       
  34 H34           -8.6113    -1.5355    -4.0546 H       
  35 H35           -6.5315    -0.7695    -2.9853 H       
@<TRIPOS>BOND
   1    1    2 1
   2    1    6 2
   3    1    5 1
   4    2    3 1
   5    2    8 1
   6    3    4 2
   7    3   10 1
   8    4    5 1
   9    4    9 1
  10    6    7 1
  11    7    8 2
  12    7   24 1
  13    9   11 1
  14    9   12 1
  15    9   25 1
  16   10   26 1
  17   10   27 1
  18   10   28 1
  19   11   29 1
  20   11   30 1
  21   11   31 1
  22   12   13 1
  23   13   14 am
  24   13   15 2
  25   14   16 1
  26   14   32 1
  27   16   17 ar
  28   16   21 ar
  29   17   18 ar
  30   17   33 1
  31   18   19 ar
  32   18   23 1
  33   19   20 ar
  34   19   22 1
  35   20   21 ar
  36   20   34 1
  37   21   35 1

#	End of record

