#	Name: ASD03240210
#	Creating user name:	WinNT
#	Creation time:	15. 06. 2019 20:34

#	Modifying user name:	WinNT
#	Modification time:	15. 06. 2019 20:34

#	Program:	/corina/corina34_cracker 3.40 0067  02.08.2006

@<TRIPOS>MOLECULE
ASD03240210
  81   86    0    0    0
SMALL
NO_CHARGES


@<TRIPOS>ATOM
   1 C1             0.0759     1.5182     0.6028 C.2     
   2 N2             0.1814     0.2806     1.1924 N.pl3   
   3 C3            -2.6689     4.0238     0.1450 C.3     
   4 C4            -1.2380     3.5050    -0.0110 C.3     
   5 N5            -1.1256     2.1863     0.6173 N.pl3   
   6 N6             1.1163     2.0603     0.0349 N.2     
   7 N7            -2.7813     5.3425    -0.4833 N.pl3   
   8 C8            -3.9966     6.0183    -0.4687 C.ar    
   9 C9            -4.1018     7.2714    -1.0661 C.ar    
  10 C10           -5.3029     7.9427    -1.0534 C.ar    
  11 C11           -6.4185     7.3648    -0.4400 C.ar    
  12 C12           -6.3097     6.1061     0.1587 C.ar    
  13 C13           -5.1069     5.4378     0.1383 C.ar    
  14 C14           -7.7073     8.0818    -0.4241 C.2     
  15 N15           -8.7819     7.5234     0.1676 N.am    
  16 O16           -7.8005     9.1768    -0.9449 O.2     
  17 C17           -9.9746     8.2491     0.2818 C.ar    
  18 C18          -11.1964     7.5961     0.1862 C.ar    
  19 C19           -9.9351     9.6205     0.4963 C.ar    
  20 C20          -11.1105    10.3358     0.6093 C.ar    
  21 C21          -12.3326     9.6837     0.5080 C.ar    
  22 C22          -12.3720     8.3112     0.2987 C.ar    
  23 N23          -13.5238    10.4082     0.6229 N.pl3   
  24 C24          -14.8129     9.7203     0.5161 C.3     
  25 C25          -13.4822    11.8549     0.8501 C.3     
  26 C26          -13.4692    12.5714    -0.4756 C.ar    
  27 C27          -15.2536     9.2640     1.8830 C.ar    
  28 C28          -14.6474    12.9232    -1.0589 C.ar    
  29 C29          -14.6390    13.5919    -2.2950 C.ar    
  30 C30          -13.4001    13.8898    -2.9152 C.ar    
  31 C31          -12.2039    13.5102    -2.2826 C.ar    
  32 C32          -12.2506    12.8690    -1.0831 C.ar    
  33 C33          -16.0124    10.0905     2.6532 C.ar    
  34 C34          -16.4255     9.6680     3.9284 C.ar    
  35 C35          -16.0439     8.3844     4.3923 C.ar    
  36 C36          -15.2594     7.5591     3.5685 C.ar    
  37 C37          -14.8827     7.9996     2.3372 C.ar    
  38 C38          -17.2092    10.4935     4.7526 C.ar    
  39 C39          -17.5903    10.0508     5.9818 C.ar    
  40 C40          -17.2147     8.7886     6.4382 C.ar    
  41 C41          -16.4570     7.9617     5.6673 C.ar    
  42 C42          -15.8351    13.9706    -2.9282 C.ar    
  43 C43          -15.7880    14.6166    -4.1252 C.ar    
  44 C44          -14.5696    14.9091    -4.7353 C.ar    
  45 C45          -13.3915    14.5585    -4.1513 C.ar    
  46 H46            1.0301    -0.1890     1.1857 H       
  47 H47           -0.5929    -0.1228     1.6150 H       
  48 H48           -3.3606     3.3322    -0.3359 H       
  49 H49           -2.9129     4.1041     1.2043 H       
  50 H50           -0.9940     3.4248    -1.0703 H       
  51 H51           -0.5463     4.1967     0.4699 H       
  52 H52           -1.8989     1.7846     1.0434 H       
  53 H53            1.0418     2.9335    -0.3810 H       
  54 H54           -2.0081     5.7443    -0.9094 H       
  55 H55           -3.2396     7.7172    -1.5398 H       
  56 H56           -5.3837     8.9150    -1.5164 H       
  57 H57           -7.1695     5.6572     0.6336 H       
  58 H58           -5.0222     4.4655     0.6006 H       
  59 H59           -8.7293     6.6190     0.5144 H       
  60 H60          -11.2271     6.5289     0.0234 H       
  61 H61           -8.9848    10.1276     0.5751 H       
  62 H62          -11.0798    11.4022     0.7768 H       
  63 H63          -13.3223     7.8040     0.2199 H       
  64 H64          -15.5559    10.4030     0.1039 H       
  65 H65          -14.7101     8.8559    -0.1399 H       
  66 H66          -14.3610    12.1588     1.4188 H       
  67 H67          -12.5818    12.1091     1.4094 H       
  68 H68          -15.5840    12.6894    -0.5746 H       
  69 H69          -11.2524    13.7306    -2.7436 H       
  70 H70          -11.3300    12.5787    -0.5988 H       
  71 H71          -16.2953    11.0662     2.2866 H       
  72 H72          -14.9611     6.5785     3.9089 H       
  73 H73          -14.2801     7.3633     1.7060 H       
  74 H74          -17.5071    11.4743     4.4125 H       
  75 H75          -18.1925    10.6872     6.6132 H       
  76 H76          -17.5299     8.4617     7.4181 H       
  77 H77          -16.1737     6.9861     6.0340 H       
  78 H78          -16.7866    13.7499    -2.4676 H       
  79 H79          -16.7087    14.9065    -4.6097 H       
  80 H80          -14.5602    15.4221    -5.6857 H       
  81 H81          -12.4548    14.7920    -4.6356 H       
@<TRIPOS>BOND
   1    1    2 1
   2    1    6 2
   3    1    5 1
   4    2   46 1
   5    2   47 1
   6    3    4 1
   7    3    7 1
   8    3   48 1
   9    3   49 1
  10    4    5 1
  11    4   50 1
  12    4   51 1
  13    5   52 1
  14    6   53 1
  15    7    8 1
  16    7   54 1
  17    8    9 ar
  18    8   13 ar
  19    9   10 ar
  20    9   55 1
  21   10   11 ar
  22   10   56 1
  23   11   12 ar
  24   11   14 1
  25   12   13 ar
  26   12   57 1
  27   13   58 1
  28   14   15 am
  29   14   16 2
  30   15   17 1
  31   15   59 1
  32   17   18 ar
  33   17   19 ar
  34   18   22 ar
  35   18   60 1
  36   19   20 ar
  37   19   61 1
  38   20   21 ar
  39   20   62 1
  40   21   22 ar
  41   21   23 1
  42   22   63 1
  43   23   24 1
  44   23   25 1
  45   24   27 1
  46   24   64 1
  47   24   65 1
  48   25   26 1
  49   25   66 1
  50   25   67 1
  51   26   28 ar
  52   26   32 ar
  53   27   33 ar
  54   27   37 ar
  55   28   29 ar
  56   28   68 1
  57   29   30 ar
  58   29   42 ar
  59   30   31 ar
  60   30   45 ar
  61   31   32 ar
  62   31   69 1
  63   32   70 1
  64   33   34 ar
  65   33   71 1
  66   34   35 ar
  67   34   38 ar
  68   35   36 ar
  69   35   41 ar
  70   36   37 ar
  71   36   72 1
  72   37   73 1
  73   38   39 ar
  74   38   74 1
  75   39   40 ar
  76   39   75 1
  77   40   41 ar
  78   40   76 1
  79   41   77 1
  80   42   43 ar
  81   42   78 1
  82   43   44 ar
  83   43   79 1
  84   44   45 ar
  85   44   80 1
  86   45   81 1

#	End of record

