#	Name: ASD03082059
#	Creating user name:	WinNT
#	Creation time:	15. 06. 2019 20:27

#	Modifying user name:	WinNT
#	Modification time:	15. 06. 2019 20:27

#	Program:	/corina/corina34_cracker 3.40 0067  02.08.2006

@<TRIPOS>MOLECULE
ASD03082059
  62   65    0    0    0
SMALL
NO_CHARGES


@<TRIPOS>ATOM
   1 C1            -0.0187     1.5261     0.0104 C.3     
   2 C2             0.0021    -0.0041     0.0020 C.3     
   3 N3             0.7064    -0.4787    -1.1959 N.3     
   4 C4             2.1034    -0.0262    -1.2048 C.3     
   5 C5             2.1454     1.5033    -1.2324 C.3     
   6 C6             1.4196     2.0513    -0.0005 C.3     
   7 C7             0.6260    -1.9412    -1.3090 C.3     
   8 C8            -0.8267    -2.3547    -1.5531 C.3     
   9 C9             3.5790     1.9676    -1.2196 C.2     
  10 O10            3.8596     3.2801    -1.2397 O.3     
  11 C11            5.2624     3.6545    -1.2258 C.3     
  12 C12            5.3817     5.1566    -1.2517 C.ar    
  13 C13            4.2460     5.9398    -1.2830 C.ar    
  14 C14            4.3540     7.3188    -1.3064 C.ar    
  15 C15            5.5994     7.9202    -1.2990 C.ar    
  16 C16            6.7421     7.1464    -1.2682 C.ar    
  17 C17            6.6391     5.7573    -1.2383 C.ar    
  18 C18           -0.9104    -3.8779    -1.6709 C.3     
  19 C19           -2.3412    -4.2852    -1.9113 C.ar    
  20 C20           -2.8223    -4.3903    -3.2030 C.ar    
  21 C21           -4.1348    -4.7639    -3.4235 C.ar    
  22 C22           -4.9661    -5.0329    -2.3523 C.ar    
  23 C23           -4.4848    -4.9287    -1.0607 C.ar    
  24 C24           -3.1711    -4.5593    -0.8403 C.ar    
  25 O25            4.4758     1.1584    -1.1914 O.2     
  26 C26            7.8639     4.9203    -1.2046 C.ar    
  27 C27            8.8896     5.1447    -2.1207 C.ar    
  28 C28           10.0266     4.3632    -2.0849 C.ar    
  29 C29           10.1491     3.3587    -1.1418 C.ar    
  30 C30            9.1338     3.1313    -0.2303 C.ar    
  31 C31            7.9951     3.9109    -0.2531 C.ar    
  32 H32           -0.5449     1.8878    -0.8730 H       
  33 H33           -0.5279     1.8782     0.9076 H       
  34 H34            0.5163    -0.3652     0.8927 H       
  35 H35           -1.0206    -0.3811    -0.0047 H       
  36 H36            2.6078    -0.3873    -0.3085 H       
  37 H37            2.6069    -0.4194    -2.0879 H       
  38 H38            1.6532     1.8646    -2.1353 H       
  39 H39            1.4094     3.1406    -0.0383 H       
  40 H40            1.9345     1.7220     0.9021 H       
  41 H41            1.2439    -2.2756    -2.1424 H       
  42 H42            0.9834    -2.3972    -0.3858 H       
  43 H43           -1.4446    -2.0203    -0.7198 H       
  44 H44           -1.1841    -1.8987    -2.4764 H       
  45 H45            5.7326     3.2683    -0.3214 H       
  46 H46            5.7591     3.2354    -2.1009 H       
  47 H47            3.2709     5.4753    -1.2897 H       
  48 H48            3.4625     7.9279    -1.3309 H       
  49 H49            5.6780     8.9971    -1.3177 H       
  50 H50            7.7142     7.6170    -1.2631 H       
  51 H51           -0.2925    -4.2123    -2.5043 H       
  52 H52           -0.5530    -4.3339    -0.7477 H       
  53 H53           -2.1728    -4.1801    -4.0399 H       
  54 H54           -4.5108    -4.8453    -4.4326 H       
  55 H55           -5.9918    -5.3241    -2.5246 H       
  56 H56           -5.1344    -5.1385    -0.2238 H       
  57 H57           -2.7951    -4.4779     0.1689 H       
  58 H58            8.7948     5.9285    -2.8577 H       
  59 H59           10.8220     4.5360    -2.7947 H       
  60 H60           11.0405     2.7495    -1.1173 H       
  61 H61            9.2343     2.3453     0.5034 H       
  62 H62            7.2030     3.7325     0.4590 H       
@<TRIPOS>BOND
   1    1    2 1
   2    1    6 1
   3    1   32 1
   4    1   33 1
   5    2    3 1
   6    2   34 1
   7    2   35 1
   8    3    4 1
   9    3    7 1
  10    4    5 1
  11    4   36 1
  12    4   37 1
  13    5    6 1
  14    5    9 1
  15    5   38 1
  16    6   39 1
  17    6   40 1
  18    7    8 1
  19    7   41 1
  20    7   42 1
  21    8   18 1
  22    8   43 1
  23    8   44 1
  24    9   10 1
  25    9   25 2
  26   10   11 1
  27   11   12 1
  28   11   45 1
  29   11   46 1
  30   12   13 ar
  31   12   17 ar
  32   13   14 ar
  33   13   47 1
  34   14   15 ar
  35   14   48 1
  36   15   16 ar
  37   15   49 1
  38   16   17 ar
  39   16   50 1
  40   17   26 1
  41   18   19 1
  42   18   51 1
  43   18   52 1
  44   19   20 ar
  45   19   24 ar
  46   20   21 ar
  47   20   53 1
  48   21   22 ar
  49   21   54 1
  50   22   23 ar
  51   22   55 1
  52   23   24 ar
  53   23   56 1
  54   24   57 1
  55   26   27 ar
  56   26   31 ar
  57   27   28 ar
  58   27   58 1
  59   28   29 ar
  60   28   59 1
  61   29   30 ar
  62   29   60 1
  63   30   31 ar
  64   30   61 1
  65   31   62 1

#	End of record

