#	Name: ASD02500837
#	Creating user name:	WinNT
#	Creation time:	15. 06. 2019 20:23

#	Modifying user name:	WinNT
#	Modification time:	15. 06. 2019 20:23

#	Program:	/corina/corina34_cracker 3.40 0067  02.08.2006

@<TRIPOS>MOLECULE
ASD02500837
  29   30    0    0    0
SMALL
NO_CHARGES


@<TRIPOS>ATOM
   1 C1            -0.0169     1.3933     0.0097 C.ar    
   2 C2             0.0021    -0.0041     0.0020 C.ar    
   3 C3            -1.1857    -0.7100     0.0100 C.ar    
   4 C4            -2.3933    -0.0386     0.0252 C.ar    
   5 C5            -2.4221     1.3509     0.0325 C.ar    
   6 C6            -1.2382     2.0692     0.0308 C.ar    
   7 N7            -3.6515     2.0262     0.0474 N.pl3   
   8 C8            -4.5656     1.9935     1.0613 C.2     
   9 C9            -5.6139     2.7650     0.7084 C.2     
  10 C10           -5.3389     3.2937    -0.5687 C.2     
  11 C11           -4.1303     2.8303    -0.9471 C.2     
  12 C12           -4.4269     1.2276     2.3518 C.3     
  13 C13           -3.4330     3.1387    -2.2469 C.3     
  14 C14            1.2500     2.1518     0.0017 C.2     
  15 O15            2.3114     1.5612    -0.0116 O.2     
  16 O16            1.2286     3.4988     0.0091 O.3     
  17 Cl17           1.5166    -0.8523    -0.0182 Cl      
  18 H18           -1.1702    -1.7898     0.0041 H       
  19 H19           -3.3184    -0.5959     0.0311 H       
  20 H20           -1.2597     3.1490     0.0368 H       
  21 H21           -6.5017     2.9445     1.2966 H       
  22 H22           -5.9773     3.9528    -1.1383 H       
  23 H23           -3.9408     1.8569     3.0973 H       
  24 H24           -5.4146     0.9371     2.7098 H       
  25 H25           -3.8251     0.3349     2.1816 H       
  26 H26           -2.8163     4.0293    -2.1260 H       
  27 H27           -2.8024     2.2958    -2.5298 H       
  28 H28           -4.1758     3.3140    -3.0251 H       
  29 H29            2.0831     3.9515     0.0034 H       
@<TRIPOS>BOND
   1    1    2 ar
   2    1   14 1
   3    1    6 ar
   4    2    3 ar
   5    2   17 1
   6    3    4 ar
   7    3   18 1
   8    4    5 ar
   9    4   19 1
  10    5    6 ar
  11    5    7 1
  12    6   20 1
  13    7    8 1
  14    7   11 1
  15    8    9 2
  16    8   12 1
  17    9   10 1
  18    9   21 1
  19   10   11 2
  20   10   22 1
  21   11   13 1
  22   12   23 1
  23   12   24 1
  24   12   25 1
  25   13   26 1
  26   13   27 1
  27   13   28 1
  28   14   15 2
  29   14   16 1
  30   16   29 1

#	End of record

