#	Name: ASD02408411
#	Creating user name:	WinNT
#	Creation time:	15. 06. 2019 20:21

#	Modifying user name:	WinNT
#	Modification time:	15. 06. 2019 20:21

#	Program:	/corina/corina34_cracker 3.40 0067  02.08.2006

@<TRIPOS>MOLECULE
ASD02408411
  42   45    0    0    0
SMALL
NO_CHARGES


@<TRIPOS>ATOM
   1 N1             0.0663     1.4204     0.2461 N.am    
   2 C2             0.0633     0.0633     0.2409 C.2     
   3 N3             1.1497    -0.6483     0.1660 N.2     
   4 C4             2.3637    -0.0820     0.0878 C.2     
   5 C5             2.4673     1.3185     0.0865 C.2     
   6 C6             1.2342     2.1006     0.1714 C.2     
   7 N7             3.6329    -0.5650     0.0017 N.pl3   
   8 N8             4.5139     0.5224    -0.0523 N.2     
   9 C9             3.8354     1.6363    -0.0029 C.2     
  10 C10           -1.2601    -0.6527     0.3262 C.3     
  11 C11           -1.0245    -2.1643     0.3045 C.3     
  12 C12            3.9963    -1.9188    -0.0273 C.ar    
  13 C13            3.4549    -2.8040     0.8923 C.ar    
  14 C14            3.8150    -4.1384     0.8622 C.ar    
  15 C15            4.7144    -4.5950    -0.0835 C.ar    
  16 C16            5.2590    -3.7199    -1.0047 C.ar    
  17 C17            4.8994    -2.3804    -0.9853 C.ar    
  18 O18            1.2574     3.3187     0.1743 O.2     
  19 C19           -2.3547    -2.9081     0.5165 C.3     
  20 C20           -2.5855    -3.7664    -0.7444 C.3     
  21 C21           -1.1664    -3.9682    -1.3315 C.3     
  22 C22           -0.4933    -2.5964    -1.0779 C.3     
  23 N23            5.4484    -1.4935    -1.9162 N.pl3   
  24 H24           -0.7723     1.9050     0.2996 H       
  25 H25            4.2526     2.6321    -0.0271 H       
  26 H26           -1.7634    -0.3767     1.2529 H       
  27 H27           -1.8818    -0.3696    -0.5231 H       
  28 H28           -0.3132    -2.4422     1.0822 H       
  29 H29            2.7521    -2.4510     1.6325 H       
  30 H30            3.3928    -4.8263     1.5798 H       
  31 H31            4.9925    -5.6384    -0.1024 H       
  32 H32            5.9612    -4.0800    -1.7420 H       
  33 H33           -2.2887    -3.5478     1.3966 H       
  34 H34           -3.1681    -2.1922     0.6349 H       
  35 H35           -3.0277    -4.7261    -0.4770 H       
  36 H36           -3.2206    -3.2374    -1.4550 H       
  37 H37           -0.6385    -4.7613    -0.8020 H       
  38 H38           -1.2169    -4.1822    -2.3991 H       
  39 H39           -0.7906    -1.8785    -1.8423 H       
  40 H40            0.5912    -2.7023    -1.0537 H       
  41 H41            6.1495    -1.7926    -2.5161 H       
  42 H42            5.1283    -0.5790    -1.9621 H       
@<TRIPOS>BOND
   1    1    2 1
   2    1    6 am
   3    1   24 1
   4    2    3 2
   5    2   10 1
   6    3    4 1
   7    4    5 2
   8    4    7 1
   9    5    6 1
  10    5    9 1
  11    6   18 2
  12    7    8 1
  13    7   12 1
  14    8    9 2
  15    9   25 1
  16   10   11 1
  17   10   26 1
  18   10   27 1
  19   11   19 1
  20   11   22 1
  21   11   28 1
  22   12   13 ar
  23   12   17 ar
  24   13   14 ar
  25   13   29 1
  26   14   15 ar
  27   14   30 1
  28   15   16 ar
  29   15   31 1
  30   16   17 ar
  31   16   32 1
  32   17   23 1
  33   19   20 1
  34   19   33 1
  35   19   34 1
  36   20   21 1
  37   20   35 1
  38   20   36 1
  39   21   22 1
  40   21   37 1
  41   21   38 1
  42   22   39 1
  43   22   40 1
  44   23   41 1
  45   23   42 1

#	End of record

