#	Name: ASD03430398
#	Creating user name:	WinNT
#	Creation time:	15. 06. 2019 20:41

#	Modifying user name:	WinNT
#	Modification time:	15. 06. 2019 20:41

#	Program:	/corina/corina34_cracker 3.40 0067  02.08.2006

@<TRIPOS>MOLECULE
ASD03430398
  51   55    0    0    0
SMALL
NO_CHARGES


@<TRIPOS>ATOM
   1 N1            -0.0161     1.3395     0.0094 N.am    
   2 C2             0.0021    -0.0041     0.0020 C.2     
   3 C3             1.4548    -0.4298    -0.0141 C.3     
   4 C4             2.2197     0.8737    -0.0144 C.ar    
   5 C5             3.5641     1.1705    -0.0263 C.ar    
   6 C6             3.9795     2.4906    -0.0239 C.ar    
   7 C7             3.0415     3.5068    -0.0095 C.ar    
   8 C8             1.6940     3.2122     0.0024 C.ar    
   9 C9             1.2680     1.8853     0.0001 C.ar    
  10 O10           -0.9637    -0.7377     0.0076 O.2     
  11 C11           -1.2434     2.1395     0.0197 C.3     
  12 C12           -1.6570     2.4066     1.4440 C.ar    
  13 C13           -1.1921     3.5326     2.0981 C.ar    
  14 C14           -1.5698     3.7797     3.4037 C.ar    
  15 C15           -2.4162     2.8969     4.0586 C.ar    
  16 C16           -2.8812     1.7678     3.4002 C.ar    
  17 C17           -2.5052     1.5282     2.0927 C.ar    
  18 O18           -2.7888     3.1375     5.3432 O.3     
  19 C19           -3.6622     2.1859     5.9545 C.3     
  20 O20            2.7519    -3.6279     4.4046 O.3     
  21 N21            3.1757    -4.7918     3.7236 N.2     
  22 C22            3.0797    -4.6094     2.4422 C.2     
  23 C23            2.5649    -3.2545     2.2290 C.ar    
  24 C24            2.2594    -2.5068     1.0883 C.ar    
  25 C25            1.7830    -1.2343     1.2172 C.ar    
  26 C26            1.5983    -0.6739     2.4793 C.ar    
  27 C27            1.8958    -1.3990     3.6194 C.ar    
  28 C28            2.3812    -2.6946     3.5048 C.ar    
  29 C29            3.4329    -5.6081     1.3703 C.3     
  30 O30            1.1233     0.5937     2.5912 O.3     
  31 O31            1.7436    -1.1801    -1.1956 O.3     
  32 H32            4.2935     0.3741    -0.0372 H       
  33 H33            5.0333     2.7266    -0.0329 H       
  34 H34            3.3659     4.5370    -0.0072 H       
  35 H35            0.9677     4.0114     0.0136 H       
  36 H36           -1.0644     3.0860    -0.4902 H       
  37 H37           -2.0364     1.5949    -0.4929 H       
  38 H38           -0.5330     4.2193     1.5879 H       
  39 H39           -1.2061     4.6591     3.9143 H       
  40 H40           -3.5402     1.0790     3.9079 H       
  41 H41           -2.8707     0.6518     1.5781 H       
  42 H42           -3.8804     2.4968     6.9761 H       
  43 H43           -4.5905     2.1273     5.3863 H       
  44 H44           -3.1817     1.2075     5.9673 H       
  45 H45            2.4006    -2.9349     0.1069 H       
  46 H46            1.7511    -0.9587     4.5949 H       
  47 H47            2.5564    -6.2107     1.1321 H       
  48 H48            3.7644    -5.0798     0.4765 H       
  49 H49            4.2334    -6.2562     1.7272 H       
  50 H50            0.1592     0.6495     2.6409 H       
  51 H51            1.2345    -1.9982    -1.2762 H       
@<TRIPOS>BOND
   1    1    2 am
   2    1    9 1
   3    1   11 1
   4    2    3 1
   5    2   10 2
   6    3    4 1
   7    3   25 1
   8    3   31 1
   9    4    5 ar
  10    4    9 ar
  11    5    6 ar
  12    5   32 1
  13    6    7 ar
  14    6   33 1
  15    7    8 ar
  16    7   34 1
  17    8    9 ar
  18    8   35 1
  19   11   12 1
  20   11   36 1
  21   11   37 1
  22   12   13 ar
  23   12   17 ar
  24   13   14 ar
  25   13   38 1
  26   14   15 ar
  27   14   39 1
  28   15   16 ar
  29   15   18 1
  30   16   17 ar
  31   16   40 1
  32   17   41 1
  33   18   19 1
  34   19   42 1
  35   19   43 1
  36   19   44 1
  37   20   21 1
  38   20   28 1
  39   21   22 2
  40   22   23 1
  41   22   29 1
  42   23   24 ar
  43   23   28 ar
  44   24   25 ar
  45   24   45 1
  46   25   26 ar
  47   26   27 ar
  48   26   30 1
  49   27   28 ar
  50   27   46 1
  51   29   47 1
  52   29   48 1
  53   29   49 1
  54   30   50 1
  55   31   51 1

#	End of record

