#	Name: ASD09740096
#	Creating user name:	WinNT
#	Creation time:	15. 06. 2019 21:22

#	Modifying user name:	WinNT
#	Modification time:	15. 06. 2019 21:22

#	Program:	/corina/corina34_cracker 3.40 0067  02.08.2006

@<TRIPOS>MOLECULE
ASD09740096
  46   48    0    0    0
SMALL
NO_CHARGES


@<TRIPOS>ATOM
   1 O1            -0.0144     1.2085     0.0087 O.3     
   2 N2             0.0021    -0.0041     0.0020 N.2     
   3 C3             1.2413     1.6828    -0.0008 C.2     
   4 N4             2.0459     0.6358    -0.0141 N.2     
   5 C5             1.2348    -0.4424    -0.0121 C.2     
   6 C6             1.6622    -1.8641    -0.0231 C.ar    
   7 C7             1.6456     3.1033     0.0023 C.ar    
   8 C8             0.7145    -2.8875    -0.0196 C.ar    
   9 C9             3.0161    -2.1948    -0.0428 C.ar    
  10 N10            3.4059    -3.4540    -0.0530 N.ar    
  11 C11            2.5458    -4.4512    -0.0449 C.ar    
  12 C12            1.1702    -4.2096    -0.0303 C.ar    
  13 C13            2.9994     3.4456    -0.0092 C.ar    
  14 C14            3.3752     4.7719    -0.0064 C.ar    
  15 C15            2.4106     5.7695     0.0074 C.ar    
  16 C16            1.0579     5.4349     0.0189 C.ar    
  17 C17            0.6746     4.1072     0.0108 C.ar    
  18 O18            2.7859     7.0753     0.0101 O.3     
  19 O19            0.1150     6.4149     0.0334 O.3     
  20 C20            0.2114    -5.3335    -0.0211 C.2     
  21 O21            0.6617    -6.6030    -0.0268 O.3     
  22 O22           -0.9830    -5.1127    -0.0085 O.2     
  23 C23           -0.3372    -7.6568    -0.0172 C.3     
  24 C24           -1.2522     5.9995     0.0446 C.3     
  25 C25           -2.1594     7.2315     0.0601 C.3     
  26 C26            4.1888     7.3472    -0.0017 C.3     
  27 C27            4.4151     8.8603     0.0034 C.3     
  28 H28           -0.3423    -2.6650    -0.0086 H       
  29 H29            3.7562    -1.4083    -0.0501 H       
  30 H30            2.9086    -5.4684    -0.0538 H       
  31 H31            3.7521     2.6711    -0.0200 H       
  32 H32            4.4226     5.0352    -0.0146 H       
  33 H33           -0.3734     3.8464     0.0197 H       
  34 H34           -0.9694    -7.5663    -0.9005 H       
  35 H35            0.1586    -8.6275    -0.0231 H       
  36 H36           -0.9508    -7.5677     0.8793 H       
  37 H37           -1.4593     5.4070    -0.8465 H       
  38 H38           -1.4418     5.3976     0.9334 H       
  39 H39           -3.2023     6.9147     0.0686 H       
  40 H40           -1.9523     7.8240     0.9512 H       
  41 H41           -1.9698     7.8334    -0.8287 H       
  42 H42            4.6515     6.9076     0.8819 H       
  43 H43            4.6348     6.9161    -0.8980 H       
  44 H44            3.9690     9.2914     0.8997 H       
  45 H45            5.4852     9.0677    -0.0056 H       
  46 H46            3.9524     9.2999    -0.8802 H       
@<TRIPOS>BOND
   1    1    2 1
   2    1    3 1
   3    2    5 2
   4    3    4 2
   5    3    7 1
   6    4    5 1
   7    5    6 1
   8    6    8 ar
   9    6    9 ar
  10    7   13 ar
  11    7   17 ar
  12    8   12 ar
  13    8   28 1
  14    9   10 ar
  15    9   29 1
  16   10   11 ar
  17   11   12 ar
  18   11   30 1
  19   12   20 1
  20   13   14 ar
  21   13   31 1
  22   14   15 ar
  23   14   32 1
  24   15   16 ar
  25   15   18 1
  26   16   17 ar
  27   16   19 1
  28   17   33 1
  29   18   26 1
  30   19   24 1
  31   20   21 1
  32   20   22 2
  33   21   23 1
  34   23   34 1
  35   23   35 1
  36   23   36 1
  37   24   25 1
  38   24   37 1
  39   24   38 1
  40   25   39 1
  41   25   40 1
  42   25   41 1
  43   26   27 1
  44   26   42 1
  45   26   43 1
  46   27   44 1
  47   27   45 1
  48   27   46 1

#	End of record

