#	Name: ASD01411137
#	Creating user name:	WinNT
#	Creation time:	15. 06. 2019 19:19

#	Modifying user name:	WinNT
#	Modification time:	15. 06. 2019 19:19

#	Program:	/corina/corina34_cracker 3.40 0067  02.08.2006

@<TRIPOS>MOLECULE
ASD01411137
  83   86    0    0    0
SMALL
NO_CHARGES


@<TRIPOS>ATOM
   1 C1            -0.4515     2.2806    -0.3983 C.ar    
   2 C2            -0.3957     0.9606    -0.8389 C.ar    
   3 C3            -1.4872     0.1263    -0.6837 C.ar    
   4 C4            -2.6464     0.6004    -0.0876 C.ar    
   5 C5            -2.7080     1.9300     0.3584 C.ar    
   6 C6            -1.5971     2.7646     0.2028 C.ar    
   7 O7             0.6273     3.0939    -0.5552 O.3     
   8 C8             0.8129     3.6801    -1.7656 C.ar    
   9 N9            -3.7471    -0.2408     0.0679 N.am    
  10 C10           -3.9443    -0.8837     1.2359 C.2     
  11 C11           -3.0434    -0.6043     2.4113 C.3     
  12 O12           -4.8468    -1.6870     1.3412 O.2     
  13 C13           -3.7745    -0.9544     3.7088 C.3     
  14 C14           -1.7757    -1.4530     2.2952 C.3     
  15 C15           -0.8610    -1.1693     3.4884 C.3     
  16 C16           -1.5921    -1.5195     4.7860 C.3     
  17 C17           -2.8599    -0.6708     4.9021 C.3     
  18 C18           -0.6775    -1.2358     5.9793 C.3     
  19 N19           -0.1028     3.5356    -2.7087 N.ar    
  20 C20           -4.6894    -0.4261    -1.0384 C.3     
  21 C21           -4.5779     0.7535    -2.0063 C.3     
  22 C22            1.9592     4.4291    -1.9966 C.ar    
  23 C23            2.1393     5.0232    -3.2332 C.ar    
  24 C24            1.1560     4.8448    -4.2043 C.ar    
  25 C25            0.0346     4.0871    -3.8992 C.ar    
  26 N26            1.2954     5.4269    -5.4696 N.3     
  27 F27            0.7303     0.4933    -1.4211 F       
  28 C28           -4.3597    -1.7248    -1.7771 C.3     
  29 O29           -5.0138     1.9478    -1.3539 O.3     
  30 O30           -4.5555    -2.8351    -0.8990 O.3     
  31 C31           -4.9494     3.1155    -2.1752 C.3     
  32 C32           -4.2735    -4.1034    -1.4939 C.3     
  33 C33            0.1457     5.1073    -6.3255 C.3     
  34 C34            0.2606     5.8755    -7.6441 C.3     
  35 C35            1.5656     5.4860    -8.3440 C.3     
  36 C36            2.7438     5.7840    -7.4126 C.3     
  37 C37            2.5569     5.0185    -6.1007 C.3     
  38 F38            0.1268     3.7331    -6.5867 F       
  39 F39           -1.0367     5.4741    -5.6738 F       
  40 C40            2.9941     4.5933    -0.9135 C.3     
  41 F41            4.0452     5.3847    -1.3891 F       
  42 F42            2.4115     5.2109     0.1984 F       
  43 F43            3.4863     3.3368    -0.5445 F       
  44 C44           -3.9347     2.4416     0.9924 C.2     
  45 O45           -4.9267     1.7420     1.0489 O.2     
  46 O46           -3.9572     3.6858     1.5101 O.3     
  47 H47           -1.4373    -0.8963    -1.0276 H       
  48 H48           -1.6378     3.7886     0.5437 H       
  49 H49           -2.7741     0.4519     2.4196 H       
  50 H50           -4.6777    -0.3498     3.7915 H       
  51 H51           -4.0439    -2.0106     3.7005 H       
  52 H52           -2.0450    -2.5091     2.2868 H       
  53 H53           -1.2548    -1.2035     1.3708 H       
  54 H54            0.0421    -1.7739     3.4057 H       
  55 H55           -0.5917    -0.1131     3.4968 H       
  56 H56           -1.8615    -2.5756     4.7777 H       
  57 H57           -2.5905     0.3854     4.9104 H       
  58 H58           -3.3807    -0.9202     5.8265 H       
  59 H59           -0.4082    -0.1796     5.9876 H       
  60 H60           -1.1984    -1.4853     6.9037 H       
  61 H61            0.2257    -1.8404     5.8966 H       
  62 H62           -5.7049    -0.4792    -0.6457 H       
  63 H63           -3.5406     0.8690    -2.3204 H       
  64 H64           -5.2034     0.5675    -2.8794 H       
  65 H65            3.0209     5.6115    -3.4407 H       
  66 H66           -0.7322     3.9434    -4.6461 H       
  67 H67           -5.0141    -1.8266    -2.6428 H       
  68 H68           -3.3212    -1.7014    -2.1073 H       
  69 H69           -5.5826     2.9784    -3.0518 H       
  70 H70           -5.2968     3.9786    -1.6075 H       
  71 H71           -3.9198     3.2799    -2.4928 H       
  72 H72           -4.4461    -4.8938    -0.7635 H       
  73 H73           -4.9261    -4.2545    -2.3538 H       
  74 H74           -3.2332    -4.1293    -1.8183 H       
  75 H75           -0.5848     5.6260    -8.2854 H       
  76 H76            0.2615     6.9466    -7.4424 H       
  77 H77            1.5484     4.4221    -8.5808 H       
  78 H78            1.6725     6.0628    -9.2626 H       
  79 H79            3.6725     5.4692    -7.8885 H       
  80 H80            2.7838     6.8537    -7.2072 H       
  81 H81            3.3869     5.2398    -5.4297 H       
  82 H82            2.5308     3.9482    -6.3052 H       
  83 H83           -4.7849     3.9775     1.9160 H       
@<TRIPOS>BOND
   1    1    2 ar
   2    1    7 1
   3    1    6 ar
   4    2    3 ar
   5    2   27 1
   6    3    4 ar
   7    3   47 1
   8    4    5 ar
   9    4    9 1
  10    5    6 ar
  11    5   44 1
  12    6   48 1
  13    7    8 1
  14    8   22 ar
  15    8   19 ar
  16    9   10 am
  17    9   20 1
  18   10   11 1
  19   10   12 2
  20   11   13 1
  21   11   14 1
  22   11   49 1
  23   13   17 1
  24   13   50 1
  25   13   51 1
  26   14   15 1
  27   14   52 1
  28   14   53 1
  29   15   16 1
  30   15   54 1
  31   15   55 1
  32   16   17 1
  33   16   18 1
  34   16   56 1
  35   17   57 1
  36   17   58 1
  37   18   59 1
  38   18   60 1
  39   18   61 1
  40   19   25 ar
  41   20   21 1
  42   20   28 1
  43   20   62 1
  44   21   29 1
  45   21   63 1
  46   21   64 1
  47   22   23 ar
  48   22   40 1
  49   23   24 ar
  50   23   65 1
  51   24   25 ar
  52   24   26 1
  53   25   66 1
  54   26   33 1
  55   26   37 1
  56   28   30 1
  57   28   67 1
  58   28   68 1
  59   29   31 1
  60   30   32 1
  61   31   69 1
  62   31   70 1
  63   31   71 1
  64   32   72 1
  65   32   73 1
  66   32   74 1
  67   33   34 1
  68   33   38 1
  69   33   39 1
  70   34   35 1
  71   34   75 1
  72   34   76 1
  73   35   36 1
  74   35   77 1
  75   35   78 1
  76   36   37 1
  77   36   79 1
  78   36   80 1
  79   37   81 1
  80   37   82 1
  81   40   41 1
  82   40   42 1
  83   40   43 1
  84   44   45 2
  85   44   46 1
  86   46   83 1

#	End of record

