#	Name: ASD02030678
#	Creating user name:	WinNT
#	Creation time:	15. 06. 2019 20:15

#	Modifying user name:	WinNT
#	Modification time:	15. 06. 2019 20:15

#	Program:	/corina/corina34_cracker 3.40 0067  02.08.2006

@<TRIPOS>MOLECULE
ASD02030678
  51   53    0    0    0
SMALL
NO_CHARGES


@<TRIPOS>ATOM
   1 N1            -0.0366     1.3654     0.0826 N.am    
   2 C2             0.1028     0.0249     0.0722 C.2     
   3 C3            -1.0884    -0.8417     0.1649 C.ar    
   4 O4             1.2099    -0.4705    -0.0136 O.2     
   5 C5            -0.9461    -2.2317     0.1543 C.ar    
   6 C6            -2.0601    -3.0367     0.2416 C.ar    
   7 C7            -3.3244    -2.4684     0.3401 C.ar    
   8 C8            -3.4704    -1.0865     0.3505 C.ar    
   9 C9            -2.3611    -0.2743     0.2695 C.ar    
  10 O10           -4.4202    -3.2656     0.4259 O.3     
  11 C11           -4.5395    -4.0241     1.5327 C.2     
  12 N12           -5.5473    -4.9131     1.6350 N.am    
  13 O13           -3.7385    -3.9067     2.4389 O.2     
  14 C14            1.0930     2.1844     0.0732 C.ar    
  15 C15            2.2781     1.7285    -0.4633 C.ar    
  16 C16            3.4103     2.5373    -0.4775 C.ar    
  17 C17            3.3802     3.7982     0.0360 C.ar    
  18 C18            2.1918     4.3011     0.5918 C.ar    
  19 C19            1.0310     3.4889     0.6077 C.ar    
  20 C20           -6.5130    -5.0546     0.5425 C.3     
  21 C21           -5.6771    -5.7380     2.8387 C.3     
  22 C22            2.1310     5.5989     1.1286 C.ar    
  23 C23            0.9633     6.0545     1.6589 C.ar    
  24 C24           -0.1765     5.2530     1.6784 C.ar    
  25 C25           -0.1555     3.9929     1.1630 C.ar    
  26 C26           -6.0250    -6.1001    -0.4270 C.2     
  27 C27           -6.7911    -7.1175    -0.7336 C.2     
  28 C28           -6.5406    -5.0239     3.8464 C.2     
  29 C29           -7.6002    -5.6168     4.3382 C.2     
  30 H30           -0.9223     1.7609     0.0926 H       
  31 H31            0.0361    -2.6741     0.0774 H       
  32 H32           -1.9510    -4.1111     0.2331 H       
  33 H33           -4.4548    -0.6487     0.4268 H       
  34 H34           -2.4753     0.7996     0.2776 H       
  35 H35            2.3285     0.7322    -0.8771 H       
  36 H36            4.3282     2.1587    -0.9025 H       
  37 H37            4.2703     4.4097     0.0197 H       
  38 H38           -7.4784    -5.3574     0.9478 H       
  39 H39           -6.6190    -4.1009     0.0254 H       
  40 H40           -6.1359    -6.6916     2.5779 H       
  41 H41           -4.6901    -5.9145     3.2663 H       
  42 H42            3.0066     6.2312     1.1206 H       
  43 H43            0.9194     7.0518     2.0709 H       
  44 H44           -1.0908     5.6383     2.1050 H       
  45 H45           -1.0465     3.3829     1.1845 H       
  46 H46           -5.0437    -6.0105    -0.8691 H       
  47 H47           -6.4414    -7.8668    -1.4284 H       
  48 H48           -7.7724    -7.2071    -0.2915 H       
  49 H49           -6.2860    -4.0232     4.1630 H       
  50 H50           -7.8548    -6.6175     4.0215 H       
  51 H51           -8.2191    -5.1051     5.0603 H       
@<TRIPOS>BOND
   1    1    2 am
   2    1   14 1
   3    1   30 1
   4    2    3 1
   5    2    4 2
   6    3    5 ar
   7    3    9 ar
   8    5    6 ar
   9    5   31 1
  10    6    7 ar
  11    6   32 1
  12    7    8 ar
  13    7   10 1
  14    8    9 ar
  15    8   33 1
  16    9   34 1
  17   10   11 1
  18   11   12 am
  19   11   13 2
  20   12   20 1
  21   12   21 1
  22   14   15 ar
  23   14   19 ar
  24   15   16 ar
  25   15   35 1
  26   16   17 ar
  27   16   36 1
  28   17   18 ar
  29   17   37 1
  30   18   19 ar
  31   18   22 ar
  32   19   25 ar
  33   20   26 1
  34   20   38 1
  35   20   39 1
  36   21   28 1
  37   21   40 1
  38   21   41 1
  39   22   23 ar
  40   22   42 1
  41   23   24 ar
  42   23   43 1
  43   24   25 ar
  44   24   44 1
  45   25   45 1
  46   26   27 2
  47   26   46 1
  48   27   47 1
  49   27   48 1
  50   28   29 2
  51   28   49 1
  52   29   50 1
  53   29   51 1

#	End of record

