#	Name: ASD01814174
#	Creating user name:	WinNT
#	Creation time:	15. 06. 2019 19:31

#	Modifying user name:	WinNT
#	Modification time:	15. 06. 2019 19:31

#	Program:	/corina/corina34_cracker 3.40 0067  02.08.2006

@<TRIPOS>MOLECULE
ASD01814174
  57   61    0    0    0
SMALL
NO_CHARGES


@<TRIPOS>ATOM
   1 N1            -0.7552     2.3803     2.8955 N.2     
   2 C2            -0.9571     1.3863     3.7280 C.2     
   3 C3            -0.0096     1.0910     4.7201 C.2     
   4 C4             1.1163     1.8415     4.8108 C.2     
   5 N5             1.3015     2.8701     3.9316 N.pl3   
   6 C6             0.3532     3.1283     2.9757 C.2     
   7 N7             2.3304     3.8039     3.7708 N.2     
   8 C8             2.0308     4.5997     2.7641 C.2     
   9 C9             0.8086     4.2152     2.2388 C.2     
  10 C10            2.5451     5.7807     1.9781 C.3     
  11 N11            1.5567     6.0911     0.9406 N.am    
  12 C12            0.4641     5.1241     1.0871 C.3     
  13 C13            1.6370     7.0778     0.0261 C.2     
  14 O14            0.7880     7.1757    -0.8390 O.2     
  15 C15            2.7541     8.0385     0.0745 C.ar    
  16 C16            2.5065     9.4136    -0.0434 C.ar    
  17 C17            4.0649     7.5836     0.2441 C.ar    
  18 C18            5.1045     8.4851     0.2891 C.ar    
  19 C19            4.8568     9.8458     0.1672 C.ar    
  20 C20            3.5634    10.3087     0.0038 C.ar    
  21 O21            1.2376     9.8658    -0.2036 O.3     
  22 C22            1.0621    11.2795    -0.3168 C.3     
  23 C23            2.1488     1.5448     5.8676 C.3     
  24 Cl24          -0.2765    -0.2236     5.8221 Cl      
  25 C25           -2.2120     0.5590     3.6187 C.3     
  26 C26           -0.4246    11.5966    -0.4901 C.3     
  27 N27           -1.1526    11.2108     0.7261 N.3     
  28 F28            5.8836    10.7226     0.2130 F       
  29 C29           -2.5381    11.7141     0.6946 C.3     
  30 C30           -3.4709    10.4958     0.8592 C.3     
  31 C31           -2.5566     9.4454     1.5429 C.3     
  32 C32           -1.1891     9.7406     0.8778 C.3     
  33 H33            2.6687     6.6386     2.6390 H       
  34 H34            3.4995     5.5292     1.5156 H       
  35 H35            0.3625     4.5395     0.1727 H       
  36 H36           -0.4679     5.6490     1.2966 H       
  37 H37            4.2619     6.5261     0.3400 H       
  38 H38            6.1168     8.1323     0.4201 H       
  39 H39            3.3771    11.3687    -0.0867 H       
  40 H40            1.4345    11.7652     0.5851 H       
  41 H41            1.6151    11.6461    -1.1816 H       
  42 H42            1.8220     0.6946     6.4664 H       
  43 H43            3.0999     1.3089     5.3903 H       
  44 H44            2.2714     2.4164     6.5106 H       
  45 H45           -2.8235     0.9332     2.7977 H       
  46 H46           -1.9461    -0.4810     3.4291 H       
  47 H47           -2.7739     0.6263     4.5503 H       
  48 H48           -0.5502    12.6651    -0.6652 H       
  49 H49           -0.8180    11.0403    -1.3409 H       
  50 H50           -2.6964    12.4157     1.5137 H       
  51 H51           -2.7330    12.2042    -0.2592 H       
  52 H52           -4.3187    10.7431     1.4981 H       
  53 H53           -3.8109    10.1368    -0.1122 H       
  54 H54           -2.5107     9.6095     2.6195 H       
  55 H55           -2.8897     8.4323     1.3178 H       
  56 H56           -1.1290     9.2569    -0.0971 H       
  57 H57           -0.3746     9.4050     1.5197 H       
@<TRIPOS>BOND
   1    1    2 2
   2    1    6 1
   3    2    3 1
   4    2   25 1
   5    3    4 2
   6    3   24 1
   7    4    5 1
   8    4   23 1
   9    5    7 1
  10    5    6 1
  11    6    9 2
  12    7    8 2
  13    8   10 1
  14    8    9 1
  15    9   12 1
  16   10   11 1
  17   10   33 1
  18   10   34 1
  19   11   12 1
  20   11   13 am
  21   12   35 1
  22   12   36 1
  23   13   14 2
  24   13   15 1
  25   15   17 ar
  26   15   16 ar
  27   16   20 ar
  28   16   21 1
  29   17   18 ar
  30   17   37 1
  31   18   19 ar
  32   18   38 1
  33   19   20 ar
  34   19   28 1
  35   20   39 1
  36   21   22 1
  37   22   26 1
  38   22   40 1
  39   22   41 1
  40   23   42 1
  41   23   43 1
  42   23   44 1
  43   25   45 1
  44   25   46 1
  45   25   47 1
  46   26   27 1
  47   26   48 1
  48   26   49 1
  49   27   29 1
  50   27   32 1
  51   29   30 1
  52   29   50 1
  53   29   51 1
  54   30   31 1
  55   30   52 1
  56   30   53 1
  57   31   32 1
  58   31   54 1
  59   31   55 1
  60   32   56 1
  61   32   57 1

#	End of record

