#	Name: ASD00230009
#	Creating user name:	WinNT
#	Creation time:	15. 06. 2019 18:33

#	Modifying user name:	WinNT
#	Modification time:	15. 06. 2019 18:33

#	Program:	/corina/corina34_cracker 3.40 0067  02.08.2006

@<TRIPOS>MOLECULE
ASD00230009
  67   70    0    0    0
SMALL
NO_CHARGES


@<TRIPOS>ATOM
   1 C1             6.5240     1.6209     0.1731 C.ar    
   2 C2             5.5882     0.6355     0.4523 C.ar    
   3 C3             5.5864    -0.5625    -0.2701 C.ar    
   4 C4             6.5359    -0.7758    -1.2424 C.ar    
   5 C5             7.4803     0.2087    -1.5157 C.ar    
   6 C6             7.4692     1.4065    -0.8109 C.ar    
   7 C7             4.5194    -1.5843     0.0173 C.3     
   8 N8             4.1715    -1.5891     1.4381 N.3     
   9 C9             3.8603    -0.3304     1.9430 C.ar    
  10 C10            4.5530     0.8049     1.4981 C.ar    
  11 C11            2.8647    -0.1882     2.8972 C.ar    
  12 C12            2.5748     1.0665     3.4162 C.ar    
  13 C13            3.2786     2.1857     2.9853 C.ar    
  14 C14            4.2650     2.0563     2.0280 C.ar    
  15 C15            3.2908    -1.2590    -0.7926 C.ar    
  16 C16            2.5771    -0.1041    -0.5322 C.ar    
  17 C17            1.4502     0.1942    -1.2751 C.ar    
  18 C18            1.0372    -0.6621    -2.2787 C.ar    
  19 C19            1.7514    -1.8165    -2.5396 C.ar    
  20 C20            2.8808    -2.1126    -1.7996 C.ar    
  21 N21            8.4442    -0.0078    -2.5033 N.pl3   
  22 N22            1.5706     1.2054     4.3761 N.pl3   
  23 C23            3.0929    -2.5478     1.7127 C.3     
  24 C24            3.5787    -3.9649     1.4015 C.3     
  25 C25            2.5043    -4.9740     1.8117 C.3     
  26 C26            3.3020    -6.6115    -0.0409 C.3     
  27 N27            2.9227    -6.3503     1.3867 Du      
  28 C28            2.7455    -5.4967    -0.9286 C.3     
  29 C29            4.3497    -6.0147     1.7045 C.3     
  30 C30            1.4957    -6.6859     1.0689 C.3     
  31 C31            1.3482    -8.2020     0.9249 C.3     
  32 H32            6.5106     2.5525     0.7192 H       
  33 H33            6.5485    -1.7054    -1.7921 H       
  34 H34            8.2001     2.1700    -1.0328 H       
  35 H35            4.8833    -2.5719    -0.2660 H       
  36 H36            2.3143    -1.0533     3.2365 H       
  37 H37            3.0535     3.1572     3.3999 H       
  38 H38            4.8113     2.9253     1.6924 H       
  39 H39            2.8998     0.5649     0.2518 H       
  40 H40            0.8921     1.0961    -1.0712 H       
  41 H41            0.1563    -0.4294    -2.8586 H       
  42 H42            1.4286    -2.4857    -3.3234 H       
  43 H43            3.4410    -3.0127    -2.0060 H       
  44 H44            8.4541    -0.8429    -2.9966 H       
  45 H45            9.1037     0.6770    -2.6957 H       
  46 H46            1.0777     0.4267     4.6785 H       
  47 H47            1.3658     2.0807     4.7406 H       
  48 H48            2.8085    -2.4837     2.7630 H       
  49 H49            2.2310    -2.3139     1.0879 H       
  50 H50            3.7735    -4.0558     0.3329 H       
  51 H51            4.4955    -4.1647     1.9562 H       
  52 H52            2.3782    -4.9506     2.8942 H       
  53 H53            1.5610    -4.7161     1.3304 H       
  54 H54            4.3881    -6.6383    -0.1291 H       
  55 H55            2.8881    -7.5689    -0.3574 H       
  56 H56            2.9513    -7.1681     2.1218 H       
  57 H57            3.4990    -5.2042    -1.6599 H       
  58 H58            1.8560    -5.8548    -1.4469 H       
  59 H59            2.4850    -4.6367    -0.3116 H       
  60 H60            4.7512    -5.3632     0.9284 H       
  61 H61            4.3975    -5.5054     2.6670 H       
  62 H62            4.9373    -6.9317     1.7490 H       
  63 H63            0.8514    -6.3330     1.8742 H       
  64 H64            1.2080    -6.2026     0.1352 H       
  65 H65            2.2024    -8.5998     0.3771 H       
  66 H66            1.3063    -8.6585     1.9139 H       
  67 H67            0.4308    -8.4278     0.3813 H       
@<TRIPOS>BOND
   1    1    2 ar
   2    1    6 ar
   3    1   32 1
   4    2    3 ar
   5    2   10 1
   6    3    4 ar
   7    3    7 1
   8    4    5 ar
   9    4   33 1
  10    5    6 ar
  11    5   21 1
  12    6   34 1
  13    7    8 1
  14    7   15 1
  15    7   35 1
  16    8    9 1
  17    8   23 1
  18    9   10 ar
  19    9   11 ar
  20   10   14 ar
  21   11   12 ar
  22   11   36 1
  23   12   13 ar
  24   12   22 1
  25   13   14 ar
  26   13   37 1
  27   14   38 1
  28   15   16 ar
  29   15   20 ar
  30   16   17 ar
  31   16   39 1
  32   17   18 ar
  33   17   40 1
  34   18   19 ar
  35   18   41 1
  36   19   20 ar
  37   19   42 1
  38   20   43 1
  39   21   44 1
  40   21   45 1
  41   22   46 1
  42   22   47 1
  43   23   24 1
  44   23   48 1
  45   23   49 1
  46   24   25 1
  47   24   50 1
  48   24   51 1
  49   25   27 1
  50   25   52 1
  51   25   53 1
  52   26   27 1
  53   26   28 1
  54   26   54 1
  55   26   55 1
  56   27   29 1
  57   27   30 1
  58   27   56 1
  59   28   57 1
  60   28   58 1
  61   28   59 1
  62   29   60 1
  63   29   61 1
  64   29   62 1
  65   30   31 1
  66   30   63 1
  67   30   64 1
  68   31   65 1
  69   31   66 1
  70   31   67 1

#	End of record

