#	Name: ASD05430252
#	Creating user name:	WinNT
#	Creation time:	15. 06. 2019 21:00

#	Modifying user name:	WinNT
#	Modification time:	15. 06. 2019 21:00

#	Program:	/corina/corina34_cracker 3.40 0067  02.08.2006

@<TRIPOS>MOLECULE
ASD05430252
  70   75    0    0    0
SMALL
NO_CHARGES


@<TRIPOS>ATOM
   1 C1             0.0734     1.5015    -0.3932 C.ar    
   2 C2            -0.1112     0.4547     0.5094 C.ar    
   3 C3             0.9267     0.0628     1.3453 C.ar    
   4 C4             2.1435     0.7065     1.2865 C.ar    
   5 C5             2.3359     1.7573     0.3837 C.ar    
   6 C6             1.2912     2.1517    -0.4577 C.ar    
   7 C7             4.7594     0.2323     0.4861 C.3     
   8 C8             4.7762     1.7445     0.4464 C.2     
   9 C9             3.6351     2.4466     0.3198 C.2     
  10 C10            5.7403    -0.3149    -0.5544 C.3     
  11 S11            7.4436     0.3032    -0.4246 S.o2    
  12 N12            7.2608     1.8715     0.0580 N.am    
  13 C13            6.0801     2.4274     0.5509 C.2     
  14 N14            6.3217     3.5825     1.0879 N.2     
  15 N15           -1.3469    -0.2033     0.5737 N.pl3   
  16 C16           -1.5516    -1.5583     0.5372 C.2     
  17 C17           -2.8809    -1.7545     0.6257 C.2     
  18 N18           -3.4762    -0.5559     0.7140 N.2     
  19 C19           -2.5677     0.3810     0.6898 C.2     
  20 C20           -3.5791    -3.0901     0.6248 C.3     
  21 C21            8.2578     2.9457     0.0647 C.3     
  22 O22            7.7056     3.8911     1.0049 O.3     
  23 C23            9.5911     2.4330     0.5450 C.ar    
  24 O24           -0.9429     1.8787    -1.2138 O.3     
  25 C25            8.3860     3.5744    -1.3243 C.3     
  26 C26           10.2681     1.4764    -0.1883 C.ar    
  27 C27           11.4906     1.0052     0.2514 C.ar    
  28 C28           11.3612     2.4542     2.1572 C.ar    
  29 C29           10.1388     2.9239     1.7155 C.ar    
  30 O30            8.1213    -0.3215     0.6569 O.2     
  31 O31            8.0408     0.3975    -1.7105 O.2     
  32 C32           12.0376     1.4920     1.4265 C.ar    
  33 F33           13.2326     1.0320     1.8574 F       
  34 C34            5.5490    -1.7610    -1.0142 C.3     
  35 C35            5.1995    -0.6057    -1.9546 C.3     
  36 C36           -0.6837     2.9584    -2.1133 C.3     
  37 C37            9.5181     4.6035    -1.3157 C.3     
  38 S38            9.6701     5.3490    -2.9625 S.o2    
  39 O39            8.4895     6.0918    -3.2339 O.2     
  40 C40           11.0419     6.5113    -2.7225 C.3     
  41 O41           10.0833     4.3439    -3.8781 O.2     
  42 H42            0.7794    -0.7482     2.0431 H       
  43 H43            2.9486     0.4000     1.9378 H       
  44 H44            1.4357     2.9624    -1.1565 H       
  45 H45            5.0546    -0.1085     1.4785 H       
  46 H46            3.7547    -0.1261     0.2623 H       
  47 H47            3.6724     3.5157     0.1713 H       
  48 H48           -0.7924    -2.3219     0.4535 H       
  49 H49           -2.7556     1.4431     0.7451 H       
  50 H50           -3.6734    -3.4514     1.6488 H       
  51 H51           -4.5705    -2.9815     0.1850 H       
  52 H52           -2.9983    -3.8033     0.0398 H       
  53 H53            8.6070     2.7972    -2.0559 H       
  54 H54            7.4498     4.0663    -1.5882 H       
  55 H55            9.8413     1.0969    -1.1049 H       
  56 H56           12.0190     0.2573    -0.3213 H       
  57 H57           11.7889     2.8378     3.0717 H       
  58 H58            9.6111     3.6744     2.2852 H       
  59 H59            6.4444    -2.3402    -1.2395 H       
  60 H60            4.7228    -2.3227    -0.5782 H       
  61 H61            4.1434    -0.4074    -2.1375 H       
  62 H62            5.8650    -0.4249    -2.7988 H       
  63 H63           -1.5749     3.1572    -2.7085 H       
  64 H64           -0.4203     3.8500    -1.5444 H       
  65 H65            0.1418     2.6914    -2.7731 H       
  66 H66            9.2972     5.3807    -0.5841 H       
  67 H67           10.4543     4.1116    -1.0518 H       
  68 H68           11.9333     5.9633    -2.4172 H       
  69 H69           11.2406     7.0368    -3.6566 H       
  70 H70           10.7762     7.2324    -1.9495 H       
@<TRIPOS>BOND
   1    1    2 ar
   2    1    6 ar
   3    1   24 1
   4    2    3 ar
   5    2   15 1
   6    3    4 ar
   7    3   42 1
   8    4    5 ar
   9    4   43 1
  10    5    6 ar
  11    5    9 1
  12    6   44 1
  13    7    8 1
  14    7   10 1
  15    7   45 1
  16    7   46 1
  17    8    9 2
  18    8   13 1
  19    9   47 1
  20   10   11 1
  21   10   34 1
  22   10   35 1
  23   11   12 am
  24   11   30 2
  25   11   31 2
  26   12   13 1
  27   12   21 1
  28   13   14 2
  29   14   22 1
  30   15   16 1
  31   15   19 1
  32   16   17 2
  33   16   48 1
  34   17   18 1
  35   17   20 1
  36   18   19 2
  37   19   49 1
  38   20   50 1
  39   20   51 1
  40   20   52 1
  41   21   22 1
  42   21   23 1
  43   21   25 1
  44   23   26 ar
  45   23   29 ar
  46   24   36 1
  47   25   37 1
  48   25   53 1
  49   25   54 1
  50   26   27 ar
  51   26   55 1
  52   27   32 ar
  53   27   56 1
  54   28   29 ar
  55   28   32 ar
  56   28   57 1
  57   29   58 1
  58   32   33 1
  59   34   35 1
  60   34   59 1
  61   34   60 1
  62   35   61 1
  63   35   62 1
  64   36   63 1
  65   36   64 1
  66   36   65 1
  67   37   38 1
  68   37   66 1
  69   37   67 1
  70   38   39 2
  71   38   40 1
  72   38   41 2
  73   40   68 1
  74   40   69 1
  75   40   70 1

#	End of record

