#	Name: ASD00069472
#	Creating user name:	WinNT
#	Creation time:	15. 06. 2019 18:29

#	Modifying user name:	WinNT
#	Modification time:	15. 06. 2019 18:29

#	Program:	/corina/corina34_cracker 3.40 0067  02.08.2006

@<TRIPOS>MOLECULE
ASD00069472
  18   18    0    0    0
SMALL
NO_CHARGES


@<TRIPOS>ATOM
   1 C1            -0.0165     1.3660     0.0096 C.2     
   2 C2             0.0021    -0.0041     0.0020 C.2     
   3 S3             1.6663    -0.5716    -0.0169 S.3     
   4 C4             2.2674     1.0808    -0.0138 C.2     
   5 C5             1.2178     1.9532     0.0009 C.2     
   6 C6            -1.1829    -0.8643     0.0092 C.2     
   7 O7            -2.2910    -0.3703     0.0228 O.2     
   8 B8             3.7828     1.4908    -0.0261 Du      
   9 O9             4.7893     0.4892    -0.0416 O.3     
  10 O10            4.1471     2.8633    -0.0216 O.3     
  11 C11           -1.0261    -2.3630    -0.0004 C.3     
  12 H12           -0.9335     1.9365     0.0171 H       
  13 H13            1.3522     3.0248     0.0054 H       
  14 H14            5.6912     0.8380    -0.0483 H       
  15 H15            5.1017     3.0169    -0.0300 H       
  16 H16            0.0337    -2.6174    -0.0123 H       
  17 H17           -1.4905    -2.7827     0.8919 H       
  18 H18           -1.5081    -2.7731    -0.8879 H       
@<TRIPOS>BOND
   1    1    2 2
   2    1    5 1
   3    1   12 1
   4    2    3 1
   5    2    6 1
   6    3    4 1
   7    4    5 2
   8    4    8 1
   9    5   13 1
  10    6    7 2
  11    6   11 1
  12    8    9 1
  13    8   10 1
  14    9   14 1
  15   10   15 1
  16   11   16 1
  17   11   17 1
  18   11   18 1

#	End of record

