#	Name: ASD01813019
#	Creating user name:	WinNT
#	Creation time:	15. 06. 2019 19:29

#	Modifying user name:	WinNT
#	Modification time:	15. 06. 2019 19:29

#	Program:	/corina/corina34_cracker 3.40 0067  02.08.2006

@<TRIPOS>MOLECULE
ASD01813019
  45   48    0    0    0
SMALL
NO_CHARGES


@<TRIPOS>ATOM
   1 C1            -0.6627     1.4724     0.0018 C.2     
   2 C2            -0.4071     0.1539    -0.0346 C.2     
   3 N3            -1.4199    -0.7578     0.0642 N.pl3   
   4 C4            -2.7083    -0.4173     0.1879 C.2     
   5 C5            -3.0735     0.9139     0.2246 C.2     
   6 C6            -2.0072     1.9195     0.1317 C.2     
   7 O7            -2.2691     3.1115     0.1578 O.2     
   8 C8            -1.0779    -2.1820     0.0326 C.3     
   9 C9            -1.2003    -2.6968    -1.3785 C.ar    
  10 C10            0.4106     2.5248    -0.0823 C.3     
  11 C11            1.7038     1.9359    -0.6418 C.3     
  12 C12            2.0315     0.6643     0.1507 C.3     
  13 C13            0.9892    -0.3960    -0.1944 C.3     
  14 O14           -0.0328     3.5817    -0.9357 O.3     
  15 C15           -0.0806    -2.7671    -2.1868 C.ar    
  16 C16           -0.1897    -3.2381    -3.4807 C.ar    
  17 C17           -1.4251    -3.6415    -3.9692 C.ar    
  18 C18           -2.5474    -3.5702    -3.1550 C.ar    
  19 C19           -2.4310    -3.1032    -1.8603 C.ar    
  20 N20           -1.5391    -4.1196    -5.2822 N.pl3   
  21 N21           -0.5048    -4.2516    -6.2231 N.2     
  22 C22           -1.0440    -4.7331    -7.3126 C.2     
  23 N23           -2.3492    -4.9092    -7.1094 N.2     
  24 C24           -2.6616    -4.5494    -5.8908 C.2     
  25 C25           -4.4839     1.3117     0.3571 C.2     
  26 O26           -5.3499     0.4626     0.4362 O.2     
  27 O27           -4.8155     2.6177     0.3906 O.3     
  28 H28           -3.4641    -1.1854     0.2587 H       
  29 H29           -0.0542    -2.3176     0.3813 H       
  30 H30           -1.7587    -2.7336     0.6809 H       
  31 H31            0.5999     2.9245     0.9139 H       
  32 H32            1.5702     1.6890    -1.6950 H       
  33 H33            2.5140     2.6569    -0.5322 H       
  34 H34            3.0242     0.3065    -0.1225 H       
  35 H35            1.9984     0.8782     1.2190 H       
  36 H36            1.1156    -1.2523     0.4681 H       
  37 H37            1.1322    -0.7173    -1.2261 H       
  38 H38            0.6076     4.2988    -1.0390 H       
  39 H39            0.8801    -2.4531    -1.8063 H       
  40 H40            0.6850    -3.2921    -4.1118 H       
  41 H41           -3.5097    -3.8831    -3.5324 H       
  42 H42           -3.3037    -3.0475    -1.2265 H       
  43 H43           -0.5168    -4.9523    -8.2293 H       
  44 H44           -3.6478    -4.5844    -5.4519 H       
  45 H45           -5.7548     2.8300     0.4787 H       
@<TRIPOS>BOND
   1    1    2 2
   2    1   10 1
   3    1    6 1
   4    2    3 1
   5    2   13 1
   6    3    4 1
   7    3    8 1
   8    4    5 2
   9    4   28 1
  10    5    6 1
  11    5   25 1
  12    6    7 2
  13    8    9 1
  14    8   29 1
  15    8   30 1
  16    9   15 ar
  17    9   19 ar
  18   10   11 1
  19   10   14 1
  20   10   31 1
  21   11   12 1
  22   11   32 1
  23   11   33 1
  24   12   13 1
  25   12   34 1
  26   12   35 1
  27   13   36 1
  28   13   37 1
  29   14   38 1
  30   15   16 ar
  31   15   39 1
  32   16   17 ar
  33   16   40 1
  34   17   18 ar
  35   17   20 1
  36   18   19 ar
  37   18   41 1
  38   19   42 1
  39   20   21 1
  40   20   24 1
  41   21   22 2
  42   22   23 1
  43   22   43 1
  44   23   24 2
  45   24   44 1
  46   25   26 2
  47   25   27 1
  48   27   45 1

#	End of record

