#	Name: ASD02560099
#	Creating user name:	WinNT
#	Creation time:	15. 06. 2019 20:24

#	Modifying user name:	WinNT
#	Modification time:	15. 06. 2019 20:24

#	Program:	/corina/corina34_cracker 3.40 0067  02.08.2006

@<TRIPOS>MOLECULE
ASD02560099
  56   59    0    0    0
SMALL
NO_CHARGES


@<TRIPOS>ATOM
   1 N1            -0.1727     1.0169     0.0806 N.2     
   2 N2            -0.0682    -0.2135     0.0671 N.2     
   3 C3             1.1346     1.6632    -0.0923 C.3     
   4 N4             2.1255     0.5915     0.1799 N.3     
   5 C5             1.3292    -0.6259    -0.1174 C.3     
   6 S6             1.7533    -1.9565     1.0404 S.3     
   7 C7             1.3367    -1.2411     2.6545 C.3     
   8 C8             1.6375    -2.2419     3.7402 C.2     
   9 O9             2.0886    -3.3305     3.4534 O.2     
  10 N10            1.4054    -1.9271     5.0300 N.am    
  11 C11            3.2197     0.6939    -0.6764 C.ar    
  12 C12            1.5913    -2.8854     6.0260 C.ar    
  13 C13            0.7557    -2.9008     7.1400 C.ar    
  14 C14            0.9367    -3.8463     8.1250 C.ar    
  15 C15            1.9607    -4.7908     8.0050 C.ar    
  16 C16            2.7972    -4.7718     6.8853 C.ar    
  17 C17            2.6074    -3.8271     5.9017 C.ar    
  18 Cl18          -0.5148    -1.7270     7.2875 Cl      
  19 C19            2.1581    -5.8045     9.0577 C.2     
  20 O20            3.1454    -6.7140     8.9406 O.3     
  21 O21            1.4305    -5.8196    10.0307 O.2     
  22 C22            4.1774     1.7136    -0.4894 C.ar    
  23 C23            3.3798    -0.2035    -1.7110 C.ar    
  24 C24            4.4693    -0.1102    -2.5714 C.ar    
  25 C25            5.4056     0.8664    -2.4169 C.ar    
  26 C26            5.2822     1.7981    -1.3723 C.ar    
  27 C27            6.2333     2.8169    -1.1892 C.ar    
  28 C28            6.0828     3.7030    -0.1671 C.ar    
  29 C29            4.9980     3.6163     0.7033 C.ar    
  30 C30            4.0558     2.6448     0.5537 C.ar    
  31 C31            6.5764     0.9448    -3.3626 C.3     
  32 C32            1.2884     2.1798    -1.5242 C.3     
  33 F33            0.2008     2.9998    -1.8434 F       
  34 F34            2.4738     2.9153    -1.6299 F       
  35 C35            7.7726     0.2093    -2.7553 C.3     
  36 H36            1.2522     2.4789     0.6211 H       
  37 H37            1.4974    -0.9479    -1.1451 H       
  38 H38            1.9287    -0.3403     2.8164 H       
  39 H39            0.2767    -0.9881     2.6771 H       
  40 H40            1.1089    -1.0341     5.2655 H       
  41 H41            0.2888    -3.8579     8.9890 H       
  42 H42            3.5892    -5.4998     6.7899 H       
  43 H43            3.2535    -3.8123     5.0365 H       
  44 H44            3.2358    -7.3585     9.6559 H       
  45 H45            2.6515    -0.9879    -1.8548 H       
  46 H46            4.5742    -0.8242    -3.3749 H       
  47 H47            7.0792     2.8959    -1.8559 H       
  48 H48            6.8151     4.4846    -0.0284 H       
  49 H49            4.9017     4.3319     1.5064 H       
  50 H50            3.2202     2.5896     1.2358 H       
  51 H51            6.3083     0.4810    -4.3119 H       
  52 H52            6.8389     1.9894    -3.5300 H       
  53 H53            1.3218     1.3359    -2.2133 H       
  54 H54            8.6194     0.2660    -3.4393 H       
  55 H55            8.0407     0.6731    -1.8061 H       
  56 H56            7.5101    -0.8353    -2.5880 H       
@<TRIPOS>BOND
   1    1    2 2
   2    1    3 1
   3    2    5 1
   4    3    4 1
   5    3   32 1
   6    3   36 1
   7    4    5 1
   8    4   11 1
   9    5    6 1
  10    5   37 1
  11    6    7 1
  12    7    8 1
  13    7   38 1
  14    7   39 1
  15    8    9 2
  16    8   10 am
  17   10   12 1
  18   10   40 1
  19   11   22 ar
  20   11   23 ar
  21   12   13 ar
  22   12   17 ar
  23   13   14 ar
  24   13   18 1
  25   14   15 ar
  26   14   41 1
  27   15   16 ar
  28   15   19 1
  29   16   17 ar
  30   16   42 1
  31   17   43 1
  32   19   20 1
  33   19   21 2
  34   20   44 1
  35   22   26 ar
  36   22   30 ar
  37   23   24 ar
  38   23   45 1
  39   24   25 ar
  40   24   46 1
  41   25   26 ar
  42   25   31 1
  43   26   27 ar
  44   27   28 ar
  45   27   47 1
  46   28   29 ar
  47   28   48 1
  48   29   30 ar
  49   29   49 1
  50   30   50 1
  51   31   35 1
  52   31   51 1
  53   31   52 1
  54   32   33 1
  55   32   34 1
  56   32   53 1
  57   35   54 1
  58   35   55 1
  59   35   56 1

#	End of record

