#	Name: ASD01910627
#	Creating user name:	WinNT
#	Creation time:	15. 06. 2019 19:56

#	Modifying user name:	WinNT
#	Modification time:	15. 06. 2019 19:56

#	Program:	/corina/corina34_cracker 3.40 0067  02.08.2006

@<TRIPOS>MOLECULE
ASD01910627
  43   46    0    0    0
SMALL
NO_CHARGES


@<TRIPOS>ATOM
   1 C1            -0.6949     1.8018    -1.9530 C.ar    
   2 C2            -0.7607     0.4370    -1.7140 C.ar    
   3 C3             0.3206    -0.2030    -1.1205 C.ar    
   4 C4             1.4321     0.5510    -0.7871 C.ar    
   5 C5             1.4288     1.9195    -1.0567 C.ar    
   6 N6             0.3752     2.4937    -1.6253 N.ar    
   7 C7             2.6095     2.7384    -0.7060 C.2     
   8 N8             2.7539     4.0370    -0.8980 N.2     
   9 C9             3.9747     4.3368    -0.4283 C.2     
  10 N10            4.5061     3.2367     0.0173 N.2     
  11 O11            3.7400     2.3073    -0.1257 O.3     
  12 C12            4.6143     5.7013    -0.4193 C.3     
  13 C13            4.9316     6.1071     1.0218 C.3     
  14 C14            5.5512     7.5064     1.0348 C.3     
  15 C15            6.8596     7.4886     0.2383 C.3     
  16 N16            6.5878     6.9615    -1.1060 N.am    
  17 C17            5.9121     5.6630    -1.2323 C.3     
  18 C18            6.9512     7.6560    -2.2024 C.2     
  19 C19            7.5538     8.9974    -2.0609 C.ar    
  20 O20            6.7832     7.1786    -3.3077 O.2     
  21 F21           -1.8650    -0.2629    -2.0544 F       
  22 C22            8.6286     9.1942    -1.1918 C.ar    
  23 C23            9.1881    10.4479    -1.0627 C.ar    
  24 C24            8.6858    11.5128    -1.7933 C.ar    
  25 C25            7.6167    11.3239    -2.6592 C.ar    
  26 C26            7.0540    10.0716    -2.8005 C.ar    
  27 F27            9.2377    12.7389    -1.6624 F       
  28 F28            7.1308    12.3659    -3.3687 F       
  29 H29           -1.5312     2.3023    -2.4182 H       
  30 H30            0.2940    -1.2645    -0.9236 H       
  31 H31            2.2901     0.0863    -0.3242 H       
  32 H32            3.9301     6.4267    -0.8593 H       
  33 H33            4.0130     6.1113     1.6086 H       
  34 H34            5.6347     5.3947     1.4533 H       
  35 H35            4.8586     8.2152     0.5809 H       
  36 H36            5.7554     7.8044     2.0632 H       
  37 H37            7.2540     8.5018     0.1606 H       
  38 H38            7.5851     6.8495     0.7415 H       
  39 H39            6.5603     4.8750    -0.8490 H       
  40 H40            5.6813     5.4716    -2.2802 H       
  41 H41            9.0210     8.3657    -0.6210 H       
  42 H42           10.0195    10.6002    -0.3903 H       
  43 H43            6.2227     9.9246    -3.4742 H       
@<TRIPOS>BOND
   1    1    2 ar
   2    1    6 ar
   3    1   29 1
   4    2    3 ar
   5    2   21 1
   6    3    4 ar
   7    3   30 1
   8    4    5 ar
   9    4   31 1
  10    5    6 ar
  11    5    7 1
  12    7    8 2
  13    7   11 1
  14    8    9 1
  15    9   10 2
  16    9   12 1
  17   10   11 1
  18   12   13 1
  19   12   17 1
  20   12   32 1
  21   13   14 1
  22   13   33 1
  23   13   34 1
  24   14   15 1
  25   14   35 1
  26   14   36 1
  27   15   16 1
  28   15   37 1
  29   15   38 1
  30   16   17 1
  31   16   18 am
  32   17   39 1
  33   17   40 1
  34   18   19 1
  35   18   20 2
  36   19   22 ar
  37   19   26 ar
  38   22   23 ar
  39   22   41 1
  40   23   24 ar
  41   23   42 1
  42   24   25 ar
  43   24   27 1
  44   25   26 ar
  45   25   28 1
  46   26   43 1

#	End of record

