#	Name: ASD02030447
#	Creating user name:	WinNT
#	Creation time:	15. 06. 2019 20:15

#	Modifying user name:	WinNT
#	Modification time:	15. 06. 2019 20:15

#	Program:	/corina/corina34_cracker 3.40 0067  02.08.2006

@<TRIPOS>MOLECULE
ASD02030447
  20   21    0    0    0
SMALL
NO_CHARGES


@<TRIPOS>ATOM
   1 N1            -0.0154     1.2845     0.0091 N.2     
   2 N2             0.0021    -0.0041     0.0020 N.pl3   
   3 N3             1.2219    -0.4146    -0.0118 N.2     
   4 N4             2.0092     0.6071    -0.0139 N.2     
   5 C5             1.2368     1.7049    -0.0006 C.2     
   6 C6             1.6975     3.1097     0.0026 C.2     
   7 O7             0.8874     4.0145     0.0151 O.2     
   8 O8             3.0158     3.3862    -0.0086 O.3     
   9 C9            -1.1309    -0.8300     0.0091 C.ar    
  10 C10           -0.9853    -2.2132     0.0002 C.ar    
  11 C11           -2.1057    -3.0241     0.0072 C.ar    
  12 C12           -3.3682    -2.4603     0.0226 C.ar    
  13 C13           -3.5150    -1.0855     0.0310 C.ar    
  14 C14           -2.4002    -0.2693     0.0308 C.ar    
  15 F15            0.2484    -2.7637    -0.0157 F       
  16 H16            3.2687     4.3196    -0.0060 H       
  17 H17           -1.9945    -4.0983     0.0003 H       
  18 H18           -4.2418    -3.0953     0.0277 H       
  19 H19           -4.5027    -0.6489     0.0426 H       
  20 H20           -2.5166     0.8043     0.0422 H       
@<TRIPOS>BOND
   1    1    2 1
   2    1    5 2
   3    2    3 1
   4    2    9 1
   5    3    4 2
   6    4    5 1
   7    5    6 1
   8    6    7 2
   9    6    8 1
  10    8   16 1
  11    9   10 ar
  12    9   14 ar
  13   10   11 ar
  14   10   15 1
  15   11   12 ar
  16   11   17 1
  17   12   13 ar
  18   12   18 1
  19   13   14 ar
  20   13   19 1
  21   14   20 1

#	End of record

