#	Name: ASD05720253
#	Creating user name:	WinNT
#	Creation time:	15. 06. 2019 21:02

#	Modifying user name:	WinNT
#	Modification time:	15. 06. 2019 21:02

#	Program:	/corina/corina34_cracker 3.40 0067  02.08.2006

@<TRIPOS>MOLECULE
ASD05720253
  49   53    0    0    0
SMALL
NO_CHARGES


@<TRIPOS>ATOM
   1 C1             0.6055     0.9391    -1.0891 C.2     
   2 N2             0.5291    -0.3572    -0.7605 N.am    
   3 C3             1.7270    -0.7330     0.0051 C.3     
   4 C4             2.5422     0.5726     0.0797 C.3     
   5 N5             1.7170     1.5455    -0.6518 N.am    
   6 O6            -0.2536     1.5122    -1.7305 O.2     
   7 C7             2.7246     1.0095     1.5346 C.3     
   8 C8             3.4199    -0.1053     2.3185 C.3     
   9 C9             3.5801     2.2771     1.5831 C.3     
  10 C10            3.5541     4.6156    -0.6972 C.2     
  11 N11            3.2282     3.3333    -0.5074 N.2     
  12 C12            2.0388     2.8805    -0.8567 C.2     
  13 C13            1.0950     3.7515    -1.4381 C.2     
  14 C14            1.4216     5.0495    -1.6320 C.2     
  15 N15            2.6614     5.4893    -1.2594 N.pl3   
  16 N16            3.2747     6.7451    -1.3311 N.2     
  17 C17            4.4869     6.6633    -0.8400 C.2     
  18 C18            4.7165     5.3474    -0.4199 C.2     
  19 C19            5.9557     4.8266     0.1997 C.ar    
  20 C20            7.1932     5.0778    -0.3959 C.ar    
  21 C21            8.3456     4.5933     0.1813 C.ar    
  22 C22            8.2769     3.8515     1.3605 C.ar    
  23 C23            7.0409     3.6002     1.9560 C.ar    
  24 C24            5.8881     4.0889     1.3830 C.ar    
  25 N25           10.9416     2.3397     3.3078 N.pl3   
  26 N26            9.5833     2.6200     3.0870 N.2     
  27 C27            9.5185     3.3292     1.9810 C.2     
  28 N28           10.7605     3.5015     1.5081 N.2     
  29 C29           11.6196     2.9119     2.2968 C.2     
  30 H30           -0.2006    -0.9533    -0.9909 H       
  31 H31            1.4522    -1.0701     1.0046 H       
  32 H32            2.2893    -1.5057    -0.5192 H       
  33 H33            3.5093     0.4482    -0.4076 H       
  34 H34            1.7497     1.2120     1.9781 H       
  35 H35            2.8104    -1.0084     2.2840 H       
  36 H36            4.3948    -0.3078     1.8750 H       
  37 H37            3.5498     0.2059     3.3550 H       
  38 H38            2.9835     3.1306     1.2610 H       
  39 H39            3.9287     2.4414     2.6027 H       
  40 H40            4.4375     2.1622     0.9200 H       
  41 H41            0.1206     3.3857    -1.7263 H       
  42 H42            0.7112     5.7309    -2.0764 H       
  43 H43            5.1920     7.4782    -0.7678 H       
  44 H44            7.2465     5.6516    -1.3093 H       
  45 H45            9.3030     4.7876    -0.2793 H       
  46 H46            6.9883     3.0256     2.8690 H       
  47 H47            4.9315     3.8977     1.8464 H       
  48 H48           11.3174     1.8359     4.0466 H       
  49 H49           12.6907     2.8882     2.1602 H       
@<TRIPOS>BOND
   1    1    2 am
   2    1    5 am
   3    1    6 2
   4    2    3 1
   5    2   30 1
   6    3    4 1
   7    3   31 1
   8    3   32 1
   9    4    5 1
  10    4    7 1
  11    4   33 1
  12    5   12 1
  13    7    8 1
  14    7    9 1
  15    7   34 1
  16    8   35 1
  17    8   36 1
  18    8   37 1
  19    9   38 1
  20    9   39 1
  21    9   40 1
  22   10   11 1
  23   10   15 1
  24   10   18 2
  25   11   12 2
  26   12   13 1
  27   13   14 2
  28   13   41 1
  29   14   15 1
  30   14   42 1
  31   15   16 1
  32   16   17 2
  33   17   18 1
  34   17   43 1
  35   18   19 1
  36   19   20 ar
  37   19   24 ar
  38   20   21 ar
  39   20   44 1
  40   21   22 ar
  41   21   45 1
  42   22   23 ar
  43   22   27 1
  44   23   24 ar
  45   23   46 1
  46   24   47 1
  47   25   26 1
  48   25   29 1
  49   25   48 1
  50   26   27 2
  51   27   28 1
  52   28   29 2
  53   29   49 1

#	End of record

