#	Name: ASD03490017
#	Creating user name:	WinNT
#	Creation time:	15. 06. 2019 20:42

#	Modifying user name:	WinNT
#	Modification time:	15. 06. 2019 20:42

#	Program:	/corina/corina34_cracker 3.40 0067  02.08.2006

@<TRIPOS>MOLECULE
ASD03490017
  37   40    0    0    0
SMALL
NO_CHARGES


@<TRIPOS>ATOM
   1 N1             0.0037     1.3092    -0.4429 N.2     
   2 C2             0.0314    -0.0331    -0.4886 C.2     
   3 C3             1.2749    -0.7041    -0.4403 C.2     
   4 C4             2.4371     0.0748    -0.3456 C.2     
   5 N5             2.3214     1.4398    -0.3042 N.pl3   
   6 C6             1.0948     2.0171    -0.3548 C.2     
   7 C7             3.7089    -0.5231    -0.2926 C.2     
   8 C8             4.8090     0.2710    -0.2005 C.2     
   9 C9             4.6625     1.6730    -0.1596 C.2     
  10 N10            3.4744     2.2290    -0.2097 N.2     
  11 S11            6.0944     2.6929    -0.0403 S.3     
  12 C12            5.4340     4.3208    -0.1752 C.ar    
  13 C13            5.3181     5.1199     0.9539 C.ar    
  14 C14            4.8003     6.3965     0.8460 C.ar    
  15 C15            4.3964     6.8797    -0.3869 C.ar    
  16 C16            4.5099     6.0853    -1.5159 C.ar    
  17 C17            5.0330     4.8097    -1.4146 C.ar    
  18 C18            1.3477    -2.1806    -0.4877 C.ar    
  19 C19            1.3126    -2.9231     0.6947 C.ar    
  20 C20            1.3810    -4.3012     0.6429 C.ar    
  21 C21            1.4844    -4.9467    -0.5764 C.ar    
  22 C22            1.5196    -4.2176    -1.7517 C.ar    
  23 C23            1.4459    -2.8392    -1.7154 C.ar    
  24 Cl24           1.1840    -2.1152     2.2259 Cl      
  25 Cl25           1.4897    -1.9263    -3.1913 Cl      
  26 O26           -1.0104    -0.6695    -0.5710 O.2     
  27 F27            5.1439     4.0347    -2.5156 F       
  28 F28            3.8902     8.1281    -0.4889 F       
  29 H29            1.0202     3.0940    -0.3211 H       
  30 H30            3.8104    -1.5979    -0.3242 H       
  31 H31            5.7933    -0.1714    -0.1584 H       
  32 H32            5.6321     4.7439     1.9164 H       
  33 H33            4.7103     7.0180     1.7246 H       
  34 H34            4.1939     6.4643    -2.4766 H       
  35 H35            1.3540    -4.8767     1.5565 H       
  36 H36            1.5383    -6.0248    -0.6110 H       
  37 H37            1.6008    -4.7279    -2.7000 H       
@<TRIPOS>BOND
   1    1    2 1
   2    1    6 2
   3    2    3 1
   4    2   26 2
   5    3    4 2
   6    3   18 1
   7    4    5 1
   8    4    7 1
   9    5    6 1
  10    5   10 1
  11    6   29 1
  12    7    8 2
  13    7   30 1
  14    8    9 1
  15    8   31 1
  16    9   10 2
  17    9   11 1
  18   11   12 1
  19   12   13 ar
  20   12   17 ar
  21   13   14 ar
  22   13   32 1
  23   14   15 ar
  24   14   33 1
  25   15   16 ar
  26   15   28 1
  27   16   17 ar
  28   16   34 1
  29   17   27 1
  30   18   19 ar
  31   18   23 ar
  32   19   20 ar
  33   19   24 1
  34   20   21 ar
  35   20   35 1
  36   21   22 ar
  37   21   36 1
  38   22   23 ar
  39   22   37 1
  40   23   25 1

#	End of record

