#	Name: ASD00451025
#	Creating user name:	WinNT
#	Creation time:	15. 06. 2019 18:36

#	Modifying user name:	WinNT
#	Modification time:	15. 06. 2019 18:36

#	Program:	/corina/corina34_cracker 3.40 0067  02.08.2006

@<TRIPOS>MOLECULE
ASD00451025
  58   63    0    0    0
SMALL
NO_CHARGES


@<TRIPOS>ATOM
   1 C1            -0.0017     1.3584     0.1397 C.ar    
   2 C2            -0.0445    -0.0266     0.1885 C.ar    
   3 N3             1.2297     2.0209     0.0993 N.am    
   4 C4            -1.1947     2.0924     0.1253 C.ar    
   5 C5            -1.2603    -0.6817     0.2275 C.ar    
   6 C6             2.3150     1.3961    -0.3987 C.2     
   7 C7            -2.4172     1.4243     0.1600 C.ar    
   8 C8            -2.4459     0.0410     0.2187 C.ar    
   9 O9             2.2409     0.2333    -0.7466 O.2     
  10 N10            3.4825     2.0601    -0.5112 N.am    
  11 O11           -3.6381    -0.6117     0.2521 O.3     
  12 C12            4.6331     1.3859    -0.9388 C.ar    
  13 C13           -4.0454    -1.1350     1.4372 C.ar    
  14 C14            4.5348     0.3753    -1.8854 C.ar    
  15 C15            5.8740     1.7315    -0.4205 C.ar    
  16 C16           -5.2973    -1.7318     1.5638 C.ar    
  17 C17           -3.2204    -1.0951     2.5590 C.ar    
  18 C18            5.6706    -0.2895    -2.3067 C.ar    
  19 C19            7.0087     1.0643    -0.8441 C.ar    
  20 N20           -6.3532    -1.9496     0.6811 N.am    
  21 C21           -5.6814    -2.2592     2.7970 C.ar    
  22 C22           -3.6694    -1.6380     3.7461 C.ar    
  23 C23            6.9066     0.0511    -1.7859 C.ar    
  24 C24           -7.3358    -2.5821     1.3507 C.2     
  25 N25           -6.9592    -2.7774     2.6281 N.am    
  26 N26           -4.8632    -2.1930     3.8365 N.ar    
  27 O27           -8.4036    -2.9202     0.8750 O.2     
  28 H28            1.3024     2.9300     0.4297 H       
  29 H29            3.5257     3.0049    -0.2961 H       
  30 H30           -6.3768    -1.6901    -0.2533 H       
  31 H31           -7.4894    -3.2115     3.3146 H       
  32 C32           -1.1570     3.5714     0.0738 C.ar    
  33 F33            8.2169     1.3994    -0.3408 F       
  34 C34           -1.6338     4.3205     1.1352 C.ar    
  35 C35           -1.6012     5.7100     1.0943 C.ar    
  36 C36           -1.1016     6.3714     0.0137 C.ar    
  37 C37           -0.6066     5.6502    -1.0868 C.ar    
  38 C38           -0.6273     4.2346    -1.0594 C.ar    
  39 C39           -0.0852     6.3090    -2.2138 C.ar    
  40 C40            0.3862     5.5799    -3.2621 C.ar    
  41 C41            0.3597     4.1872    -3.2358 C.ar    
  42 C42           -0.1330     3.5163    -2.1576 C.ar    
  43 F43            8.0156    -0.6006    -2.1990 F       
  44 H44            0.8742    -0.5943     0.1956 H       
  45 H45           -1.2886    -1.7607     0.2647 H       
  46 H46           -3.3404     1.9846     0.1494 H       
  47 H47            3.5707     0.1083    -2.2923 H       
  48 H48            5.9529     2.5207     0.3125 H       
  49 H49           -2.2405    -0.6449     2.5005 H       
  50 H50            5.5935    -1.0759    -3.0429 H       
  51 H51           -3.0316    -1.6083     4.6171 H       
  52 H52           -2.0356     3.8207     2.0042 H       
  53 H53           -1.9791     6.2745     1.9338 H       
  54 H54           -1.0859     7.4513     0.0020 H       
  55 H55           -0.0592     7.3882    -2.2479 H       
  56 H56            0.7863     6.0883    -4.1268 H       
  57 H57            0.7392     3.6315    -4.0806 H       
  58 H58           -0.1475     2.4364    -2.1506 H       
@<TRIPOS>BOND
   1    1    2 ar
   2    1    3 1
   3    1    4 ar
   4    2    5 ar
   5    2   44 1
   6    3   28 1
   7    3    6 am
   8    4   32 1
   9    4    7 ar
  10    5    8 ar
  11    5   45 1
  12    6    9 2
  13    6   10 am
  14    7    8 ar
  15    7   46 1
  16    8   11 1
  17   10   12 1
  18   10   29 1
  19   11   13 1
  20   12   14 ar
  21   12   15 ar
  22   13   16 ar
  23   13   17 ar
  24   14   18 ar
  25   14   47 1
  26   15   19 ar
  27   15   48 1
  28   16   20 1
  29   16   21 ar
  30   17   22 ar
  31   17   49 1
  32   18   23 ar
  33   18   50 1
  34   19   23 ar
  35   19   33 1
  36   20   30 1
  37   20   24 am
  38   21   26 ar
  39   21   25 1
  40   22   26 ar
  41   22   51 1
  42   23   43 1
  43   24   25 am
  44   24   27 2
  45   25   31 1
  46   32   34 ar
  47   32   38 ar
  48   34   35 ar
  49   34   52 1
  50   35   36 ar
  51   35   53 1
  52   36   37 ar
  53   36   54 1
  54   37   38 ar
  55   37   39 ar
  56   38   42 ar
  57   39   40 ar
  58   39   55 1
  59   40   41 ar
  60   40   56 1
  61   41   42 ar
  62   41   57 1
  63   42   58 1

#	End of record

