#	Name: ASD01911423
#	Creating user name:	WinNT
#	Creation time:	15. 06. 2019 19:57

#	Modifying user name:	WinNT
#	Modification time:	15. 06. 2019 19:57

#	Program:	/corina/corina34_cracker 3.40 0067  02.08.2006

@<TRIPOS>MOLECULE
ASD01911423
  40   42    0    0    0
SMALL
NO_CHARGES


@<TRIPOS>ATOM
   1 N1            -0.0168     1.3893     0.0097 N.am    
   2 C2             0.0021    -0.0041     0.0020 C.ar    
   3 C3             1.2165    -0.6861     0.0921 C.ar    
   4 C4             1.1883    -2.0682     0.0813 C.ar    
   5 C5            -0.0605    -2.6992    -0.0196 C.ar    
   6 N6            -1.1654    -1.9646    -0.1008 N.ar    
   7 N7            -1.1332    -0.6816    -0.0853 N.ar    
   8 C8            -0.1446    -4.1287    -0.0354 C.1     
   9 C9            -0.2136    -5.3006    -0.0485 C.1     
  10 C10           -0.2977    -6.7300    -0.0643 C.ar    
  11 C11           -1.5416    -7.3591    -0.1649 C.ar    
  12 C12            0.7752    -8.8789    -0.0010 C.ar    
  13 C13            0.8640    -7.5027     0.0148 C.ar    
  14 C14           -1.6148    -8.7362    -0.1795 C.ar    
  15 C15           -0.4605    -9.4948    -0.0950 C.ar    
  16 C16            1.2569     2.1041     0.0014 C.3     
  17 C17           -1.2004     2.0118     0.0188 C.2     
  18 O18           -1.3258     3.3475    -0.0186 O.3     
  19 C19           -0.1464     4.1349     0.3037 C.3     
  20 C20            1.0429     3.5457    -0.4686 C.3     
  21 O21           -2.2095     1.3364     0.0627 O.2     
  22 C22           -0.3648     5.5892    -0.1185 C.3     
  23 C23            0.1242     4.0679     1.8081 C.3     
  24 H24            2.1510    -0.1499     0.1677 H       
  25 H25            2.0994    -2.6443     0.1482 H       
  26 H26           -2.4433    -6.7683    -0.2305 H       
  27 H27            1.6721    -9.4773     0.0598 H       
  28 H28            1.8290    -7.0233     0.0879 H       
  29 H29           -2.5753    -9.2238    -0.2568 H       
  30 H30           -0.5239   -10.5729    -0.1069 H       
  31 H31            1.6754     2.1098     1.0078 H       
  32 H32            1.9493     1.6021    -0.6744 H       
  33 H33            1.9389     4.1325    -0.2665 H       
  34 H34            0.8289     3.5577    -1.5373 H       
  35 H35           -1.2262     5.9959     0.4113 H       
  36 H36            0.5214     6.1752     0.1250 H       
  37 H37           -0.5452     5.6325    -1.1926 H       
  38 H38            0.2909     3.0314     2.1015 H       
  39 H39            1.0087     4.6592     2.0449 H       
  40 H40           -0.7342     4.4653     2.3497 H       
@<TRIPOS>BOND
   1    1    2 1
   2    1   16 1
   3    1   17 am
   4    2    3 ar
   5    2    7 ar
   6    3    4 ar
   7    3   24 1
   8    4    5 ar
   9    4   25 1
  10    5    6 ar
  11    5    8 1
  12    6    7 ar
  13    8    9 3
  14    9   10 1
  15   10   11 ar
  16   10   13 ar
  17   11   14 ar
  18   11   26 1
  19   12   13 ar
  20   12   15 ar
  21   12   27 1
  22   13   28 1
  23   14   15 ar
  24   14   29 1
  25   15   30 1
  26   16   20 1
  27   16   31 1
  28   16   32 1
  29   17   18 1
  30   17   21 2
  31   18   19 1
  32   19   20 1
  33   19   22 1
  34   19   23 1
  35   20   33 1
  36   20   34 1
  37   22   35 1
  38   22   36 1
  39   22   37 1
  40   23   38 1
  41   23   39 1
  42   23   40 1

#	End of record

