#	Name: ASD01840345
#	Creating user name:	WinNT
#	Creation time:	15. 06. 2019 19:37

#	Modifying user name:	WinNT
#	Modification time:	15. 06. 2019 19:37

#	Program:	/corina/corina34_cracker 3.40 0067  02.08.2006

@<TRIPOS>MOLECULE
ASD01840345
  43   47    0    0    0
SMALL
NO_CHARGES


@<TRIPOS>ATOM
   1 C1            -0.1713     1.4999     0.0286 C.3     
   2 C2            -0.1345    -0.0067     0.0183 C.2     
   3 C3            -0.2850    -0.6819    -1.1429 C.2     
   4 Cl4           -0.5207     0.1845    -2.6287 Cl      
   5 C5            -0.2495    -2.0939    -1.1451 C.2     
   6 N6            -0.3657    -2.9935    -2.1088 N.2     
   7 N7            -0.2638    -4.1746    -1.6094 N.2     
   8 C8            -0.0791    -4.1057    -0.3172 C.2     
   9 N9            -0.0637    -2.7846     0.0212 N.pl3   
  10 C10            0.0948    -2.1358     1.2284 C.2     
  11 S11            0.3443    -2.7964     2.8404 S.3     
  12 C12            0.4093    -1.2015     3.5643 C.2     
  13 C13            0.6025    -0.9512     4.9433 C.2     
  14 O14            0.6342     0.1944     5.3558 O.2     
  15 N15            0.7516    -1.9805     5.8006 N.am    
  16 C16            0.9516    -1.7213     7.2286 C.3     
  17 H17            0.3918    -0.8373     7.5340 H       
  18 C18            0.5155    -2.9455     8.0613 C.3     
  19 C19            1.5270    -2.9306     9.2271 C.3     
  20 C20            2.7551    -2.2374     8.6772 C.ar    
  21 C21            4.0582    -2.2162     9.1445 C.ar    
  22 C22            5.0281    -1.5029     8.4671 C.ar    
  23 C23            4.6976    -0.8081     7.3189 C.ar    
  24 C24            3.3980    -0.8284     6.8509 C.ar    
  25 C25            2.4242    -1.5399     7.5282 C.ar    
  26 C26            0.2486    -0.2376     2.6186 C.2     
  27 N27            0.2580     1.1198     2.9136 N.pl3   
  28 C28            0.0718    -0.7516     1.2742 C.2     
  29 H29            0.7940     1.8846     0.3577 H       
  30 H30           -0.3845     1.8650    -0.9761 H       
  31 H31           -0.9499     1.8396     0.7115 H       
  32 H32            0.0391    -4.9405     0.3577 H       
  33 H33            0.7264    -2.8928     5.4721 H       
  34 H34           -0.5026    -2.8205     8.4300 H       
  35 H35            0.6082    -3.8627     7.4796 H       
  36 H36            1.1231    -2.3715    10.0711 H       
  37 H37            1.7709    -3.9491     9.5291 H       
  38 H38            4.3172    -2.7588    10.0416 H       
  39 H39            6.0436    -1.4878     8.8346 H       
  40 H40            5.4545    -0.2497     6.7882 H       
  41 H41            3.1404    -0.2850     5.9538 H       
  42 H42            0.2658     1.4152     3.8375 H       
  43 H43            0.2566     1.7721     2.1958 H       
@<TRIPOS>BOND
   1    1    2 1
   2    1   29 1
   3    1   30 1
   4    1   31 1
   5    2   28 1
   6    2    3 2
   7    3    4 1
   8    3    5 1
   9    5    9 1
  10    5    6 2
  11    6    7 1
  12    7    8 2
  13    8    9 1
  14    8   32 1
  15    9   10 1
  16   10   28 2
  17   10   11 1
  18   11   12 1
  19   12   13 1
  20   12   26 2
  21   13   14 2
  22   13   15 am
  23   15   16 1
  24   15   33 1
  25   16   17 1
  26   16   25 1
  27   16   18 1
  28   18   19 1
  29   18   34 1
  30   18   35 1
  31   19   20 1
  32   19   36 1
  33   19   37 1
  34   20   25 ar
  35   20   21 ar
  36   21   22 ar
  37   21   38 1
  38   22   23 ar
  39   22   39 1
  40   23   24 ar
  41   23   40 1
  42   24   25 ar
  43   24   41 1
  44   26   27 1
  45   26   28 1
  46   27   42 1
  47   27   43 1

#	End of record

