#	Name: ASD01903310
#	Creating user name:	WinNT
#	Creation time:	15. 06. 2019 19:54

#	Modifying user name:	WinNT
#	Modification time:	15. 06. 2019 19:54

#	Program:	/corina/corina34_cracker 3.40 0067  02.08.2006

@<TRIPOS>MOLECULE
ASD01903310
  30   33    0    0    0
SMALL
NO_CHARGES


@<TRIPOS>ATOM
   1 N1            -0.0111     0.9658     0.0074 N.pl3   
   2 H2             0.0021    -0.0041     0.0020 H       
   3 C3             1.1804     1.6756    -0.0002 C.2     
   4 C4            -1.2265     1.6457     0.0168 C.ar    
   5 N5            -1.2379     2.9691     0.0241 N.ar    
   6 C6            -2.3674     3.6519     0.0331 C.ar    
   7 C7            -3.5866     3.0052     0.0354 C.ar    
   8 C8            -3.6205     1.6167     0.0280 C.ar    
   9 C9            -2.4200     0.9269     0.0128 C.ar    
  10 S10            2.7901     0.9610    -0.0194 S.3     
  11 C11            3.5071     2.5634    -0.0108 C.2     
  12 C12            2.4986     3.4845    -0.0080 C.2     
  13 N13            1.2824     2.9691     0.0001 N.2     
  14 C14            4.9706     2.9173     0.0060 C.3     
  15 C15            5.2353     4.2372    -0.7200 C.3     
  16 C16            4.1899     5.2601    -0.3690 C.2     
  17 C17            2.8952     4.9251    -0.0431 C.2     
  18 N18            4.2757     6.5957    -0.3041 N.pl3   
  19 N19            3.0141     7.1003     0.0512 N.2     
  20 C20            2.1870     6.0917     0.2056 C.2     
  21 F21           -2.4062    -0.4240     0.0048 F       
  22 H22           -2.3371     4.7315     0.0392 H       
  23 H23           -4.5052     3.5731     0.0432 H       
  24 H24           -4.5618     1.0872     0.0299 H       
  25 H25            5.3038     3.0062     1.0400 H       
  26 H26            5.5350     2.1227    -0.4820 H       
  27 H27            6.2167     4.6142    -0.4320 H       
  28 H28            5.2203     4.0639    -1.7960 H       
  29 H29            5.0719     7.1231    -0.4734 H       
  30 H30            1.1439     6.1585     0.4775 H       
@<TRIPOS>BOND
   1    1    2 1
   2    1    3 1
   3    1    4 1
   4    3   10 1
   5    3   13 2
   6    4    5 ar
   7    4    9 ar
   8    5    6 ar
   9    6    7 ar
  10    6   22 1
  11    7    8 ar
  12    7   23 1
  13    8    9 ar
  14    8   24 1
  15    9   21 1
  16   10   11 1
  17   11   12 2
  18   11   14 1
  19   12   13 1
  20   12   17 1
  21   14   15 1
  22   14   25 1
  23   14   26 1
  24   15   16 1
  25   15   27 1
  26   15   28 1
  27   16   17 2
  28   16   18 1
  29   17   20 1
  30   18   19 1
  31   18   29 1
  32   19   20 2
  33   20   30 1

#	End of record

