#	Name: ASD01148684
#	Creating user name:	WinNT
#	Creation time:	15. 06. 2019 19:03

#	Modifying user name:	WinNT
#	Modification time:	15. 06. 2019 19:03

#	Program:	/corina/corina34_cracker 3.40 0067  02.08.2006

@<TRIPOS>MOLECULE
ASD01148684
  39   41    0    0    0
SMALL
NO_CHARGES


@<TRIPOS>ATOM
   1 C1            -0.0166     1.3766     0.0096 C.ar    
   2 C2             0.0021    -0.0041     0.0020 C.ar    
   3 C3             1.1761     2.0946     0.0021 C.ar    
   4 C4             2.3883     1.4410    -0.0130 C.ar    
   5 C5             2.4286     0.0511    -0.0208 C.ar    
   6 C6             1.2253    -0.6773    -0.0133 C.ar    
   7 N7             3.4581    -0.8663    -0.0360 N.pl3   
   8 C8             2.9489    -2.1361    -0.0382 C.2     
   9 C9             1.6074    -2.0915    -0.0249 C.2     
  10 C10            0.6714    -3.2726    -0.0221 C.3     
  11 C11            0.2417    -3.5863    -1.4566 C.3     
  12 O12           -0.6600    -4.7243    -1.4538 O.3     
  13 C13           -1.1339    -5.1321    -2.6471 C.2     
  14 C14           -2.0575    -6.2854    -2.7214 C.2     
  15 O15           -0.8029    -4.5530    -3.6619 O.2     
  16 O16           -2.4180    -6.9197    -1.5937 O.3     
  17 C17           -3.2500    -7.9678    -1.6036 C.2     
  18 C18           -3.7682    -8.4373    -2.7644 C.2     
  19 C19           -3.4167    -7.7999    -3.9836 C.2     
  20 C20           -2.5344    -6.6859    -3.9286 C.2     
  21 O21           -3.8635    -8.1945    -5.0495 O.2     
  22 O22           -4.6122    -9.5039    -2.7617 O.3     
  23 O23           -1.2050     2.0377     0.0188 O.3     
  24 C24           -1.1529     3.4657     0.0263 C.3     
  25 H25           -0.9239    -0.5599     0.0082 H       
  26 H26            1.1506     3.1743     0.0077 H       
  27 H27            3.3075     2.0080    -0.0191 H       
  28 H28            4.4024    -0.6444    -0.0442 H       
  29 H29            3.5390    -3.0406    -0.0490 H       
  30 H30            1.1801    -4.1382     0.4024 H       
  31 H31           -0.2080    -3.0379     0.5776 H       
  32 H32           -0.2669    -2.7207    -1.8810 H       
  33 H33            1.1212    -3.8211    -2.0562 H       
  34 H34           -3.5124    -8.4470    -0.6720 H       
  35 H35           -2.2419    -6.1720    -4.8324 H       
  36 H36           -4.7870    -9.8650    -1.8819 H       
  37 H37           -0.6220     3.8052     0.9157 H       
  38 H38           -0.6304     3.8149    -0.8642 H       
  39 H39           -2.1666     3.8662     0.0333 H       
@<TRIPOS>BOND
   1    1    2 ar
   2    1    3 ar
   3    1   23 1
   4    2    6 ar
   5    2   25 1
   6    3    4 ar
   7    3   26 1
   8    4    5 ar
   9    4   27 1
  10    5    6 ar
  11    5    7 1
  12    6    9 1
  13    7    8 1
  14    7   28 1
  15    8    9 2
  16    8   29 1
  17    9   10 1
  18   10   11 1
  19   10   30 1
  20   10   31 1
  21   11   12 1
  22   11   32 1
  23   11   33 1
  24   12   13 1
  25   13   14 1
  26   13   15 2
  27   14   16 1
  28   14   20 2
  29   16   17 1
  30   17   18 2
  31   17   34 1
  32   18   19 1
  33   18   22 1
  34   19   20 1
  35   19   21 2
  36   20   35 1
  37   22   36 1
  38   23   24 1
  39   24   37 1
  40   24   38 1
  41   24   39 1

#	End of record

