#	Name: ASD01881943
#	Creating user name:	WinNT
#	Creation time:	15. 06. 2019 19:43

#	Modifying user name:	WinNT
#	Modification time:	15. 06. 2019 19:43

#	Program:	/corina/corina34_cracker 3.40 0067  02.08.2006

@<TRIPOS>MOLECULE
ASD01881943
  48   52    0    0    0
SMALL
NO_CHARGES


@<TRIPOS>ATOM
   1 N1            -0.0154     1.2839     0.0091 N.pl3   
   2 N2             0.0021    -0.0041     0.0020 N.2     
   3 N3             1.2033    -0.4649    -0.0119 N.2     
   4 C4             2.0741     0.5645    -0.0147 C.ar    
   5 C5             1.2843     1.7298    -0.0009 C.ar    
   6 C6             3.4670     0.6759    -0.0271 C.ar    
   7 C7             4.0484     1.9285    -0.0255 C.ar    
   8 C8             3.2560     3.0739    -0.0118 C.ar    
   9 C9             1.8924     2.9784    -0.0004 C.ar    
  10 C10           -1.2133     2.1272     0.0196 C.3     
  11 C11           -1.6228     2.4135     1.4657 C.3     
  12 C12           -2.7884     3.3784     1.6921 C.3     
  13 C13           -2.9777     1.8797     1.9351 C.3     
  14 Br14           4.5472    -0.8761    -0.0451 Br      
  15 O15            5.4033     2.0444    -0.0370 O.3     
  16 C16            5.9411     3.3683    -0.0346 C.3     
  17 C17            9.5640     3.8529    -0.0649 C.2     
  18 N18            9.4883     2.5502    -0.0715 N.2     
  19 C19            8.1985     2.1820    -0.0617 C.2     
  20 C20            7.4465     3.2990    -0.0485 C.2     
  21 N21            8.3121     4.3593    -0.0505 N.pl3   
  22 C22            7.9485     5.7784    -0.0392 C.3     
  23 C23            7.7176     6.2265     1.3810 C.ar    
  24 C24            8.7678     6.7275     2.1272 C.ar    
  25 C25            8.5560     7.1384     3.4299 C.ar    
  26 C26            7.2937     7.0488     3.9863 C.ar    
  27 C27            6.2432     6.5486     3.2399 C.ar    
  28 C28            6.4542     6.1417     1.9357 C.ar    
  29 H29            3.7236     4.0474    -0.0103 H       
  30 H30            1.2882     3.8735     0.0104 H       
  31 H31           -1.0007     3.0667    -0.4906 H       
  32 H32           -2.0254     1.6113    -0.4926 H       
  33 H33           -0.8089     2.4286     2.1906 H       
  34 H34           -2.7416     4.0280     2.5661 H       
  35 H35           -3.2635     3.8093     0.8107 H       
  36 H36           -3.5773     1.3246     1.2137 H       
  37 H37           -3.0553     1.5434     2.9690 H       
  38 H38            5.5939     3.9031    -0.9187 H       
  39 H39            5.6098     3.8935     0.8612 H       
  40 H40           10.4766     4.4304    -0.0661 H       
  41 H41            7.8281     1.1675    -0.0643 H       
  42 H42            8.7564     6.3640    -0.4781 H       
  43 H43            7.0372     5.9246    -0.6191 H       
  44 H44            9.7540     6.7975     1.6925 H       
  45 H45            9.3767     7.5292     4.0132 H       
  46 H46            7.1283     7.3692     5.0044 H       
  47 H47            5.2571     6.4783     3.6747 H       
  48 H48            5.6327     5.7544     1.3513 H       
@<TRIPOS>BOND
   1    1    2 1
   2    1    5 1
   3    1   10 1
   4    2    3 2
   5    3    4 1
   6    4    5 ar
   7    4    6 ar
   8    5    9 ar
   9    6    7 ar
  10    6   14 1
  11    7    8 ar
  12    7   15 1
  13    8    9 ar
  14    8   29 1
  15    9   30 1
  16   10   11 1
  17   10   31 1
  18   10   32 1
  19   11   12 1
  20   11   13 1
  21   11   33 1
  22   12   13 1
  23   12   34 1
  24   12   35 1
  25   13   36 1
  26   13   37 1
  27   15   16 1
  28   16   20 1
  29   16   38 1
  30   16   39 1
  31   17   18 2
  32   17   21 1
  33   17   40 1
  34   18   19 1
  35   19   20 2
  36   19   41 1
  37   20   21 1
  38   21   22 1
  39   22   23 1
  40   22   42 1
  41   22   43 1
  42   23   24 ar
  43   23   28 ar
  44   24   25 ar
  45   24   44 1
  46   25   26 ar
  47   25   45 1
  48   26   27 ar
  49   26   46 1
  50   27   28 ar
  51   27   47 1
  52   28   48 1

#	End of record

