#	Name: ASD09116223
#	Creating user name:	WinNT
#	Creation time:	15. 06. 2019 21:21

#	Modifying user name:	WinNT
#	Modification time:	15. 06. 2019 21:21

#	Program:	/corina/corina34_cracker 3.40 0067  02.08.2006

@<TRIPOS>MOLECULE
ASD09116223
  78   84    0    0    0
SMALL
NO_CHARGES


@<TRIPOS>ATOM
   1 N1            -0.5639     3.8823     0.5389 N.2     
   2 N2            -1.1113     5.0493     1.0960 N.pl3   
   3 C3             0.7354     4.0543     0.4904 C.2     
   4 N4             1.0343     5.2614     0.9849 N.2     
   5 C5            -0.0697     5.8744     1.3548 C.2     
   6 N6             1.6572     3.1282     0.0026 N.pl3   
   7 C7             3.0104     3.4749    -0.1011 C.ar    
   8 C8             3.9937     2.5014    -0.0074 C.ar    
   9 C9             5.6625     4.0705    -0.2923 C.ar    
  10 C10            4.7326     5.0986    -0.4019 C.ar    
  11 C11            3.3851     4.8019    -0.3056 C.ar    
  12 C12           -2.4623     5.3077     1.3350 C.ar    
  13 N13           -2.8151     6.1737     2.2733 N.ar    
  14 N14           -4.0442     6.4399     2.5397 N.ar    
  15 C15           -5.0373     5.8579     1.8868 C.ar    
  16 C16           -4.7602     4.9456     0.8647 C.ar    
  17 C17           -3.4421     4.6572     0.5807 C.ar    
  18 C18           -6.4544     6.1219     2.2282 C.ar    
  19 C19           -7.3146     5.0399     2.4214 C.ar    
  20 C20           -6.7708     3.6402     2.3338 C.3     
  21 C21           -6.5558     3.2162     0.8834 C.3     
  22 C22           -5.8885     4.3339     0.0864 C.3     
  23 C23           -6.9325     7.4217     2.3527 C.ar    
  24 C24           -8.2648     7.6345     2.6494 C.ar    
  25 C25           -9.1185     6.5598     2.8196 C.ar    
  26 C26           -8.6447     5.2643     2.7049 C.ar    
  27 N27           -0.1516     7.1377     1.9088 N.pl3   
  28 N28            5.2704     2.8205    -0.1037 N.ar    
  29 N29            7.0219     4.3587    -0.3884 N.3     
  30 C30            7.8294     3.1404    -0.2466 C.3     
  31 C31            7.4155     5.3742     0.5966 C.3     
  32 C32            8.8757     5.7707     0.3669 C.3     
  33 C33            9.7635     4.5306     0.5019 C.3     
  34 C34            9.3019     3.4702    -0.5016 C.3     
  35 N35           11.1597     4.8938     0.2249 N.3     
  36 C36           12.0571     3.7543     0.4607 C.3     
  37 C37           11.5695     6.0574     1.0235 C.3     
  38 C38           13.0000     6.4518     0.6485 C.3     
  39 N39           13.8975     5.3123     0.8844 N.3     
  40 C40           13.4876     4.1488     0.0857 C.3     
  41 C41           15.2936     5.6756     0.6073 C.3     
  42 H42            1.3612     2.2440    -0.2648 H       
  43 H43            3.7113     1.4704     0.1465 H       
  44 H44            5.0584     6.1160    -0.5599 H       
  45 H45            2.6407     5.5801    -0.3872 H       
  46 H46           -3.1771     3.9489    -0.1903 H       
  47 H47           -5.8194     3.5935     2.8637 H       
  48 H48           -7.4743     2.9541     2.8053 H       
  49 H49           -5.9216     2.3300     0.8589 H       
  50 H50           -7.5194     2.9796     0.4322 H       
  51 H51           -6.6269     5.1033    -0.1392 H       
  52 H52           -5.5005     3.9260    -0.8470 H       
  53 H53           -6.2656     8.2605     2.2185 H       
  54 H54           -8.6404     8.6422     2.7490 H       
  55 H55          -10.1609     6.7323     3.0434 H       
  56 H56           -9.3169     4.4296     2.8378 H       
  57 H57            0.6551     7.6557     2.0566 H       
  58 H58           -1.0157     7.5065     2.1499 H       
  59 H59            7.7154     2.7444     0.7625 H       
  60 H60            7.4937     2.3961    -0.9687 H       
  61 H61            6.7791     6.2523     0.4870 H       
  62 H62            7.3034     4.9678     1.6018 H       
  63 H63            8.9858     6.1899    -0.6332 H       
  64 H64            9.1721     6.5130     1.1079 H       
  65 H65            9.6834     4.1337     1.5140 H       
  66 H66            9.9029     2.5689    -0.3810 H       
  67 H67            9.4188     3.8533    -1.5154 H       
  68 H68           12.0211     3.4749     1.5137 H       
  69 H69           11.7407     2.9095    -0.1510 H       
  70 H70           10.8976     6.8916     0.8221 H       
  71 H71           11.5280     5.8042     2.0829 H       
  72 H72           13.0360     6.7312    -0.4044 H       
  73 H73           13.3165     7.2967     1.2603 H       
  74 H74           14.1596     3.3145     0.2872 H       
  75 H75           13.5291     4.4020    -0.9736 H       
  76 H76           15.5918     6.4962     1.2598 H       
  77 H77           15.9362     4.8143     0.7899 H       
  78 H78           15.3887     5.9858    -0.4333 H       
@<TRIPOS>BOND
   1    1    2 1
   2    1    3 2
   3    2   12 1
   4    2    5 1
   5    3    4 1
   6    3    6 1
   7    4    5 2
   8    5   27 1
   9    6    7 1
  10    6   42 1
  11    7    8 ar
  12    7   11 ar
  13    8   28 ar
  14    8   43 1
  15    9   10 ar
  16    9   29 1
  17    9   28 ar
  18   10   11 ar
  19   10   44 1
  20   11   45 1
  21   12   13 ar
  22   12   17 ar
  23   13   14 ar
  24   14   15 ar
  25   15   16 ar
  26   15   18 1
  27   16   17 ar
  28   16   22 1
  29   17   46 1
  30   18   19 ar
  31   18   23 ar
  32   19   20 1
  33   19   26 ar
  34   20   21 1
  35   20   47 1
  36   20   48 1
  37   21   22 1
  38   21   49 1
  39   21   50 1
  40   22   51 1
  41   22   52 1
  42   23   24 ar
  43   23   53 1
  44   24   25 ar
  45   24   54 1
  46   25   26 ar
  47   25   55 1
  48   26   56 1
  49   27   57 1
  50   27   58 1
  51   29   30 1
  52   29   31 1
  53   30   34 1
  54   30   59 1
  55   30   60 1
  56   31   32 1
  57   31   61 1
  58   31   62 1
  59   32   33 1
  60   32   63 1
  61   32   64 1
  62   33   34 1
  63   33   35 1
  64   33   65 1
  65   34   66 1
  66   34   67 1
  67   35   36 1
  68   35   37 1
  69   36   40 1
  70   36   68 1
  71   36   69 1
  72   37   38 1
  73   37   70 1
  74   37   71 1
  75   38   39 1
  76   38   72 1
  77   38   73 1
  78   39   40 1
  79   39   41 1
  80   40   74 1
  81   40   75 1
  82   41   76 1
  83   41   77 1
  84   41   78 1

#	End of record

