#	Name: ASD01912324
#	Creating user name:	WinNT
#	Creation time:	15. 06. 2019 19:59

#	Modifying user name:	WinNT
#	Modification time:	15. 06. 2019 19:59

#	Program:	/corina/corina34_cracker 3.40 0067  02.08.2006

@<TRIPOS>MOLECULE
ASD01912324
  51   54    0    0    0
SMALL
NO_CHARGES


@<TRIPOS>ATOM
   1 C1            -0.0162     1.3410     0.0094 C.2     
   2 N2             0.0021    -0.0041     0.0020 N.am    
   3 C3             1.2637    -0.4708    -0.0125 C.2     
   4 C4             2.1916     0.6799    -0.0152 C.ar    
   5 C5             3.5709     0.8108    -0.0273 C.ar    
   6 C6             4.1413     2.0742    -0.0256 C.ar    
   7 C7             3.3438     3.2031    -0.0119 C.ar    
   8 C8             1.9626     3.0875     0.0003 C.ar    
   9 C9             1.3783     1.8310    -0.0013 C.ar    
  10 O10           -1.0118     2.0364     0.0181 O.2     
  11 O11            1.5863    -1.6416    -0.0213 O.2     
  12 C12           -1.1944    -0.8494     0.0093 C.3     
  13 C13           -1.6188    -1.1316    -1.4089 C.2     
  14 O14           -0.9843    -0.6719    -2.3346 O.2     
  15 N15           -2.7035    -1.8948    -1.6485 N.am    
  16 C16           -3.1245    -2.1752    -3.0272 C.3     
  17 C17           -3.1533    -3.6947    -3.2353 C.3     
  18 C18           -3.9266    -4.3190    -2.0946 C.2     
  19 C19           -3.5159    -3.9824    -0.6779 C.3     
  20 C20           -3.4744    -2.4607    -0.5340 C.3     
  21 C21           -4.9449    -5.1448    -2.3318 C.2     
  22 C22           -5.6650    -5.7260    -1.2390 C.1     
  23 C23           -6.2553    -6.2025    -0.3431 C.1     
  24 C24           -6.9754    -6.7838     0.7497 C.ar    
  25 C25           -8.0431    -7.6496     0.4953 C.ar    
  26 C26           -8.7278    -8.2022     1.5618 C.ar    
  27 C27           -8.3263    -7.8740     2.8501 C.ar    
  28 C28           -7.2613    -7.0105     3.0311 C.ar    
  29 N29           -6.6204    -6.5004     1.9997 N.ar    
  30 C30           -6.8240    -6.6531     4.4282 C.3     
  31 H31            4.1990    -0.0677    -0.0376 H       
  32 H32            5.2164     2.1772    -0.0346 H       
  33 H33            3.8001     4.1820    -0.0103 H       
  34 H34            1.3444     3.9730     0.0113 H       
  35 H35           -0.9726    -1.7886     0.5160 H       
  36 H36           -1.9995    -0.3349     0.5340 H       
  37 H37           -4.1199    -1.7643    -3.1960 H       
  38 H38           -2.4178    -1.7243    -3.7239 H       
  39 H39           -3.6434    -3.9263    -4.1810 H       
  40 H40           -2.1350    -4.0833    -3.2443 H       
  41 H41           -4.2393    -4.3992     0.0228 H       
  42 H42           -2.5276    -4.3948    -0.4746 H       
  43 H43           -2.9981    -2.1977     0.4105 H       
  44 H44           -4.4905    -2.0667    -0.5553 H       
  45 H45           -5.2273    -5.3758    -3.3484 H       
  46 H46           -8.3291    -7.8831    -0.5196 H       
  47 H47           -9.5570    -8.8742     1.3967 H       
  48 H48           -8.8416    -8.2894     3.7035 H       
  49 H49           -6.0715    -7.3653     4.7668 H       
  50 H50           -6.4007    -5.6486     4.4306 H       
  51 H51           -7.6834    -6.6868     5.0978 H       
@<TRIPOS>BOND
   1    1    2 am
   2    1    9 1
   3    1   10 2
   4    2    3 am
   5    2   12 1
   6    3    4 1
   7    3   11 2
   8    4    5 ar
   9    4    9 ar
  10    5    6 ar
  11    5   31 1
  12    6    7 ar
  13    6   32 1
  14    7    8 ar
  15    7   33 1
  16    8    9 ar
  17    8   34 1
  18   12   13 1
  19   12   35 1
  20   12   36 1
  21   13   14 2
  22   13   15 am
  23   15   16 1
  24   15   20 1
  25   16   17 1
  26   16   37 1
  27   16   38 1
  28   17   18 1
  29   17   39 1
  30   17   40 1
  31   18   19 1
  32   18   21 2
  33   19   20 1
  34   19   41 1
  35   19   42 1
  36   20   43 1
  37   20   44 1
  38   21   22 1
  39   21   45 1
  40   22   23 3
  41   23   24 1
  42   24   25 ar
  43   24   29 ar
  44   25   26 ar
  45   25   46 1
  46   26   27 ar
  47   26   47 1
  48   27   28 ar
  49   27   48 1
  50   28   29 ar
  51   28   30 1
  52   30   49 1
  53   30   50 1
  54   30   51 1

#	End of record

