#	Name: ASD09740124
#	Creating user name:	WinNT
#	Creation time:	15. 06. 2019 21:22

#	Modifying user name:	WinNT
#	Modification time:	15. 06. 2019 21:22

#	Program:	/corina/corina34_cracker 3.40 0067  02.08.2006

@<TRIPOS>MOLECULE
ASD09740124
  39   42    0    0    0
SMALL
NO_CHARGES


@<TRIPOS>ATOM
   1 N1             0.3405     1.3646     0.0354 N.2     
   2 O2             0.2654     0.1555     0.0915 O.3     
   3 C3             1.5820     1.7353    -0.1473 C.2     
   4 N4             2.3323     0.6155    -0.2068 N.2     
   5 C5             1.4853    -0.3855    -0.0538 C.2     
   6 C6             1.8165    -1.8251    -0.0438 C.ar    
   7 C7             2.0741     3.1306    -0.2678 C.ar    
   8 C8             3.4292     3.3890    -0.4622 C.ar    
   9 N9             3.8672     4.6265    -0.5692 N.ar    
  10 C10            3.0528     5.6619    -0.4980 C.ar    
  11 C11            1.6945     5.4883    -0.3060 C.ar    
  12 C12            1.1849     4.2057    -0.1939 C.ar    
  13 C13            0.8057    -2.7738     0.1295 C.ar    
  14 C14            2.4382    -4.5271    -0.0260 C.ar    
  15 C15            3.4474    -3.5810    -0.2043 C.ar    
  16 C16            3.1397    -2.2389    -0.2133 C.ar    
  17 C17            1.1154    -4.1150     0.1382 C.ar    
  18 C18            2.7706    -5.9722    -0.0169 C.ar    
  19 C19            2.1776    -6.8323    -0.9398 C.ar    
  20 C20            3.6816    -6.4747     0.9108 C.ar    
  21 C21            3.9874    -7.8204     0.9142 C.ar    
  22 C22            3.3922    -8.6700    -0.0009 C.ar    
  23 C23            2.4911    -8.1761    -0.9270 C.ar    
  24 C24            0.0253    -5.1386     0.3255 C.3     
  25 F25           -1.1786    -4.4893     0.6190 F       
  26 F26           -0.1212    -5.8842    -0.8492 F       
  27 F27            0.3639    -5.9925     1.3807 F       
  28 H28            4.1269     2.5670    -0.5253 H       
  29 H29            3.4532     6.6606    -0.5908 H       
  30 H30            1.0376     6.3436    -0.2491 H       
  31 H31            0.1282     4.0410    -0.0439 H       
  32 H32           -0.2183    -2.4550     0.2569 H       
  33 H33            4.4705    -3.9012    -0.3350 H       
  34 H34            3.9213    -1.5065    -0.3517 H       
  35 H35            1.4739    -6.4477    -1.6633 H       
  36 H36            4.1474    -5.8122     1.6253 H       
  37 H37            4.6931    -8.2109     1.6325 H       
  38 H38            3.6349    -9.7224     0.0052 H       
  39 H39            2.0295    -8.8441    -1.6391 H       
@<TRIPOS>BOND
   1    1    2 1
   2    1    3 2
   3    2    5 1
   4    3    4 1
   5    3    7 1
   6    4    5 2
   7    5    6 1
   8    6   13 ar
   9    6   16 ar
  10    7    8 ar
  11    7   12 ar
  12    8    9 ar
  13    8   28 1
  14    9   10 ar
  15   10   11 ar
  16   10   29 1
  17   11   12 ar
  18   11   30 1
  19   12   31 1
  20   13   17 ar
  21   13   32 1
  22   14   15 ar
  23   14   18 1
  24   14   17 ar
  25   15   16 ar
  26   15   33 1
  27   16   34 1
  28   17   24 1
  29   18   19 ar
  30   18   20 ar
  31   19   23 ar
  32   19   35 1
  33   20   21 ar
  34   20   36 1
  35   21   22 ar
  36   21   37 1
  37   22   23 ar
  38   22   38 1
  39   23   39 1
  40   24   25 1
  41   24   26 1
  42   24   27 1

#	End of record

