#	Name: ASD03331488
#	Creating user name:	WinNT
#	Creation time:	15. 06. 2019 20:39

#	Modifying user name:	WinNT
#	Modification time:	15. 06. 2019 20:39

#	Program:	/corina/corina34_cracker 3.40 0067  02.08.2006

@<TRIPOS>MOLECULE
ASD03331488
  63   65    0    0    0
SMALL
NO_CHARGES


@<TRIPOS>ATOM
   1 C1             1.6984     0.7001     0.6047 C.3     
   2 C2             1.3077    -0.7458     0.4385 C.2     
   3 N3             1.1648    -1.6414     1.4397 N.pl3   
   4 C4             0.8083    -2.8294     0.8848 C.2     
   5 C5             0.7356    -2.6388    -0.4546 C.2     
   6 N6             1.0466    -1.3361    -0.6958 N.2     
   7 C7             0.3804    -3.6527    -1.4628 C.2     
   8 N8             0.3472    -3.3216    -2.7688 N.am    
   9 C9             3.1986     0.8260     0.5372 C.ar    
  10 C10            1.3412    -1.4443     2.8817 C.3     
  11 C11            0.6715    -2.6159     3.6111 C.3     
  12 N12            1.1223    -3.8878     3.0289 N.3     
  13 C13            0.5597    -4.0844     1.6806 C.3     
  14 C14            3.8204     1.0380    -0.6791 C.ar    
  15 C15            5.1965     1.1534    -0.7411 C.ar    
  16 C16            0.7891    -5.0166     3.9081 C.3     
  17 C17            1.0472    -2.5736     5.0937 C.3     
  18 O18            0.1172    -4.7885    -1.1164 O.2     
  19 C19           -0.0060    -4.3298    -3.7713 C.3     
  20 C20            0.5944    -3.9488    -5.1000 C.2     
  21 C21           -1.5284    -4.4067    -3.9028 C.3     
  22 C22            3.9526     0.7352     1.6923 C.ar    
  23 C23            5.3287     0.8507     1.6303 C.ar    
  24 C24            5.9508     1.0574     0.4133 C.ar    
  25 C25           -2.0722    -3.0444    -4.3378 C.3     
  26 C26           -1.8973    -5.4607    -4.9488 C.3     
  27 C27           -2.1381    -4.7921    -2.5535 C.3     
  28 O28            0.9422    -2.8047    -5.3026 O.2     
  29 N29            0.7449    -4.8795    -6.0632 N.am    
  30 C30            1.2471    -4.4923    -7.3838 C.3     
  31 H31            1.2479     1.2921    -0.1919 H       
  32 H32            1.3465     1.0628     1.5705 H       
  33 H33            0.5571    -2.4157    -3.0450 H       
  34 H34            2.4040    -1.4205     3.1224 H       
  35 H35            0.8740    -0.5072     3.1846 H       
  36 H36           -0.4108    -2.5346     3.5102 H       
  37 H37           -0.5122    -4.2693     1.7520 H       
  38 H38            1.0487    -4.9301     1.1971 H       
  39 H39            3.2310     1.1130    -1.5810 H       
  40 H40            5.6823     1.3183    -1.6915 H       
  41 H41           -0.2907    -5.0603     4.0498 H       
  42 H42            1.1338    -5.9453     3.4534 H       
  43 H43            1.2771    -4.8816     4.8734 H       
  44 H44            0.7080    -1.6331     5.5278 H       
  45 H45            0.5718    -3.4058     5.6128 H       
  46 H46            2.1295    -2.6518     5.1966 H       
  47 H47            0.3815    -5.3006    -3.4624 H       
  48 H48            3.4664     0.5744     2.6432 H       
  49 H49            5.9177     0.7801     2.5328 H       
  50 H50            7.0260     1.1477     0.3649 H       
  51 H51           -1.6379    -2.7699    -5.2991 H       
  52 H52           -3.1568    -3.0993    -4.4315 H       
  53 H53           -1.8095    -2.2936    -3.5926 H       
  54 H54           -1.5228    -6.4340    -4.6316 H       
  55 H55           -2.9813    -5.5050    -5.0533 H       
  56 H56           -1.4505    -5.1940    -5.9066 H       
  57 H57           -1.8753    -4.0413    -1.8084 H       
  58 H58           -3.2226    -4.8470    -2.6472 H       
  59 H59           -1.7506    -5.7627    -2.2437 H       
  60 H60            0.5206    -5.8057    -5.8819 H       
  61 H61            0.5733    -3.7599    -7.8283 H       
  62 H62            2.2409    -4.0566    -7.2812 H       
  63 H63            1.3007    -5.3725    -8.0245 H       
@<TRIPOS>BOND
   1    1    2 1
   2    1    9 1
   3    1   31 1
   4    1   32 1
   5    2    3 1
   6    2    6 2
   7    3    4 1
   8    3   10 1
   9    4    5 2
  10    4   13 1
  11    5    6 1
  12    5    7 1
  13    7    8 am
  14    7   18 2
  15    8   19 1
  16    8   33 1
  17    9   14 ar
  18    9   22 ar
  19   10   11 1
  20   10   34 1
  21   10   35 1
  22   11   12 1
  23   11   17 1
  24   11   36 1
  25   12   13 1
  26   12   16 1
  27   13   37 1
  28   13   38 1
  29   14   15 ar
  30   14   39 1
  31   15   24 ar
  32   15   40 1
  33   16   41 1
  34   16   42 1
  35   16   43 1
  36   17   44 1
  37   17   45 1
  38   17   46 1
  39   19   20 1
  40   19   21 1
  41   19   47 1
  42   20   28 2
  43   20   29 am
  44   21   25 1
  45   21   26 1
  46   21   27 1
  47   22   23 ar
  48   22   48 1
  49   23   24 ar
  50   23   49 1
  51   24   50 1
  52   25   51 1
  53   25   52 1
  54   25   53 1
  55   26   54 1
  56   26   55 1
  57   26   56 1
  58   27   57 1
  59   27   58 1
  60   27   59 1
  61   29   30 1
  62   29   60 1
  63   30   61 1
  64   30   62 1
  65   30   63 1

#	End of record

