#	Name: ASD01883115
#	Creating user name:	WinNT
#	Creation time:	15. 06. 2019 19:45

#	Modifying user name:	WinNT
#	Modification time:	15. 06. 2019 19:45

#	Program:	/corina/corina34_cracker 3.40 0067  02.08.2006

@<TRIPOS>MOLECULE
ASD01883115
  48   50    0    0    0
SMALL
NO_CHARGES


@<TRIPOS>ATOM
   1 N1            -1.6080     3.6102     0.4581 N.am    
   2 C2            -1.0016     2.4482     0.1522 C.2     
   3 C3            -1.7702     1.2659     0.0098 C.2     
   4 C4            -3.1612     1.3394     0.1940 C.2     
   5 C5            -3.7363     2.5844     0.5127 C.2     
   6 C6            -2.9513     3.6788     0.6409 C.2     
   7 O7             0.2072     2.4128    -0.0026 O.2     
   8 C8            -1.1415     0.0212    -0.3158 C.1     
   9 N9            -0.6428    -0.9663    -0.5741 N.1     
  10 C10           -0.8012     4.8244     0.6027 C.3     
  11 C11           -0.6910     5.5278    -0.7515 C.3     
  12 C12            0.1516     6.7959    -0.6005 C.3     
  13 C13            0.2618     7.4993    -1.9547 C.3     
  14 C14           -4.0051     0.1322     0.0553 C.ar    
  15 C15           -3.8600    -0.9301     0.9490 C.ar    
  16 C16           -4.6488    -2.0548     0.8168 C.ar    
  17 C17           -5.5834    -2.1334    -0.1988 C.ar    
  18 C18           -5.7346    -1.0815    -1.0931 C.ar    
  19 C19           -4.9526     0.0540    -0.9657 C.ar    
  20 O20           -6.6546    -1.1643    -2.0899 O.3     
  21 C21           -6.2550    -1.6669    -3.2857 C.ar    
  22 C22           -7.1152    -1.6736    -4.3809 C.ar    
  23 C23           -6.6710    -2.1930    -5.5797 C.ar    
  24 N24           -5.4497    -2.6790    -5.6948 N.ar    
  25 C25           -4.6057    -2.6903    -4.6803 C.ar    
  26 C26           -4.9719    -2.1840    -3.4504 C.ar    
  27 C27           -8.5121    -1.1216    -4.2584 C.3     
  28 F28           -9.1706    -1.2422    -5.4869 F       
  29 F29           -9.2124    -1.8376    -3.2817 F       
  30 F30           -8.4501     0.2274    -3.8930 F       
  31 H31           -4.8034     2.6650     0.6588 H       
  32 H32           -3.4038     4.6284     0.8856 H       
  33 H33           -1.2756     5.4924     1.3216 H       
  34 H34            0.1950     4.5587     0.9563 H       
  35 H35           -0.2166     4.8598    -1.4704 H       
  36 H36           -1.6873     5.7935    -1.1050 H       
  37 H37           -0.3228     7.4639     0.1184 H       
  38 H38            1.1479     6.5301    -0.2470 H       
  39 H39            0.7363     6.8312    -2.6736 H       
  40 H40           -0.7344     7.7650    -2.3083 H       
  41 H41            0.8621     8.4027    -1.8471 H       
  42 H42           -3.1306    -0.8721     1.7434 H       
  43 H43           -4.5353    -2.8762     1.5087 H       
  44 H44           -6.1979    -3.0160    -0.2974 H       
  45 H45           -5.0691     0.8727    -1.6604 H       
  46 H46           -7.3314    -2.2022    -6.4342 H       
  47 H47           -3.6146    -3.0974    -4.8156 H       
  48 H48           -4.2763    -2.1959    -2.6244 H       
@<TRIPOS>BOND
   1    1    2 am
   2    1   10 1
   3    1    6 1
   4    2    3 1
   5    2    7 2
   6    3    4 2
   7    3    8 1
   8    4    5 1
   9    4   14 1
  10    5    6 2
  11    5   31 1
  12    6   32 1
  13    8    9 3
  14   10   11 1
  15   10   33 1
  16   10   34 1
  17   11   12 1
  18   11   35 1
  19   11   36 1
  20   12   13 1
  21   12   37 1
  22   12   38 1
  23   13   39 1
  24   13   40 1
  25   13   41 1
  26   14   15 ar
  27   14   19 ar
  28   15   16 ar
  29   15   42 1
  30   16   17 ar
  31   16   43 1
  32   17   18 ar
  33   17   44 1
  34   18   19 ar
  35   18   20 1
  36   19   45 1
  37   20   21 1
  38   21   22 ar
  39   21   26 ar
  40   22   23 ar
  41   22   27 1
  42   23   24 ar
  43   23   46 1
  44   24   25 ar
  45   25   26 ar
  46   25   47 1
  47   26   48 1
  48   27   28 1
  49   27   29 1
  50   27   30 1

#	End of record

