#	Name: ASD01120289
#	Creating user name:	WinNT
#	Creation time:	15. 06. 2019 18:59

#	Modifying user name:	WinNT
#	Modification time:	15. 06. 2019 18:59

#	Program:	/corina/corina34_cracker 3.40 0067  02.08.2006

@<TRIPOS>MOLECULE
ASD01120289
  42   44    0    0    0
SMALL
NO_CHARGES


@<TRIPOS>ATOM
   1 C1            -0.7333     1.2396     0.0279 C.3     
   2 C2            -0.3270    -0.2329     0.1137 C.3     
   3 O3             0.1345    -0.6843    -1.1869 O.3     
   4 C4             0.5326    -1.9694    -1.2832 C.2     
   5 O5             0.4947    -2.6925    -0.3063 O.2     
   6 C6             1.0113    -2.4947    -2.5665 C.2     
   7 N7             1.1021    -1.7755    -3.7451 N.pl3   
   8 C8             1.5929    -2.6013    -4.7293 C.ar    
   9 C9             1.8125    -3.8649    -4.1479 C.ar    
  10 C10            1.4430    -3.7661    -2.7879 C.2     
  11 C11            2.3183    -4.9154    -4.9374 C.ar    
  12 C12            2.5932    -4.6925    -6.2744 C.ar    
  13 C13            2.3736    -3.4439    -6.8369 C.ar    
  14 C14            1.8789    -2.4061    -6.0775 C.ar    
  15 N15            1.6512    -1.0808    -6.6967 N.pl3   
  16 O16            1.9011    -0.9087    -7.8763 O.2     
  17 O17            1.2139    -0.1626    -6.0266 O.2     
  18 N18            2.5408    -6.1698    -4.3758 N.pl3   
  19 C19            2.8922    -7.2480    -5.1916 C.ar    
  20 C20            3.8857    -8.1314    -4.7883 C.ar    
  21 C21            4.2303    -9.1965    -5.5970 C.ar    
  22 C22            3.5875    -9.3842    -6.8070 C.ar    
  23 C23            2.5981    -8.5068    -7.2115 C.ar    
  24 C24            2.2449    -7.4427    -6.4054 C.ar    
  25 C25            3.9666   -10.5474    -7.6871 C.3     
  26 F26            3.1768   -11.6553    -7.3615 F       
  27 F27            3.7595   -10.2048    -9.0276 F       
  28 F28            5.3154   -10.8618    -7.4891 F       
  29 H29            0.1255     1.8361    -0.2800 H       
  30 H30           -1.5350     1.3534    -0.7018 H       
  31 H31           -1.0798     1.5785     1.0042 H       
  32 H32            0.4747    -0.3467     0.8434 H       
  33 H33           -1.1858    -0.8294     0.4216 H       
  34 H34            0.8594    -0.8432    -3.8584 H       
  35 H35            1.4893    -4.5592    -2.0563 H       
  36 H36            2.9813    -5.4953    -6.8838 H       
  37 H37            2.5928    -3.2833    -7.8821 H       
  38 H38            2.4517    -6.2951    -3.4180 H       
  39 H39            4.3883    -7.9851    -3.8436 H       
  40 H40            5.0028    -9.8833    -5.2843 H       
  41 H41            2.0981    -8.6564    -8.1571 H       
  42 H42            1.4721    -6.7578    -6.7219 H       
@<TRIPOS>BOND
   1    1    2 1
   2    1   29 1
   3    1   30 1
   4    1   31 1
   5    2    3 1
   6    2   32 1
   7    2   33 1
   8    3    4 1
   9    4    5 2
  10    4    6 1
  11    6    7 1
  12    6   10 2
  13    7    8 1
  14    7   34 1
  15    8    9 ar
  16    8   14 ar
  17    9   10 1
  18    9   11 ar
  19   10   35 1
  20   11   12 ar
  21   11   18 1
  22   12   13 ar
  23   12   36 1
  24   13   14 ar
  25   13   37 1
  26   14   15 1
  27   15   16 2
  28   15   17 2
  29   18   19 1
  30   18   38 1
  31   19   20 ar
  32   19   24 ar
  33   20   21 ar
  34   20   39 1
  35   21   22 ar
  36   21   40 1
  37   22   23 ar
  38   22   25 1
  39   23   24 ar
  40   23   41 1
  41   24   42 1
  42   25   26 1
  43   25   27 1
  44   25   28 1

#	End of record

