#	Name: ASD00520003
#	Creating user name:	WinNT
#	Creation time:	15. 06. 2019 18:36

#	Modifying user name:	WinNT
#	Modification time:	15. 06. 2019 18:36

#	Program:	/corina/corina34_cracker 3.40 0067  02.08.2006

@<TRIPOS>MOLECULE
ASD00520003
  30   32    0    0    0
SMALL
NO_CHARGES


@<TRIPOS>ATOM
   1 C1            -0.0184     1.5028     0.0103 C.3     
   2 C2             0.0021    -0.0041     0.0020 C.2     
   3 N3             0.0215    -0.7166     1.0312 N.3     
   4 Cu4           -0.8992    -2.0135     0.6608 Du      
   5 N5            -0.7673    -2.0732    -0.9226 N.pl3   
   6 C6            -0.0048    -0.8469    -1.2437 C.3     
   7 C7            -1.2557    -2.9414    -1.8618 C.2     
   8 C8            -1.6126    -2.3690    -3.0393 C.2     
   9 C9            -1.4811    -0.9158    -3.1965 C.2     
  10 C10           -0.7426    -0.1780    -2.3769 C.2     
  11 N11            1.2642    -1.2203     1.2414 N.am    
  12 C12            1.4959    -2.4907     1.5452 C.2     
  13 S13            0.2186    -3.3903     1.4082 S.o     
  14 S14            3.0702    -3.1020     2.0478 S.3     
  15 C15            2.7557    -4.8684     2.3151 C.3     
  16 Cl16          -2.6461    -1.9632     1.2976 Cl      
  17 H17            1.0042     1.8801     0.0026 H       
  18 H18           -0.5455     1.8639    -0.8728 H       
  19 H19           -0.5286     1.8543     0.9071 H       
  20 H20           -0.3338    -0.2214     1.8353 H       
  21 H21            1.0160    -1.0969    -1.5328 H       
  22 H22           -1.3500    -4.0017    -1.6793 H       
  23 H23           -1.9883    -2.9752    -3.8504 H       
  24 H24           -2.0074    -0.4293    -4.0044 H       
  25 H25           -0.6647     0.8894    -2.5223 H       
  26 H26            2.0225    -0.6202     1.1653 H       
  27 H27           -0.2228    -3.4839     2.6753 H       
  28 H28            1.9940    -4.9894     3.0853 H       
  29 H29            2.4080    -5.3202     1.3861 H       
  30 H30            3.6762    -5.3571     2.6345 H       
@<TRIPOS>BOND
   1    1    2 1
   2    1   17 1
   3    1   18 1
   4    1   19 1
   5    2    3 2
   6    2    6 1
   7    3    4 1
   8    3   11 1
   9    3   20 1
  10    4    5 1
  11    4   16 1
  12    4   13 1
  13    5    6 1
  14    5    7 1
  15    6   10 1
  16    6   21 1
  17    7    8 2
  18    7   22 1
  19    8    9 1
  20    8   23 1
  21    9   10 2
  22    9   24 1
  23   10   25 1
  24   11   12 am
  25   11   26 1
  26   12   13 2
  27   12   14 1
  28   13   27 1
  29   14   15 1
  30   15   28 1
  31   15   29 1
  32   15   30 1

#	End of record

