#	Name: ASD01813609
#	Creating user name:	WinNT
#	Creation time:	15. 06. 2019 19:30

#	Modifying user name:	WinNT
#	Modification time:	15. 06. 2019 19:30

#	Program:	/corina/corina34_cracker 3.40 0067  02.08.2006

@<TRIPOS>MOLECULE
ASD01813609
  42   45    0    0    0
SMALL
NO_CHARGES


@<TRIPOS>ATOM
   1 C1            -0.0165     1.3821     0.0305 C.ar    
   2 C2             0.0023    -0.0042     0.0226 C.ar    
   3 C3             1.1977    -0.6934     0.0011 C.ar    
   4 C4             2.4041     0.0043    -0.0134 C.ar    
   5 C5             2.3835     1.4095    -0.0059 C.ar    
   6 C6             1.1660     2.0944     0.0163 C.ar    
   7 N7             3.6050    -0.6734    -0.0339 N.pl3   
   8 C8             4.7897    -0.0495    -0.0475 C.2     
   9 C9             4.8961     1.3267    -0.0416 C.2     
  10 C10            3.6660     2.1351    -0.0215 C.2     
  11 O11            3.7066     3.3531    -0.0161 O.2     
  12 C12            6.2154     1.9740    -0.0560 C.2     
  13 O13            6.3063     3.3190    -0.0500 O.3     
  14 O14            7.2247     1.2966    -0.0733 O.2     
  15 C15            3.5837    -2.1382    -0.0406 C.3     
  16 C16            3.4403    -2.6321    -1.4571 C.ar    
  17 N17            2.2406    -2.7346    -1.9911 N.ar    
  18 C18            2.0669    -3.1645    -3.2342 C.ar    
  19 C19            3.1606    -3.5240    -4.0183 C.ar    
  20 C20            4.4336    -3.4262    -3.4825 C.ar    
  21 C21            4.5707    -2.9662    -2.1809 C.ar    
  22 F22            1.1986    -2.0444    -0.0054 F       
  23 F23            1.1459     3.4452     0.0231 F       
  24 C24            0.6966    -3.2636    -3.7936 C.ar    
  25 C25           -0.4199    -2.9095    -3.0279 C.ar    
  26 C26           -1.6791    -3.0176    -3.5898 C.ar    
  27 N27           -1.8325    -3.4470    -4.8271 N.ar    
  28 C28           -0.8059    -3.7903    -5.5810 C.ar    
  29 C29            0.4854    -3.7077    -5.1018 C.ar    
  30 F30           -0.2702    -2.4692    -1.7594 F       
  31 H31           -0.9603     1.9070     0.0432 H       
  32 H32           -0.9290    -0.5508     0.0338 H       
  33 H33            5.6920    -0.6428    -0.0634 H       
  34 H34            7.1955     3.6989    -0.0600 H       
  35 H35            4.5134    -2.5171     0.3839 H       
  36 H36            2.7418    -2.4920     0.5545 H       
  37 H37            3.0177    -3.8744    -5.0298 H       
  38 H38            5.3007    -3.6980    -4.0662 H       
  39 H39            5.5499    -2.8784    -1.7339 H       
  40 H40           -2.5477    -2.7474    -3.0077 H       
  41 H41           -0.9784    -4.1371    -6.5892 H       
  42 H42            1.3203    -3.9908    -5.7256 H       
@<TRIPOS>BOND
   1    1    2 ar
   2    1    6 ar
   3    1   31 1
   4    2    3 ar
   5    2   32 1
   6    3    4 ar
   7    3   22 1
   8    4    5 ar
   9    4    7 1
  10    5    6 ar
  11    5   10 1
  12    6   23 1
  13    7    8 1
  14    7   15 1
  15    8    9 2
  16    8   33 1
  17    9   10 1
  18    9   12 1
  19   10   11 2
  20   12   13 1
  21   12   14 2
  22   13   34 1
  23   15   16 1
  24   15   35 1
  25   15   36 1
  26   16   17 ar
  27   16   21 ar
  28   17   18 ar
  29   18   19 ar
  30   18   24 1
  31   19   20 ar
  32   19   37 1
  33   20   21 ar
  34   20   38 1
  35   21   39 1
  36   24   25 ar
  37   24   29 ar
  38   25   26 ar
  39   25   30 1
  40   26   27 ar
  41   26   40 1
  42   27   28 ar
  43   28   29 ar
  44   28   41 1
  45   29   42 1

#	End of record

