#	Name: ASD01913988
#	Creating user name:	WinNT
#	Creation time:	15. 06. 2019 20:02

#	Modifying user name:	WinNT
#	Modification time:	15. 06. 2019 20:02

#	Program:	/corina/corina34_cracker 3.40 0067  02.08.2006

@<TRIPOS>MOLECULE
ASD01913988
  38   41    0    0    0
SMALL
NO_CHARGES


@<TRIPOS>ATOM
   1 N1            -0.0540     1.2930     0.0095 N.2     
   2 N2            -0.0586     0.0061     0.0605 N.pl3   
   3 C3             1.1984    -0.4496     0.2957 C.2     
   4 C4             2.0055     0.6513     0.3948 C.2     
   5 C5             1.1676     1.7599     0.2037 C.2     
   6 C6             3.4839     0.6112     0.6604 C.3     
   7 C7             1.6695    -1.8418     0.4253 C.ar    
   8 C8             0.9089    -2.8943    -0.0791 C.ar    
   9 C9             1.3679    -4.1910     0.0335 C.ar    
  10 C10            2.5830    -4.4499     0.6448 C.ar    
  11 C11            3.3436    -3.4163     1.1547 C.ar    
  12 C12            2.8930    -2.1060     1.0579 C.ar    
  13 S13            3.8491    -0.7969     1.7468 S.3     
  14 C14            1.5733     3.1802     0.2169 C.2     
  15 O15            2.7365     3.4784     0.4073 O.2     
  16 N16            0.6541     4.1455     0.0179 N.am    
  17 C17           -1.2429    -0.8393    -0.1098 C.3     
  18 C18            1.0185     5.4913     0.1269 C.ar    
  19 C19            2.2764     5.9075    -0.2895 C.ar    
  20 C20            2.6333     7.2382    -0.1803 C.ar    
  21 C21            1.7383     8.1550     0.3437 C.ar    
  22 C22            0.4857     7.7429     0.7587 C.ar    
  23 C23            0.1211     6.4152     0.6463 C.ar    
  24 Cl24           4.2052     7.7601    -0.7002 Cl      
  25 H25            4.0208     0.4946    -0.2810 H       
  26 H26            3.7927     1.5367     1.1463 H       
  27 H27           -0.0390    -2.6959    -0.5572 H       
  28 H28            0.7771    -5.0067    -0.3562 H       
  29 H29            2.9380    -5.4668     0.7236 H       
  30 H30            4.2904    -3.6272     1.6296 H       
  31 H31           -0.2603     3.9068    -0.2010 H       
  32 H32           -1.3618    -1.0901    -1.1638 H       
  33 H33           -1.1225    -1.7544     0.4701 H       
  34 H34           -2.1256    -0.3025     0.2378 H       
  35 H35            2.9750     5.1921    -0.6977 H       
  36 H36            2.0193     9.1943     0.4289 H       
  37 H37           -0.2103     8.4606     1.1671 H       
  38 H38           -0.8593     6.0951     0.9667 H       
@<TRIPOS>BOND
   1    1    2 1
   2    1    5 2
   3    2    3 1
   4    2   17 1
   5    3    4 2
   6    3    7 1
   7    4    5 1
   8    4    6 1
   9    5   14 1
  10    6   13 1
  11    6   25 1
  12    6   26 1
  13    7    8 ar
  14    7   12 ar
  15    8    9 ar
  16    8   27 1
  17    9   10 ar
  18    9   28 1
  19   10   11 ar
  20   10   29 1
  21   11   12 ar
  22   11   30 1
  23   12   13 1
  24   14   15 2
  25   14   16 am
  26   16   18 1
  27   16   31 1
  28   17   32 1
  29   17   33 1
  30   17   34 1
  31   18   19 ar
  32   18   23 ar
  33   19   20 ar
  34   19   35 1
  35   20   21 ar
  36   20   24 1
  37   21   22 ar
  38   21   36 1
  39   22   23 ar
  40   22   37 1
  41   23   38 1

#	End of record

