#	Name: ASD08070070
#	Creating user name:	WinNT
#	Creation time:	15. 06. 2019 21:14

#	Modifying user name:	WinNT
#	Modification time:	15. 06. 2019 21:14

#	Program:	/corina/corina34_cracker 3.40 0067  02.08.2006

@<TRIPOS>MOLECULE
ASD08070070
  38   38    0    0    0
SMALL
NO_CHARGES


@<TRIPOS>ATOM
   1 C1            -0.0166     1.3733     0.0096 C.ar    
   2 C2             0.0021    -0.0041     0.0020 C.ar    
   3 C3             1.1757     2.0864     0.0020 C.ar    
   4 C4             2.3930     1.4131    -0.0132 C.ar    
   5 C5             2.4198     0.0356    -0.0214 C.ar    
   6 C6             1.2220    -0.6846    -0.0133 C.ar    
   7 C7             1.2460    -2.1604    -0.0215 C.2     
   8 O8             2.3086    -2.7511    -0.0353 O.2     
   9 C9            -1.1913    -4.8458    -0.6214 C.3     
  10 C10            0.1137    -4.3179    -0.0219 C.3     
  11 N11            0.0899    -2.8532    -0.0137 N.am    
  12 C12            0.2597    -4.8258     1.3894 C.2     
  13 O13            0.3362    -4.0444     2.3078 O.2     
  14 O14            1.1528     3.4435     0.0091 O.3     
  15 C15           -1.2800    -4.4343    -2.0923 C.3     
  16 O16            0.3050    -6.1463     1.6262 O.3     
  17 C17           -0.1311     4.0707     0.0244 C.3     
  18 Cl18           3.8797     2.3094    -0.0226 Cl      
  19 C19           -2.5849    -4.9622    -2.6918 C.3     
  20 C20            0.4468    -6.5634     3.0097 C.3     
  21 H21           -0.9596     1.8996     0.0169 H       
  22 H22           -0.9254    -0.5573     0.0083 H       
  23 H23            3.3649    -0.4869    -0.0336 H       
  24 H24           -1.2119    -5.9331    -0.5464 H       
  25 H25           -2.0371    -4.4279    -0.0755 H       
  26 H26            0.9553    -4.6643    -0.6216 H       
  27 H27           -0.7578    -2.3819    -0.0027 H       
  28 H28           -1.2594    -3.3471    -2.1673 H       
  29 H29           -0.4341    -4.8522    -2.6382 H       
  30 H30           -0.6914     3.7729    -0.8619 H       
  31 H31           -0.6747     3.7639     0.9179 H       
  32 H32           -0.0065     5.1535     0.0287 H       
  33 H33           -2.6481    -4.6690    -3.7397 H       
  34 H34           -2.6055    -6.0494    -2.6168 H       
  35 H35           -3.4307    -4.5443    -2.1459 H       
  36 H36           -0.3972    -6.1905     3.5900 H       
  37 H37            0.4700    -7.6520     3.0605 H       
  38 H38            1.3741    -6.1609     3.4174 H       
@<TRIPOS>BOND
   1    1    2 ar
   2    1    3 ar
   3    1   21 1
   4    2    6 ar
   5    2   22 1
   6    3    4 ar
   7    3   14 1
   8    4    5 ar
   9    4   18 1
  10    5    6 ar
  11    5   23 1
  12    6    7 1
  13    7    8 2
  14    7   11 am
  15    9   10 1
  16    9   15 1
  17    9   24 1
  18    9   25 1
  19   10   12 1
  20   10   11 1
  21   10   26 1
  22   11   27 1
  23   12   13 2
  24   12   16 1
  25   14   17 1
  26   15   19 1
  27   15   28 1
  28   15   29 1
  29   16   20 1
  30   17   30 1
  31   17   31 1
  32   17   32 1
  33   19   33 1
  34   19   34 1
  35   19   35 1
  36   20   36 1
  37   20   37 1
  38   20   38 1

#	End of record

