#	Name: ASD04840021
#	Creating user name:	WinNT
#	Creation time:	15. 06. 2019 20:52

#	Modifying user name:	WinNT
#	Modification time:	15. 06. 2019 20:52

#	Program:	/corina/corina34_cracker 3.40 0067  02.08.2006

@<TRIPOS>MOLECULE
ASD04840021
  41   44    0    0    0
SMALL
NO_CHARGES


@<TRIPOS>ATOM
   1 C1             1.3087     2.0627     0.5145 C.3     
   2 C2             0.9794     0.6116     0.2758 C.ar    
   3 C3             0.7683    -0.2209     1.3624 C.ar    
   4 C4             0.4639    -1.5597     1.1529 C.ar    
   5 N5             0.2463    -2.4195     2.2215 N.pl3   
   6 C6             0.2616    -1.9297     3.5216 C.ar    
   7 C7             1.3852    -2.1030     4.3199 C.ar    
   8 C8             1.3979    -1.6155     5.6109 C.ar    
   9 C9             0.2940    -0.9515     6.1215 C.ar    
  10 C10           -0.8300    -0.7701     5.3454 C.ar    
  11 C11           -0.8565    -1.2517     4.0339 C.ar    
  12 C12           -2.0547    -1.0608     3.1983 C.2     
  13 O13           -2.1139    -1.5690     2.0960 O.2     
  14 O14           -3.0850    -0.3228     3.6563 O.3     
  15 C15            0.3819    -2.0200    -0.1794 C.ar    
  16 C16            0.6115    -1.1042    -1.2282 C.ar    
  17 N17            0.8942     0.1675    -0.9599 N.ar    
  18 C18            0.5246    -1.5893    -2.6096 C.ar    
  19 C19            0.7395    -0.7379    -3.6950 C.ar    
  20 C20            0.6491    -1.2276    -4.9669 C.ar    
  21 C21            0.3455    -2.5648    -5.1935 C.ar    
  22 C22            0.1299    -3.4207    -4.1534 C.ar    
  23 C23            0.2155    -2.9497    -2.8354 C.ar    
  24 C24           -0.0035    -3.8141    -1.7384 C.ar    
  25 C25            0.0774    -3.3673    -0.4673 C.ar    
  26 H26            2.3894     2.1823     0.5903 H       
  27 H27            0.9341     2.6615    -0.3156 H       
  28 H28            0.8406     2.3937     1.4416 H       
  29 H29            0.8403     0.1688     2.3671 H       
  30 H30            0.0836    -3.3621     2.0602 H       
  31 H31            2.2495    -2.6200     3.9299 H       
  32 H32            2.2739    -1.7528     6.2275 H       
  33 H33            0.3146    -0.5744     7.1333 H       
  34 H34           -1.6876    -0.2521     5.7487 H       
  35 H35           -3.8495    -0.2259     3.0721 H       
  36 H36            0.9757     0.3029    -3.5298 H       
  37 H37            0.8152    -0.5682    -5.8060 H       
  38 H38            0.2790    -2.9313    -6.2072 H       
  39 H39           -0.1060    -4.4572    -4.3444 H       
  40 H40           -0.2402    -4.8519    -1.9208 H       
  41 H41           -0.0956    -4.0555     0.3468 H       
@<TRIPOS>BOND
   1    1    2 1
   2    1   26 1
   3    1   27 1
   4    1   28 1
   5    2    3 ar
   6    2   17 ar
   7    3    4 ar
   8    3   29 1
   9    4    5 1
  10    4   15 ar
  11    5    6 1
  12    5   30 1
  13    6    7 ar
  14    6   11 ar
  15    7    8 ar
  16    7   31 1
  17    8    9 ar
  18    8   32 1
  19    9   10 ar
  20    9   33 1
  21   10   11 ar
  22   10   34 1
  23   11   12 1
  24   12   13 2
  25   12   14 1
  26   14   35 1
  27   15   16 ar
  28   15   25 ar
  29   16   17 ar
  30   16   18 ar
  31   18   19 ar
  32   18   23 ar
  33   19   20 ar
  34   19   36 1
  35   20   21 ar
  36   20   37 1
  37   21   22 ar
  38   21   38 1
  39   22   23 ar
  40   22   39 1
  41   23   24 ar
  42   24   25 ar
  43   24   40 1
  44   25   41 1

#	End of record

