#	Name: ASD00843370
#	Creating user name:	WinNT
#	Creation time:	15. 06. 2019 18:46

#	Modifying user name:	WinNT
#	Modification time:	15. 06. 2019 18:46

#	Program:	/corina/corina34_cracker 3.40 0067  02.08.2006

@<TRIPOS>MOLECULE
ASD00843370
  93   98    0    0    0
SMALL
NO_CHARGES


@<TRIPOS>ATOM
   1 N1             0.9930     1.1258     0.0117 N.ar    
   2 C2             1.1764    -0.1307    -0.3577 C.ar    
   3 C3             1.0452    -1.1648     0.5606 C.ar    
   4 C4             0.7192    -0.8640     1.8713 C.ar    
   5 C5             0.5350     0.4674     2.2189 C.ar    
   6 C6             0.6814     1.4438     1.2540 C.ar    
   7 C7             1.2547    -2.5952     0.1349 C.3     
   8 C8             0.9145    -3.5410     1.2669 C.2     
   9 C9             0.4124    -2.9140    -1.1020 C.3     
  10 C10           -1.0315    -2.5825    -0.8255 C.2     
  11 N11           -1.9789    -2.8880    -1.7341 N.am    
  12 O12           -1.3409    -2.0408     0.2146 O.2     
  13 C13           -3.3729    -2.4703    -1.5313 C.3     
  14 C14           -4.2780    -3.7010    -1.6454 C.3     
  15 C15           -4.0188    -4.3976    -2.9832 C.3     
  16 C16           -2.5619    -4.8621    -3.0446 C.3     
  17 C17           -1.6363    -3.6397    -2.9491 C.3     
  18 C18           -4.9456    -5.6077    -3.1157 C.3     
  19 C19           -6.4038    -5.1443    -3.0562 C.3     
  20 C20           -7.3255    -6.3505    -3.2502 C.3     
  21 N21           -7.0454    -6.9786    -4.5477 N.3     
  22 C22           -5.6643    -7.4738    -4.6107 C.3     
  23 C23           -4.6930    -6.3012    -4.4573 C.3     
  24 C24           -8.0041    -8.0553    -4.8293 C.3     
  25 O25           -0.1668    -3.6637     1.8023 O.2     
  26 N26            2.0344    -4.2195     1.5667 N.am    
  27 C27            2.7187    -2.8588    -0.1351 C.ar    
  28 C28            3.1102    -3.8461     0.7661 C.ar    
  29 C29            3.6096    -2.3277    -1.0330 C.ar    
  30 C30            4.9339    -2.7796    -1.0498 C.ar    
  31 C31            5.3347    -3.7718    -0.1469 C.ar    
  32 C32            4.4297    -4.2985     0.7496 C.ar    
  33 F33            6.6109    -4.2149    -0.1551 F       
  34 C34            1.7343    -6.9189     2.0116 C.ar    
  35 C35            0.4633    -7.1423     1.5019 C.ar    
  36 C36            2.6958    -7.9083     1.9317 C.ar    
  37 C37            2.3944    -9.1218     1.3442 C.ar    
  38 C38            1.1244    -9.3502     0.8330 C.ar    
  39 C39            0.1582    -8.3595     0.9122 C.ar    
  40 O40            0.8283   -10.5442     0.2556 O.3     
  41 O41           -0.4819    -6.1690     1.5811 O.3     
  42 C42           -1.7684    -6.4682     1.0358 C.3     
  43 C43            1.8723   -11.5189     0.2089 C.3     
  44 O44            1.4953    -0.4125    -1.6460 O.3     
  45 C45            1.5765     0.6908    -2.5505 C.3     
  46 C46            2.0390     0.1934    -3.9215 C.3     
  47 F47            3.2574    -0.4806    -3.7864 F       
  48 F48            1.0801    -0.6780    -4.4493 F       
  49 C49            5.8716    -2.2321    -1.9834 C.1     
  50 N50            6.6154    -1.7977    -2.7240 N.1     
  51 S51            2.1251    -5.3697     2.7546 S.o2    
  52 O52            3.4911    -5.4424     3.1393 O.2     
  53 O53            1.0743    -5.0865     3.6683 O.2     
  54 H54            0.6102    -1.6470     2.6070 H       
  55 H55            0.2795     0.7364     3.2331 H       
  56 H56            0.5396     2.4811     1.5193 H       
  57 H57            0.7663    -2.3211    -1.9453 H       
  58 H58            0.5027    -3.9740    -1.3397 H       
  59 H59           -3.4813    -2.0274    -0.5413 H       
  60 H60           -3.6502    -1.7409    -2.2925 H       
  61 H61           -4.0607    -4.3893    -0.8287 H       
  62 H62           -5.3217    -3.3911    -1.5928 H       
  63 H63           -4.2125    -3.7010    -3.7989 H       
  64 H64           -2.3607    -5.5395    -2.2147 H       
  65 H65           -2.3842    -5.3787    -3.9878 H       
  66 H66           -1.7734    -3.0081    -3.8268 H       
  67 H67           -0.5992    -3.9702    -2.8926 H       
  68 H68           -4.7517    -6.3059    -2.3015 H       
  69 H69           -6.6012    -4.6877    -2.0864 H       
  70 H70           -6.5867    -4.4158    -3.8461 H       
  71 H71           -7.1519    -7.0724    -2.4522 H       
  72 H72           -8.3644    -6.0218    -3.2226 H       
  73 H73           -5.4985    -8.1904    -3.8063 H       
  74 H74           -5.4967    -7.9610    -5.5713 H       
  75 H75           -4.8490    -5.5908    -5.2692 H       
  76 H76           -3.6682    -6.6711    -4.4885 H       
  77 H77           -9.0142    -7.6462    -4.8500 H       
  78 H78           -7.7738    -8.5033    -5.7960 H       
  79 H79           -7.9358    -8.8154    -4.0511 H       
  80 H80            3.2896    -1.5630    -1.7253 H       
  81 H81            4.7441    -5.0638     1.4438 H       
  82 H82            3.6846    -7.7326     2.3290 H       
  83 H83            3.1476    -9.8933     1.2824 H       
  84 H84           -0.8307    -8.5354     0.5153 H       
  85 H85           -2.4263    -5.6087     1.1642 H       
  86 H86           -1.6694    -6.6947    -0.0258 H       
  87 H87           -2.1909    -7.3296     1.5532 H       
  88 H88            2.7155   -11.1215    -0.3560 H       
  89 H89            2.1938   -11.7558     1.2232 H       
  90 H90            1.5039   -12.4230    -0.2759 H       
  91 H91            0.5954     1.1562    -2.6449 H       
  92 H92            2.2900     1.4213    -2.1694 H       
  93 H93            2.1662     1.0430    -4.5923 H       
@<TRIPOS>BOND
   1    1    2 ar
   2    1    6 ar
   3    2    3 ar
   4    2   44 1
   5    3    4 ar
   6    3    7 1
   7    4    5 ar
   8    4   54 1
   9    5    6 ar
  10    5   55 1
  11    6   56 1
  12    7    8 1
  13    7    9 1
  14    7   27 1
  15    8   25 2
  16    8   26 am
  17    9   10 1
  18    9   57 1
  19    9   58 1
  20   10   11 am
  21   10   12 2
  22   11   13 1
  23   11   17 1
  24   13   14 1
  25   13   59 1
  26   13   60 1
  27   14   15 1
  28   14   61 1
  29   14   62 1
  30   15   16 1
  31   15   18 1
  32   15   63 1
  33   16   17 1
  34   16   64 1
  35   16   65 1
  36   17   66 1
  37   17   67 1
  38   18   19 1
  39   18   23 1
  40   18   68 1
  41   19   20 1
  42   19   69 1
  43   19   70 1
  44   20   21 1
  45   20   71 1
  46   20   72 1
  47   21   22 1
  48   21   24 1
  49   22   23 1
  50   22   73 1
  51   22   74 1
  52   23   75 1
  53   23   76 1
  54   24   77 1
  55   24   78 1
  56   24   79 1
  57   26   51 am
  58   26   28 1
  59   27   28 ar
  60   27   29 ar
  61   28   32 ar
  62   29   30 ar
  63   29   80 1
  64   30   31 ar
  65   30   49 1
  66   31   32 ar
  67   31   33 1
  68   32   81 1
  69   34   35 ar
  70   34   36 ar
  71   34   51 1
  72   35   41 1
  73   35   39 ar
  74   36   37 ar
  75   36   82 1
  76   37   38 ar
  77   37   83 1
  78   38   39 ar
  79   38   40 1
  80   39   84 1
  81   40   43 1
  82   41   42 1
  83   42   85 1
  84   42   86 1
  85   42   87 1
  86   43   88 1
  87   43   89 1
  88   43   90 1
  89   44   45 1
  90   45   46 1
  91   45   91 1
  92   45   92 1
  93   46   47 1
  94   46   48 1
  95   46   93 1
  96   49   50 3
  97   51   52 2
  98   51   53 2

#	End of record

