#	Name: ASD01813073
#	Creating user name:	WinNT
#	Creation time:	15. 06. 2019 19:29

#	Modifying user name:	WinNT
#	Modification time:	15. 06. 2019 19:29

#	Program:	/corina/corina34_cracker 3.40 0067  02.08.2006

@<TRIPOS>MOLECULE
ASD01813073
  60   64    0    0    0
SMALL
NO_CHARGES


@<TRIPOS>ATOM
   1 C1            -0.6367     1.6100    -0.0006 C.2     
   2 C2            -0.2450     0.3389    -0.1906 C.2     
   3 N3            -1.1635    -0.6566    -0.3688 N.pl3   
   4 C4            -2.4852    -0.4463    -0.3806 C.2     
   5 C5            -2.9864     0.8283    -0.2040 C.2     
   6 C6            -2.0254     1.9197     0.0011 C.2     
   7 O7            -2.4090     3.0675     0.1619 O.2     
   8 C8            -0.6765    -2.0254    -0.5571 C.3     
   9 C9            -0.5783    -2.3253    -2.0307 C.ar    
  10 C10            0.3253     2.7468     0.2209 C.3     
  11 C11            1.7326     2.3608    -0.2293 C.3     
  12 C12            2.0850     1.0117     0.4094 C.3     
  13 C13            1.2091    -0.0630    -0.2291 C.3     
  14 C14            0.6317    -2.1782    -2.6847 C.ar    
  15 C15            0.7273    -2.4515    -4.0342 C.ar    
  16 C16           -0.3979    -2.8763    -4.7378 C.ar    
  17 C17           -1.6142    -3.0228    -4.0739 C.ar    
  18 C18           -1.6971    -2.7521    -2.7231 C.ar    
  19 N19           -0.1238     3.9166    -0.5458 N.3     
  20 C20           -0.3013    -3.1712    -6.1889 C.ar    
  21 C21           -1.4265    -3.5960    -6.8925 C.ar    
  22 C22           -1.3309    -3.8689    -8.2421 C.ar    
  23 C23           -0.1210    -3.7218    -8.8960 C.ar    
  24 C24            0.9992    -3.3008    -8.2024 C.ar    
  25 C25            0.9135    -3.0188    -6.8540 C.ar    
  26 C26            0.7833     5.0611    -0.3432 C.3     
  27 C27            1.2883     5.4962    -1.7350 C.3     
  28 C28            0.2003     4.9403    -2.6910 C.3     
  29 C29           -0.1820     3.6122    -1.9914 C.3     
  30 C30           -4.4354     1.0836    -0.2162 C.2     
  31 O31           -5.2130     0.1647    -0.3838 O.2     
  32 O32           -4.9003     2.3366    -0.0415 O.3     
  33 H33           -3.1613    -1.2752    -0.5291 H       
  34 H34            0.3075    -2.1271    -0.0993 H       
  35 H35           -1.3690    -2.7251    -0.0893 H       
  36 H36            0.3443     2.9993     1.2811 H       
  37 H37            1.7602     2.2722    -1.3153 H       
  38 H38            2.4442     3.1194     0.0968 H       
  39 H39            3.1358     0.7836     0.2305 H       
  40 H40            1.8945     1.0517     1.4819 H       
  41 H41            1.3370    -0.9994     0.3139 H       
  42 H42            1.5145    -0.2055    -1.2657 H       
  43 H43            1.5031    -1.8485    -2.1385 H       
  44 H44            1.6724    -2.3360    -4.5439 H       
  45 H45           -2.4894    -3.3517    -4.6145 H       
  46 H46           -2.6393    -2.8653    -2.2075 H       
  47 H47           -2.3715    -3.7118    -6.3827 H       
  48 H48           -2.2024    -4.1982    -8.7884 H       
  49 H49           -0.0506    -3.9368    -9.9521 H       
  50 H50            1.9416    -3.1880    -8.7179 H       
  51 H51            1.7887    -2.6898    -6.3135 H       
  52 H52            0.2442     5.8824     0.1291 H       
  53 H53            1.6258     4.7608     0.2798 H       
  54 H54            1.3424     6.5828    -1.8030 H       
  55 H55            2.2575     5.0467    -1.9511 H       
  56 H56           -0.6548     5.6142    -2.7435 H       
  57 H57            0.6107     4.7546    -3.6836 H       
  58 H58            0.5344     2.8304    -2.2437 H       
  59 H59           -1.1901     3.3102    -2.2753 H       
  60 H60           -5.8599     2.4549    -0.0574 H       
@<TRIPOS>BOND
   1    1    2 2
   2    1   10 1
   3    1    6 1
   4    2    3 1
   5    2   13 1
   6    3    4 1
   7    3    8 1
   8    4    5 2
   9    4   33 1
  10    5    6 1
  11    5   30 1
  12    6    7 2
  13    8    9 1
  14    8   34 1
  15    8   35 1
  16    9   14 ar
  17    9   18 ar
  18   10   11 1
  19   10   19 1
  20   10   36 1
  21   11   12 1
  22   11   37 1
  23   11   38 1
  24   12   13 1
  25   12   39 1
  26   12   40 1
  27   13   41 1
  28   13   42 1
  29   14   15 ar
  30   14   43 1
  31   15   16 ar
  32   15   44 1
  33   16   17 ar
  34   16   20 1
  35   17   18 ar
  36   17   45 1
  37   18   46 1
  38   19   26 1
  39   19   29 1
  40   20   21 ar
  41   20   25 ar
  42   21   22 ar
  43   21   47 1
  44   22   23 ar
  45   22   48 1
  46   23   24 ar
  47   23   49 1
  48   24   25 ar
  49   24   50 1
  50   25   51 1
  51   26   27 1
  52   26   52 1
  53   26   53 1
  54   27   28 1
  55   27   54 1
  56   27   55 1
  57   28   29 1
  58   28   56 1
  59   28   57 1
  60   29   58 1
  61   29   59 1
  62   30   31 2
  63   30   32 1
  64   32   60 1

#	End of record

