#	Name: ASD01920064
#	Creating user name:	WinNT
#	Creation time:	15. 06. 2019 20:11

#	Modifying user name:	WinNT
#	Modification time:	15. 06. 2019 20:11

#	Program:	/corina/corina34_cracker 3.40 0067  02.08.2006

@<TRIPOS>MOLECULE
ASD01920064
  33   35    0    0    0
SMALL
NO_CHARGES


@<TRIPOS>ATOM
   1 C1             0.0762     1.1967     0.5740 C.2     
   2 N2             0.0033    -0.0056     0.0385 N.2     
   3 C3             1.2537     2.0881     0.5755 C.2     
   4 O4             1.1892     3.1796     1.1072 O.2     
   5 N5             2.3998     1.6916    -0.0124 N.am    
   6 C6             3.4794     2.5779    -0.1104 C.ar    
   7 C7             4.7803     2.1016    -0.0114 C.ar    
   8 C8             3.2499     3.9323    -0.3123 C.ar    
   9 C9             4.3160     4.8062    -0.4093 C.ar    
  10 C10            5.6158     4.3296    -0.3049 C.ar    
  11 C11            5.8449     2.9756    -0.1085 C.ar    
  12 O12            6.6647     5.1896    -0.4004 O.3     
  13 Cl13           4.0300     6.4996    -0.6623 Cl      
  14 C14            6.9974     5.9130     0.6982 C.ar    
  15 C15            7.9935     6.8770     0.6110 C.ar    
  16 C16            8.3238     7.6084     1.7387 C.ar    
  17 C17            7.6420     7.3477     2.9203 C.ar    
  18 C18            6.6619     6.3733     2.9339 C.ar    
  19 N19            6.3662     5.6968     1.8405 N.ar    
  20 Cl20           8.0171     8.2354     4.3642 Cl      
  21 N21           -1.1689    -0.4989     0.2203 N.pl3   
  22 C22           -1.9428     0.3744     0.9000 C.2     
  23 C23           -1.1901     1.4733     1.1417 C.2     
  24 H24            2.4768     0.7923    -0.3677 H       
  25 H25            4.9593     1.0476     0.1419 H       
  26 H26            2.2387     4.3026    -0.3938 H       
  27 H27            6.8562     2.6055    -0.0270 H       
  28 H28            8.5038     7.0534    -0.3244 H       
  29 H29            9.0944     8.3642     1.7009 H       
  30 H30            6.1284     6.1663     3.8498 H       
  31 H31           -1.4568    -1.3728    -0.0867 H       
  32 H32           -2.9718     0.2257     1.1924 H       
  33 H33           -1.4907     2.3696     1.6639 H       
@<TRIPOS>BOND
   1    1    2 2
   2    1    3 1
   3    1   23 1
   4    2   21 1
   5    3    4 2
   6    3    5 am
   7    5    6 1
   8    5   24 1
   9    6    7 ar
  10    6    8 ar
  11    7   11 ar
  12    7   25 1
  13    8    9 ar
  14    8   26 1
  15    9   10 ar
  16    9   13 1
  17   10   11 ar
  18   10   12 1
  19   11   27 1
  20   12   14 1
  21   14   15 ar
  22   14   19 ar
  23   15   16 ar
  24   15   28 1
  25   16   17 ar
  26   16   29 1
  27   17   18 ar
  28   17   20 1
  29   18   19 ar
  30   18   30 1
  31   21   22 1
  32   21   31 1
  33   22   23 2
  34   22   32 1
  35   23   33 1

#	End of record

