#	Name: ASD02560381
#	Creating user name:	WinNT
#	Creation time:	15. 06. 2019 20:25

#	Modifying user name:	WinNT
#	Modification time:	15. 06. 2019 20:25

#	Program:	/corina/corina34_cracker 3.40 0067  02.08.2006

@<TRIPOS>MOLECULE
ASD02560381
  38   40    0    0    0
SMALL
NO_CHARGES


@<TRIPOS>ATOM
   1 C1             0.0998     1.3942     0.9612 C.2     
   2 C2             0.0810     0.0043     0.7409 C.2     
   3 C3             1.2269    -0.6611     0.4897 C.2     
   4 N4             2.4237     0.0041     0.4452 N.pl3   
   5 C5             2.4724     1.3630     0.6562 C.2     
   6 C6             1.2787     2.0688     0.9200 C.2     
   7 C7             3.7031    -0.4188     0.2159 C.2     
   8 C8             4.5119     0.6969     0.2920 C.2     
   9 N9             3.7303     1.7598     0.5607 N.2     
  10 C10            5.9810     0.7207     0.1106 C.2     
  11 N11            4.1122    -1.7248    -0.0439 N.3     
  12 C12            2.9889    -2.6632     0.0822 C.3     
  13 C13            6.7749     1.8284    -0.3035 C.2     
  14 C14            3.5041    -4.0970    -0.0577 C.3     
  15 C15            2.3342    -5.0743     0.0735 C.3     
  16 C16            2.8494    -6.5082    -0.0664 C.3     
  17 Cl17          -1.4247    -0.8581     0.7934 Cl      
  18 C18            8.0352     1.3407    -0.3116 C.2     
  19 O19            7.9551     0.0573     0.0690 O.3     
  20 N20            6.8159    -0.2726     0.3042 N.2     
  21 C21            9.2883     2.0936    -0.6774 C.3     
  22 H22           -0.8206     1.9238     1.1580 H       
  23 H23            1.2008    -1.7278     0.3225 H       
  24 H24            1.3021     3.1355     1.0872 H       
  25 H25            4.5415    -1.7950    -0.9542 H       
  26 H26            2.5198    -2.5393     1.0582 H       
  27 H27            2.2577    -2.4618    -0.7007 H       
  28 H28            6.4460     2.8262    -0.5534 H       
  29 H29            3.9733    -4.2209    -1.0338 H       
  30 H30            4.2353    -4.2984     0.7251 H       
  31 H31            1.8651    -4.9504     1.0496 H       
  32 H32            1.6030    -4.8730    -0.7093 H       
  33 H33            3.3185    -6.6321    -1.0424 H       
  34 H34            3.5806    -6.7096     0.7165 H       
  35 H35            2.0159    -7.2044     0.0271 H       
  36 H36            9.7065     2.5587     0.2153 H       
  37 H37           10.0165     1.4025    -1.1021 H       
  38 H38            9.0484     2.8641    -1.4101 H       
@<TRIPOS>BOND
   1    1    2 1
   2    1    6 2
   3    1   22 1
   4    2    3 2
   5    2   17 1
   6    3    4 1
   7    3   23 1
   8    4    5 1
   9    4    7 1
  10    5    6 1
  11    5    9 2
  12    6   24 1
  13    7    8 2
  14    7   11 1
  15    8    9 1
  16    8   10 1
  17   10   13 1
  18   10   20 2
  19   11   12 1
  20   11   25 1
  21   12   14 1
  22   12   26 1
  23   12   27 1
  24   13   18 2
  25   13   28 1
  26   14   15 1
  27   14   29 1
  28   14   30 1
  29   15   16 1
  30   15   31 1
  31   15   32 1
  32   16   33 1
  33   16   34 1
  34   16   35 1
  35   18   19 1
  36   18   21 1
  37   19   20 1
  38   21   36 1
  39   21   37 1
  40   21   38 1

#	End of record

