#	Name: ASD00241027
#	Creating user name:	WinNT
#	Creation time:	15. 06. 2019 18:33

#	Modifying user name:	WinNT
#	Modification time:	15. 06. 2019 18:33

#	Program:	/corina/corina34_cracker 3.40 0067  02.08.2006

@<TRIPOS>MOLECULE
ASD00241027
  43   46    0    0    0
SMALL
NO_CHARGES


@<TRIPOS>ATOM
   1 N1            -0.0158     1.3160     0.0093 N.ar    
   2 C2             0.0021    -0.0041     0.0020 C.ar    
   3 N3             1.1224    -0.6956    -0.0124 N.ar    
   4 C4             2.2984    -0.0784    -0.0203 C.ar    
   5 C5             2.3324     1.3274    -0.0131 C.ar    
   6 C6             1.1110     2.0198     0.0023 C.ar    
   7 N7             3.6079    -0.4879    -0.0357 N.pl3   
   8 C8             4.3860     0.6312    -0.0376 C.2     
   9 N9             3.6361     1.6948    -0.0243 N.2     
  10 C10            4.0827    -1.8738    -0.0480 C.3     
  11 O11            5.4252    -1.9500     0.4789 O.3     
  12 C12            5.9607    -3.1940    -0.0226 C.3     
  13 C13            5.4624    -3.2783    -1.4824 C.3     
  14 C14            4.1985    -2.3897    -1.4995 C.3     
  15 C15            7.4900    -3.1702     0.0176 C.3     
  16 F16            4.3622    -1.3215    -2.3879 F       
  17 O17            5.1314    -4.6264    -1.8214 O.3     
  18 O18            7.9303    -3.1353     1.3767 O.3     
  19 N19            1.0815     3.4075     0.0096 N.am    
  20 C20           -0.0997     4.0563     0.0243 C.2     
  21 C21           -0.1899     8.3026     0.0471 C.ar    
  22 C22           -1.3750     7.5885     0.0546 C.ar    
  23 C23           -1.3528     6.2092     0.0474 C.ar    
  24 C24           -0.1311     5.5339     0.0321 C.ar    
  25 C25            1.0609     6.2605     0.0246 C.ar    
  26 C26            1.0245     7.6396     0.0324 C.ar    
  27 O27           -1.1391     3.4263     0.0313 O.2     
  28 H28           -0.9374    -0.5367     0.0085 H       
  29 H29            5.4659     0.6348    -0.0481 H       
  30 H30            3.4116    -2.5091     0.5299 H       
  31 H31            5.5780    -4.0334     0.5581 H       
  32 H32            6.2148    -2.8852    -2.1661 H       
  33 H33            3.3211    -2.9788    -1.7665 H       
  34 H34            7.8802    -4.0648    -0.4678 H       
  35 H35            7.8535    -2.2854    -0.5049 H       
  36 H36            4.8126    -4.7371    -2.7276 H       
  37 H37            8.8918    -3.1188     1.4783 H       
  38 H38            1.9110     3.9102     0.0040 H       
  39 H39           -0.2128     9.3823     0.0483 H       
  40 H40           -2.3195     8.1121     0.0665 H       
  41 H41           -2.2786     5.6530     0.0536 H       
  42 H42            2.0094     5.7442     0.0131 H       
  43 H43            1.9459     8.2029     0.0266 H       
@<TRIPOS>BOND
   1    1    2 ar
   2    1    6 ar
   3    2    3 ar
   4    2   28 1
   5    3    4 ar
   6    4    5 ar
   7    4    7 1
   8    5    6 ar
   9    5    9 1
  10    6   19 1
  11    7    8 1
  12    7   10 1
  13    8    9 2
  14    8   29 1
  15   10   11 1
  16   10   14 1
  17   10   30 1
  18   11   12 1
  19   12   13 1
  20   12   15 1
  21   12   31 1
  22   13   14 1
  23   13   17 1
  24   13   32 1
  25   14   16 1
  26   14   33 1
  27   15   18 1
  28   15   34 1
  29   15   35 1
  30   17   36 1
  31   18   37 1
  32   19   20 am
  33   19   38 1
  34   20   27 2
  35   20   24 1
  36   21   22 ar
  37   21   26 ar
  38   21   39 1
  39   22   23 ar
  40   22   40 1
  41   23   24 ar
  42   23   41 1
  43   24   25 ar
  44   25   26 ar
  45   25   42 1
  46   26   43 1

#	End of record

