#	Name: ASD00069297
#	Creating user name:	WinNT
#	Creation time:	15. 06. 2019 18:29

#	Modifying user name:	WinNT
#	Modification time:	15. 06. 2019 18:29

#	Program:	/corina/corina34_cracker 3.40 0067  02.08.2006

@<TRIPOS>MOLECULE
ASD00069297
  98  102    0    0    0
SMALL
NO_CHARGES


@<TRIPOS>ATOM
   1 C1            -1.0449     0.3901     2.1443 C.2     
   2 N2            -0.6212    -0.5461     1.2723 N.am    
   3 O3            -0.3000     0.7802     3.0326 O.co2   
   4 O4            -2.1724     0.8533     2.0444 O.co2   
   5 C5             1.0368    -1.6785     2.6688 C.3     
   6 C6             0.7662    -1.0146     1.3172 C.3     
   7 C7             0.9986    -2.0286     0.1953 C.3     
   8 N8             3.8325     1.4504    -0.3533 N.3     
   9 C9             4.1033     0.8727     0.9693 C.3     
  10 C10            3.1627    -0.3095     1.2134 C.3     
  11 C11            1.7120     0.1741     1.1343 C.3     
  12 C12            1.4698     0.8148    -0.2351 C.3     
  13 C13            2.4595     1.9644    -0.4372 C.3     
  14 C14            4.7628     2.4504    -0.6644 C.ar    
  15 C15            4.8780     3.5716     0.1472 C.ar    
  16 C16            5.7983     4.5574    -0.1626 C.ar    
  17 C17            6.6043     4.4298    -1.2794 C.ar    
  18 C18            6.4954     3.3175    -2.0921 C.ar    
  19 C19            5.5798     2.3207    -1.7862 C.ar    
  20 C20            5.6827     1.2977    -3.9329 C.2     
  21 O21            6.0487     2.3563    -4.4069 O.2     
  22 N22            5.4726     1.1903    -2.6059 N.am    
  23 C23            5.4690     0.1320    -4.8098 C.2     
  24 N24            5.0758    -1.0601    -4.4195 N.2     
  25 C25            4.9915    -1.8630    -5.4877 C.2     
  26 C26            5.3481    -1.1381    -6.5908 C.2     
  27 N27            5.6408     0.1112    -6.1663 N.pl3   
  28 C28            6.0667     1.2349    -7.0042 C.3     
  29 O29            6.1274     0.8153    -8.3689 O.3     
  30 C30            6.5350     1.8422    -9.2752 C.3     
  31 C31            6.5644     1.2835   -10.6992 C.3     
  32 Si32           7.0957     2.6223   -11.8808 Si      
  33 C33            8.7963     3.2232   -11.4142 C.3     
  34 C34            7.1315     1.9419   -13.6147 C.3     
  35 C35            5.8907     4.0405   -11.7949 C.3     
  36 C36            3.8657    -5.2553    -4.3158 C.ar    
  37 C37            4.2396    -3.9278    -4.2814 C.ar    
  38 C38            4.5837    -3.2891    -5.4762 C.ar    
  39 C39            4.5326    -4.0310    -6.6602 C.ar    
  40 C40            4.1476    -5.3541    -6.6046 C.ar    
  41 N41            3.8306    -5.9196    -5.4552 N.ar    
  42 C42            3.4983    -5.9576    -3.0341 C.3     
  43 F43            4.0917     3.6998     1.2383 F       
  44 C44           -1.5480    -1.0953     0.2795 C.3     
  45 C45           -1.6005    -0.1820    -0.9180 C.ar    
  46 C46           -0.8139    -0.4460    -2.0236 C.ar    
  47 C47           -0.8620     0.3918    -3.1221 C.ar    
  48 C48           -1.6970     1.4934    -3.1152 C.ar    
  49 C49           -2.4843     1.7569    -2.0099 C.ar    
  50 C50           -2.4394     0.9167    -0.9131 C.ar    
  51 H51            0.3630    -2.5253     2.7991 H       
  52 H52            2.0690    -2.0271     2.7022 H       
  53 H53            0.8712    -0.9561     3.4681 H       
  54 H54            0.8786    -1.5365    -0.7699 H       
  55 H55            2.0079    -2.4327     0.2741 H       
  56 H56            0.2749    -2.8390     0.2823 H       
  57 H57            5.1369     0.5290     1.0108 H       
  58 H58            3.9415     1.6300     1.7364 H       
  59 H59            3.3336    -1.0732     0.4547 H       
  60 H60            3.3533    -0.7282     2.2015 H       
  61 H61            1.5296     0.9087     1.9186 H       
  62 H62            1.6140     0.0688    -1.0166 H       
  63 H63            0.4509     1.1993    -0.2819 H       
  64 H64            2.3054     2.7166     0.3365 H       
  65 H65            2.2991     2.4136    -1.4173 H       
  66 H66            5.8872     5.4289     0.4690 H       
  67 H67            7.3208     5.2022    -1.5171 H       
  68 H68            7.1261     3.2221    -2.9636 H       
  69 H69            5.2471     0.3300    -2.2187 H       
  70 H70            5.3849    -1.4953    -7.6094 H       
  71 H71            5.3519     2.0521    -6.9069 H       
  72 H72            7.0519     1.5739    -6.6842 H       
  73 H73            5.8299     2.6720    -9.2249 H       
  74 H74            7.5299     2.1938    -9.0022 H       
  75 H75            7.2694     0.4537   -10.7495 H       
  76 H76            5.5694     0.9319   -10.9722 H       
  77 H77            9.5013     2.3934   -11.4645 H       
  78 H78            9.1072     4.0065   -12.1055 H       
  79 H79            8.7754     3.6212   -10.3997 H       
  80 H80            6.1365     1.5903   -13.8877 H       
  81 H81            7.4424     2.7252   -14.3060 H       
  82 H82            7.8365     1.1121   -13.6650 H       
  83 H83            5.8698     4.4385   -10.7804 H       
  84 H84            6.2016     4.8238   -12.4862 H       
  85 H85            4.8957     3.6889   -12.0678 H       
  86 H86            4.2658    -3.3899    -3.3452 H       
  87 H87            4.7904    -3.5745    -7.6044 H       
  88 H88            4.1048    -5.9352    -7.5140 H       
  89 H89            2.4291    -5.8474    -2.8530 H       
  90 H90            3.7457    -7.0160    -3.1159 H       
  91 H91            4.0543    -5.5174    -2.2063 H       
  92 H92           -1.2050    -2.0822    -0.0310 H       
  93 H93           -2.5427    -1.1776     0.7176 H       
  94 H94           -0.1615    -1.3067    -2.0291 H       
  95 H95           -0.2469     0.1859    -3.9856 H       
  96 H96           -1.7341     2.1483    -3.9731 H       
  97 H97           -3.1365     2.6178    -2.0043 H       
  98 H98           -3.0573     1.1205    -0.0511 H       
@<TRIPOS>BOND
   1    1    2 am
   2    1    3 ar
   3    1    4 ar
   4    2    6 1
   5    2   44 1
   6    5    6 1
   7    5   51 1
   8    5   52 1
   9    5   53 1
  10    6    7 1
  11    6   11 1
  12    7   54 1
  13    7   55 1
  14    7   56 1
  15    8    9 1
  16    8   13 1
  17    8   14 1
  18    9   10 1
  19    9   57 1
  20    9   58 1
  21   10   11 1
  22   10   59 1
  23   10   60 1
  24   11   12 1
  25   11   61 1
  26   12   13 1
  27   12   62 1
  28   12   63 1
  29   13   64 1
  30   13   65 1
  31   14   15 ar
  32   14   19 ar
  33   15   16 ar
  34   15   43 1
  35   16   17 ar
  36   16   66 1
  37   17   18 ar
  38   17   67 1
  39   18   19 ar
  40   18   68 1
  41   19   22 1
  42   20   21 2
  43   20   22 am
  44   20   23 1
  45   22   69 1
  46   23   24 2
  47   23   27 1
  48   24   25 1
  49   25   26 2
  50   25   38 1
  51   26   27 1
  52   26   70 1
  53   27   28 1
  54   28   29 1
  55   28   71 1
  56   28   72 1
  57   29   30 1
  58   30   31 1
  59   30   73 1
  60   30   74 1
  61   31   32 1
  62   31   75 1
  63   31   76 1
  64   32   33 1
  65   32   34 1
  66   32   35 1
  67   33   77 1
  68   33   78 1
  69   33   79 1
  70   34   80 1
  71   34   81 1
  72   34   82 1
  73   35   83 1
  74   35   84 1
  75   35   85 1
  76   36   37 ar
  77   36   41 ar
  78   36   42 1
  79   37   38 ar
  80   37   86 1
  81   38   39 ar
  82   39   40 ar
  83   39   87 1
  84   40   41 ar
  85   40   88 1
  86   42   89 1
  87   42   90 1
  88   42   91 1
  89   44   45 1
  90   44   92 1
  91   44   93 1
  92   45   46 ar
  93   45   50 ar
  94   46   47 ar
  95   46   94 1
  96   47   48 ar
  97   47   95 1
  98   48   49 ar
  99   48   96 1
 100   49   50 ar
 101   49   97 1
 102   50   98 1

#	End of record

