#	Name: ASD06020048
#	Creating user name:	WinNT
#	Creation time:	15. 06. 2019 21:04

#	Modifying user name:	WinNT
#	Modification time:	15. 06. 2019 21:04

#	Program:	/corina/corina34_cracker 3.40 0067  02.08.2006

@<TRIPOS>MOLECULE
ASD06020048
  36   39    0    0    0
SMALL
NO_CHARGES


@<TRIPOS>ATOM
   1 N1            -0.0167     1.3826     0.0096 N.pl3   
   2 C2             1.6725    -1.7566    -0.1799 C.ar    
   3 N3             1.4497    -0.4583    -0.1511 N.ar    
   4 C4             0.2141     0.0155    -0.0207 C.ar    
   5 C5            -0.8474    -0.8858     0.0855 C.ar    
   6 C6            -0.5657    -2.2372     0.0503 C.ar    
   7 N7             0.6928    -2.6323    -0.0820 N.ar    
   8 C8            -1.6755    -3.2507     0.1616 C.3     
   9 C9             1.0571     2.2705     0.0147 C.ar    
  10 C10            0.8215     3.6469    -0.0677 C.ar    
  11 C11            1.9036     4.5341    -0.0622 C.ar    
  12 C12            3.2021     3.9679     0.0285 C.ar    
  13 C13            3.3402     2.6163     0.1047 C.ar    
  14 N14            2.2914     1.8077     0.1028 N.ar    
  15 S15           -0.6632     4.5849    -0.1859 S.3     
  16 C16            0.2698     6.0757    -0.2183 C.2     
  17 N17            1.5337     5.8131    -0.1453 N.2     
  18 F18            4.2928     4.7650     0.0386 F       
  19 C19           -0.3078     7.4329    -0.3152 C.ar    
  20 C20            0.5282     8.5515    -0.3332 C.ar    
  21 C21           -0.0185     9.8165    -0.4238 C.ar    
  22 C22           -1.3905     9.9771    -0.4962 C.ar    
  23 C23           -2.2247     8.8737    -0.4785 C.ar    
  24 C24           -1.6917     7.6024    -0.3949 C.ar    
  25 Cl25          -2.7400     6.2187    -0.3812 Cl      
  26 Cl26           2.2503     8.3524    -0.2413 Cl      
  27 H27           -0.9258     1.7208     0.0233 H       
  28 H28            2.6860    -2.1130    -0.2912 H       
  29 H29           -1.8631    -0.5346     0.1928 H       
  30 H30           -2.0495    -3.4906    -0.8337 H       
  31 H31           -1.2948    -4.1559     0.6347 H       
  32 H32           -2.4848    -2.8385     0.7643 H       
  33 H33            4.3311     2.1921     0.1732 H       
  34 H34            0.6267    10.6825    -0.4378 H       
  35 H35           -1.8126    10.9687    -0.5666 H       
  36 H36           -3.2950     9.0066    -0.5346 H       
@<TRIPOS>BOND
   1    1    4 1
   2    1    9 1
   3    1   27 1
   4    2    3 ar
   5    2    7 ar
   6    2   28 1
   7    3    4 ar
   8    4    5 ar
   9    5    6 ar
  10    5   29 1
  11    6    7 ar
  12    6    8 1
  13    8   30 1
  14    8   31 1
  15    8   32 1
  16    9   10 ar
  17    9   14 ar
  18   10   11 ar
  19   10   15 1
  20   11   12 ar
  21   11   17 1
  22   12   13 ar
  23   12   18 1
  24   13   14 ar
  25   13   33 1
  26   15   16 1
  27   16   17 2
  28   16   19 1
  29   19   20 ar
  30   19   24 ar
  31   20   21 ar
  32   20   26 1
  33   21   22 ar
  34   21   34 1
  35   22   23 ar
  36   22   35 1
  37   23   24 ar
  38   23   36 1
  39   24   25 1

#	End of record

