#	Name: ASD00460031
#	Creating user name:	WinNT
#	Creation time:	15. 06. 2019 18:36

#	Modifying user name:	WinNT
#	Modification time:	15. 06. 2019 18:36

#	Program:	/corina/corina34_cracker 3.40 0067  02.08.2006

@<TRIPOS>MOLECULE
ASD00460031
  73   77    0    0    0
SMALL
NO_CHARGES


@<TRIPOS>ATOM
   1 N1             3.2748    -2.6436     0.2123 N.1     
   2 C2             2.8553    -1.6032     0.0332 C.1     
   3 C3             2.3266    -0.2916    -0.1925 C.2     
   4 S4             3.2274     1.2201    -0.1109 S.3     
   5 C5             1.8173     2.1020    -0.5019 C.2     
   6 N6             0.8054     1.3071    -0.6669 N.2     
   7 C7             1.0221     0.0144    -0.5187 C.2     
   8 C8            -0.0365    -1.0091    -0.6764 C.ar    
   9 C9            -1.3443    -0.7310    -0.2788 C.ar    
  10 C10           -2.3261    -1.6888    -0.4283 C.ar    
  11 C11           -2.0157    -2.9229    -0.9712 C.ar    
  12 C12           -0.7205    -3.2047    -1.3675 C.ar    
  13 C13            0.2690    -2.2532    -1.2284 C.ar    
  14 N14            1.7620     3.4799    -0.6262 N.am    
  15 C15            2.8728     4.2189    -0.4348 C.2     
  16 O16            3.9233     3.6757    -0.1532 O.2     
  17 N17            2.8189     5.5602    -0.5558 N.am    
  18 C18            4.0263     6.3635    -0.3478 C.3     
  19 C19            4.7639     6.5294    -1.6779 C.3     
  20 C20            6.0248     7.3683    -1.4607 C.3     
  21 C21            6.8147     7.4291    -2.7426 C.ar    
  22 C22            6.1964     7.8126    -3.9180 C.ar    
  23 C23            6.9210     7.8683    -5.0939 C.ar    
  24 C24            8.2640     7.5409    -5.0944 C.ar    
  25 C25            8.8826     7.1582    -3.9188 C.ar    
  26 C26            8.1590     7.1067    -2.7421 C.ar    
  27 C27            5.6346     8.7632    -1.0445 C.ar    
  28 C28            6.1890     9.3266     0.0895 C.ar    
  29 C29            5.8311    10.6061     0.4713 C.ar    
  30 C30            4.9190    11.3222    -0.2812 C.ar    
  31 C31            4.3653    10.7591    -1.4157 C.ar    
  32 C32            4.7265     9.4813    -1.7999 C.ar    
  33 C33            1.5530     6.2148    -0.8952 C.3     
  34 C34            0.7951     6.5564     0.3892 C.3     
  35 N35           -0.4743     7.2129     0.0488 N.3     
  36 C36           -1.3347     7.3425     1.2338 C.3     
  37 C37           -2.6178     8.0831     0.8476 C.3     
  38 O38           -3.2650     7.3815    -0.2174 O.3     
  39 C39           -2.4556     7.2376    -1.3877 C.3     
  40 C40           -1.1709     6.4884    -1.0241 C.3     
  41 H41           -1.5878     0.2319     0.1455 H       
  42 H42           -3.3390    -1.4749    -0.1205 H       
  43 H43           -2.7876    -3.6695    -1.0859 H       
  44 H44           -0.4842    -4.1700    -1.7903 H       
  45 H45            1.2797    -2.4742    -1.5385 H       
  46 H46            0.9239     3.9134    -0.8509 H       
  47 H47            3.7482     7.3442     0.0383 H       
  48 H48            4.6772     5.8623     0.3686 H       
  49 H49            5.0420     5.5487    -2.0640 H       
  50 H50            4.1129     7.0306    -2.3943 H       
  51 H51            6.6339     6.9132    -0.6798 H       
  52 H52            5.1471     8.0684    -3.9176 H       
  53 H53            6.4378     8.1673    -6.0123 H       
  54 H54            8.8300     7.5837    -6.0132 H       
  55 H55            9.9317     6.9021    -3.9192 H       
  56 H56            8.6422     6.8078    -1.8237 H       
  57 H57            6.9016     8.7671     0.6774 H       
  58 H58            6.2637    11.0461     1.3577 H       
  59 H59            4.6388    12.3216     0.0175 H       
  60 H60            3.6525    11.3185    -2.0034 H       
  61 H61            4.2939     9.0413    -2.6863 H       
  62 H62            1.7550     7.1298    -1.4521 H       
  63 H63            0.9492     5.5436    -1.5058 H       
  64 H64            0.5931     5.6415     0.9461 H       
  65 H65            1.3989     7.2277     0.9998 H       
  66 H66           -1.5861     6.3513     1.6112 H       
  67 H67           -0.8087     7.9040     2.0059 H       
  68 H68           -3.2836     8.1313     1.7093 H       
  69 H69           -2.3707     9.0931     0.5208 H       
  70 H70           -3.0042     6.6743    -2.1426 H       
  71 H71           -2.2038     8.2231    -1.7795 H       
  72 H72           -0.5254     6.4265    -1.9002 H       
  73 H73           -1.4197     5.4836    -0.6828 H       
@<TRIPOS>BOND
   1    1    2 3
   2    2    3 1
   3    3    4 1
   4    3    7 2
   5    4    5 1
   6    5    6 2
   7    5   14 1
   8    6    7 1
   9    7    8 1
  10    8    9 ar
  11    8   13 ar
  12    9   10 ar
  13    9   41 1
  14   10   11 ar
  15   10   42 1
  16   11   12 ar
  17   11   43 1
  18   12   13 ar
  19   12   44 1
  20   13   45 1
  21   14   15 am
  22   14   46 1
  23   15   16 2
  24   15   17 am
  25   17   18 1
  26   17   33 1
  27   18   19 1
  28   18   47 1
  29   18   48 1
  30   19   20 1
  31   19   49 1
  32   19   50 1
  33   20   21 1
  34   20   27 1
  35   20   51 1
  36   21   22 ar
  37   21   26 ar
  38   22   23 ar
  39   22   52 1
  40   23   24 ar
  41   23   53 1
  42   24   25 ar
  43   24   54 1
  44   25   26 ar
  45   25   55 1
  46   26   56 1
  47   27   28 ar
  48   27   32 ar
  49   28   29 ar
  50   28   57 1
  51   29   30 ar
  52   29   58 1
  53   30   31 ar
  54   30   59 1
  55   31   32 ar
  56   31   60 1
  57   32   61 1
  58   33   34 1
  59   33   62 1
  60   33   63 1
  61   34   35 1
  62   34   64 1
  63   34   65 1
  64   35   36 1
  65   35   40 1
  66   36   37 1
  67   36   66 1
  68   36   67 1
  69   37   38 1
  70   37   68 1
  71   37   69 1
  72   38   39 1
  73   39   40 1
  74   39   70 1
  75   39   71 1
  76   40   72 1
  77   40   73 1

#	End of record

