#	Name: ASD01811956
#	Creating user name:	WinNT
#	Creation time:	15. 06. 2019 19:27

#	Modifying user name:	WinNT
#	Modification time:	15. 06. 2019 19:27

#	Program:	/corina/corina34_cracker 3.40 0067  02.08.2006

@<TRIPOS>MOLECULE
ASD01811956
  40   43    0    0    0
SMALL
NO_CHARGES


@<TRIPOS>ATOM
   1 C1             0.0425     1.0627     0.2875 C.ar    
   2 C2             0.0851    -0.3158     0.1515 C.ar    
   3 C3             1.2947    -0.9559    -0.0003 C.ar    
   4 C4             2.4911    -0.2233    -0.0189 C.ar    
   5 C5             2.4450     1.1629     0.1190 C.ar    
   6 C6             1.2092     1.7950     0.2712 C.ar    
   7 C7             3.7465    -0.9718    -0.1877 C.2     
   8 N8             4.7378    -0.5917    -0.9143 N.2     
   9 C9             4.7106     0.6658    -1.6602 C.3     
  10 C10            4.6240     1.8084    -0.6856 C.2     
  11 N11            3.5742     1.9659     0.1166 N.am    
  12 S12            5.8253     2.8610    -0.6111 S.2     
  13 C13            3.8791    -2.2584     0.5329 C.ar    
  14 C14            3.9741    -3.4538    -0.1794 C.ar    
  15 C15            4.0974    -4.6495     0.4975 C.ar    
  16 C16            4.1271    -4.6663     1.8809 C.ar    
  17 C17            4.0331    -3.4862     2.5953 C.ar    
  18 C18            3.9154    -2.2800     1.9296 C.ar    
  19 Cl19          -1.3868    -1.2359     0.1731 Cl      
  20 C20            3.5097     0.6867    -2.5705 C.ar    
  21 C21            2.8654     1.8803    -2.8373 C.ar    
  22 C22            1.7639     1.8995    -3.6723 C.ar    
  23 C23            1.3070     0.7252    -4.2408 C.ar    
  24 C24            1.9519    -0.4682    -3.9748 C.ar    
  25 C25            3.0560    -0.4867    -3.1433 C.ar    
  26 F26            3.8236    -1.1271     2.6278 F       
  27 H27           -0.9072     1.5640     0.4019 H       
  28 H28            1.3228    -2.0304    -0.1055 H       
  29 H29            1.1676     2.8690     0.3769 H       
  30 H30            5.6211     0.7590    -2.2521 H       
  31 H31            3.6015     2.7005     0.7495 H       
  32 H32            3.9508    -3.4434    -1.2591 H       
  33 H33            4.1706    -5.5752    -0.0539 H       
  34 H34            4.2238    -5.6056     2.4050 H       
  35 H35            4.0562    -3.5062     3.6748 H       
  36 H36            3.2223     2.7977    -2.3931 H       
  37 H37            1.2600     2.8319    -3.8801 H       
  38 H38            0.4460     0.7401    -4.8926 H       
  39 H39            1.5947    -1.3856    -4.4188 H       
  40 H40            3.5599    -1.4191    -2.9355 H       
@<TRIPOS>BOND
   1    1    2 ar
   2    1    6 ar
   3    1   27 1
   4    2    3 ar
   5    2   19 1
   6    3    4 ar
   7    3   28 1
   8    4    5 ar
   9    4    7 1
  10    5    6 ar
  11    5   11 1
  12    6   29 1
  13    7    8 2
  14    7   13 1
  15    8    9 1
  16    9   10 1
  17    9   20 1
  18    9   30 1
  19   10   11 am
  20   10   12 2
  21   11   31 1
  22   13   14 ar
  23   13   18 ar
  24   14   15 ar
  25   14   32 1
  26   15   16 ar
  27   15   33 1
  28   16   17 ar
  29   16   34 1
  30   17   18 ar
  31   17   35 1
  32   18   26 1
  33   20   21 ar
  34   20   25 ar
  35   21   22 ar
  36   21   36 1
  37   22   23 ar
  38   22   37 1
  39   23   24 ar
  40   23   38 1
  41   24   25 ar
  42   24   39 1
  43   25   40 1

#	End of record

