#	Name: ASD02030724
#	Creating user name:	WinNT
#	Creation time:	15. 06. 2019 20:15

#	Modifying user name:	WinNT
#	Modification time:	15. 06. 2019 20:15

#	Program:	/corina/corina34_cracker 3.40 0067  02.08.2006

@<TRIPOS>MOLECULE
ASD02030724
  31   33    0    0    0
SMALL
NO_CHARGES


@<TRIPOS>ATOM
   1 N1            -0.0169     1.3957     0.0097 N.2     
   2 N2             0.0021    -0.0041     0.0020 N.am    
   3 C3             1.1646    -0.6797    -0.0123 C.2     
   4 N4             2.3448    -0.0325    -0.0200 N.am    
   5 C5             2.3757     1.3164    -0.0131 C.2     
   6 C6             1.1074     2.0610     0.0026 C.2     
   7 O7             1.1494    -1.8958    -0.0178 O.2     
   8 O8             3.4386     1.9089    -0.0192 O.2     
   9 O9             1.1051     3.4197     0.0094 O.3     
  10 C10           -1.2627    -0.7434     0.0101 C.3     
  11 C11           -1.6892    -1.0085     1.4554 C.3     
  12 N12           -2.9539    -1.7478     1.4635 N.pl3   
  13 N13           -3.0796    -3.1409     1.4577 N.2     
  14 C14           -4.3380    -3.4765     1.4677 C.2     
  15 C15           -5.1267    -2.2487     1.4812 C.ar    
  16 C16           -6.4988    -1.9741     1.4960 C.ar    
  17 C17           -6.9277    -0.6786     1.5071 C.ar    
  18 C18           -6.0151     0.3693     1.5034 C.ar    
  19 C19           -4.6710     0.1266     1.4886 C.ar    
  20 C20           -4.2034    -1.1854     1.4839 C.ar    
  21 H21            3.1737    -0.5362    -0.0303 H       
  22 H22            0.2211     3.8114     0.0197 H       
  23 H23           -2.0303    -0.1556    -0.4933 H       
  24 H24           -1.1322    -1.6923    -0.5101 H       
  25 H25           -0.9215    -1.5962     1.9587 H       
  26 H26           -1.8197    -0.0596     1.9756 H       
  27 H27           -4.7282    -4.4835     1.4658 H       
  28 H28           -7.2145    -2.7830     1.4982 H       
  29 H29           -7.9864    -0.4658     1.5186 H       
  30 H30           -6.3730     1.3883     1.5120 H       
  31 H31           -3.9723     0.9501     1.4855 H       
@<TRIPOS>BOND
   1    1    2 1
   2    1    6 2
   3    2    3 am
   4    2   10 1
   5    3    4 am
   6    3    7 2
   7    4    5 am
   8    4   21 1
   9    5    6 1
  10    5    8 2
  11    6    9 1
  12    9   22 1
  13   10   11 1
  14   10   23 1
  15   10   24 1
  16   11   12 1
  17   11   25 1
  18   11   26 1
  19   12   13 1
  20   12   20 1
  21   13   14 2
  22   14   15 1
  23   14   27 1
  24   15   16 ar
  25   15   20 ar
  26   16   17 ar
  27   16   28 1
  28   17   18 ar
  29   17   29 1
  30   18   19 ar
  31   18   30 1
  32   19   20 ar
  33   19   31 1

#	End of record

