#	Name: ASD03092454
#	Creating user name:	WinNT
#	Creation time:	15. 06. 2019 20:32

#	Modifying user name:	WinNT
#	Modification time:	15. 06. 2019 20:32

#	Program:	/corina/corina34_cracker 3.40 0067  02.08.2006

@<TRIPOS>MOLECULE
ASD03092454
  62   65    0    0    0
SMALL
NO_CHARGES


@<TRIPOS>ATOM
   1 N1             0.6081     2.2194    -0.3264 N.pl3   
   2 N2             0.4457     0.8297    -0.3489 N.2     
   3 C3             1.6209     0.2661    -0.2953 C.2     
   4 C4             2.5939     1.2889    -0.2355 C.2     
   5 C5             1.9205     2.4937    -0.2571 C.2     
   6 C6             4.0547     1.1039    -0.1631 C.2     
   7 O7             4.7886     2.0724    -0.1156 O.2     
   8 N8             4.5769    -0.1385    -0.1496 N.am    
   9 C9             2.5439     3.8649    -0.2114 C.3     
  10 C10           -0.4717     3.2083    -0.3762 C.3     
  11 C11            6.0285    -0.3223    -0.0777 C.3     
  12 S12            6.8957    -4.1669     0.6045 S.3     
  13 C13            6.7342    -3.7644    -1.0490 C.2     
  14 N14            6.4537    -2.5027    -1.1805 N.2     
  15 C15            6.3490    -1.7948    -0.0768 C.2     
  16 C16            6.5529    -2.4989     1.0563 C.2     
  17 C17            7.4236    -1.7258     4.6267 C.ar    
  18 C18            7.5152    -2.2452     3.3536 C.ar    
  19 C19            6.4978    -1.9657     2.4314 C.ar    
  20 C20            5.4270    -1.1652     2.8513 C.ar    
  21 C21            5.4166    -0.6884     4.1442 C.ar    
  22 N22            6.3965    -0.9758     4.9810 N.ar    
  23 C23            4.2712     0.1735     4.6091 C.3     
  24 C24            8.5074    -2.0237     5.6306 C.3     
  25 N25            6.8815    -4.6547    -2.0971 N.3     
  26 C26            7.1969    -6.0029    -1.6029 C.3     
  27 C27            7.4099    -6.9404    -2.7943 C.3     
  28 O28            6.2427    -6.9259    -3.6206 O.3     
  29 C29            5.9068    -5.6285    -4.1198 C.3     
  30 C30            5.6785    -4.6777    -2.9419 C.3     
  31 C31            4.6303    -5.7186    -4.9585 C.3     
  32 C32            7.6594    -8.3623    -2.2873 C.3     
  33 H33            1.8160    -0.7962    -0.2959 H       
  34 H34            3.9915    -0.9111    -0.1875 H       
  35 H35            2.6427     4.1847     0.8259 H       
  36 H36            3.5290     3.8319    -0.6768 H       
  37 H37            1.9110     4.5700    -0.7503 H       
  38 H38           -0.7958     3.4438     0.6375 H       
  39 H39           -0.1118     4.1150    -0.8625 H       
  40 H40           -1.3109     2.8018    -0.9407 H       
  41 H41            6.4979     0.1512    -0.9400 H       
  42 H42            6.4074     0.1325     0.8376 H       
  43 H43            8.3585    -2.8577     3.0707 H       
  44 H44            4.6224    -0.9255     2.1720 H       
  45 H45            3.4873    -0.4583     5.0268 H       
  46 H46            4.6246     0.8666     5.3725 H       
  47 H47            3.8732     0.7356     3.7643 H       
  48 H48            9.2809    -1.2583     5.5679 H       
  49 H49            8.0818    -2.0288     6.6340 H       
  50 H50            8.9434    -2.9993     5.4158 H       
  51 H51            8.1050    -5.9667    -1.0012 H       
  52 H52            6.3705    -6.3699    -0.9941 H       
  53 H53            8.2699    -6.6036    -3.3732 H       
  54 H54            6.7231    -5.2536    -4.7373 H       
  55 H55            4.8279    -5.0235    -2.3545 H       
  56 H56            5.4784    -3.6743    -3.3176 H       
  57 H57            3.8145    -6.0918    -4.3395 H       
  58 H58            4.3749    -4.7295    -5.3387 H       
  59 H59            4.7923    -6.3987    -5.7948 H       
  60 H60            6.7980    -8.6986    -1.7102 H       
  61 H61            7.8110    -9.0292    -3.1359 H       
  62 H62            8.5468    -8.3719    -1.6545 H       
@<TRIPOS>BOND
   1    1    2 1
   2    1    5 1
   3    1   10 1
   4    2    3 2
   5    3    4 1
   6    3   33 1
   7    4    5 2
   8    4    6 1
   9    5    9 1
  10    6    7 2
  11    6    8 am
  12    8   11 1
  13    8   34 1
  14    9   35 1
  15    9   36 1
  16    9   37 1
  17   10   38 1
  18   10   39 1
  19   10   40 1
  20   11   15 1
  21   11   41 1
  22   11   42 1
  23   12   13 1
  24   12   16 1
  25   13   14 2
  26   13   25 1
  27   14   15 1
  28   15   16 2
  29   16   19 1
  30   17   18 ar
  31   17   22 ar
  32   17   24 1
  33   18   19 ar
  34   18   43 1
  35   19   20 ar
  36   20   21 ar
  37   20   44 1
  38   21   22 ar
  39   21   23 1
  40   23   45 1
  41   23   46 1
  42   23   47 1
  43   24   48 1
  44   24   49 1
  45   24   50 1
  46   25   26 1
  47   25   30 1
  48   26   27 1
  49   26   51 1
  50   26   52 1
  51   27   28 1
  52   27   32 1
  53   27   53 1
  54   28   29 1
  55   29   30 1
  56   29   31 1
  57   29   54 1
  58   30   55 1
  59   30   56 1
  60   31   57 1
  61   31   58 1
  62   31   59 1
  63   32   60 1
  64   32   61 1
  65   32   62 1

#	End of record

