#	Name: ASD01916199
#	Creating user name:	WinNT
#	Creation time:	15. 06. 2019 20:06

#	Modifying user name:	WinNT
#	Modification time:	15. 06. 2019 20:06

#	Program:	/corina/corina34_cracker 3.40 0067  02.08.2006

@<TRIPOS>MOLECULE
ASD01916199
  43   45    0    0    0
SMALL
NO_CHARGES


@<TRIPOS>ATOM
   1 C1            -0.4113     1.7411     0.1046 C.ar    
   2 C2            -0.5443     0.3909     0.3731 C.ar    
   3 N3             0.4987    -0.3395     0.7064 N.ar    
   4 C4             1.7167     0.1818     0.7994 C.ar    
   5 C5             1.9303     1.5327     0.5447 C.ar    
   6 C6             0.8467     2.3318     0.1894 C.ar    
   7 C7            -1.9036    -0.2535     0.2833 C.3     
   8 O8             1.0127     3.6542    -0.0676 O.3     
   9 C9             2.2644     4.1727     0.0387 C.ar    
  10 C10            3.1953     3.9767    -0.9717 C.ar    
  11 N11            4.4109     4.4766    -0.8739 N.ar    
  12 C12            4.7918     5.1775     0.1761 C.ar    
  13 C13            3.9198     5.4162     1.2249 C.ar    
  14 C14            2.6285     4.9119     1.1591 C.ar    
  15 C15            2.8582    -0.6831     1.1782 C.2     
  16 N16            2.6581    -1.9926     1.4267 N.am    
  17 O17            3.9749    -0.2119     1.2649 O.2     
  18 C18            3.7450    -2.8281     1.6798 C.ar    
  19 C19            3.5433    -4.1962     1.8198 C.ar    
  20 C20            4.6303    -5.0153     2.0704 C.ar    
  21 C21            5.8884    -4.4338     2.1729 C.ar    
  22 C22            6.0148    -3.0646     2.0224 C.ar    
  23 N23            4.9595    -2.3113     1.7790 N.ar    
  24 C24           -1.8409    -1.4451    -0.6744 C.3     
  25 C25            7.3755    -2.4263     2.1320 C.3     
  26 F26            4.3194     6.1354     2.2964 F       
  27 F27            6.9758    -5.1973     2.4173 F       
  28 H28           -1.2733     2.3300    -0.1723 H       
  29 H29            2.9213     1.9552     0.6215 H       
  30 H30           -2.2087    -0.5974     1.2717 H       
  31 H31           -2.6264     0.4731    -0.0877 H       
  32 H32            2.9208     3.4079    -1.8477 H       
  33 H33            5.7970     5.5701     0.2189 H       
  34 H34            1.9251     5.0857     1.9600 H       
  35 H35            1.7578    -2.3537     1.4293 H       
  36 H36            2.5513    -4.6145     1.7344 H       
  37 H37            4.5037    -6.0818     2.1842 H       
  38 H38           -1.5359    -1.1012    -1.6627 H       
  39 H39           -1.1181    -2.1717    -0.3034 H       
  40 H40           -2.8241    -1.9112    -0.7393 H       
  41 H41            7.8432    -2.3964     1.1479 H       
  42 H42            7.2709    -1.4114     2.5156 H       
  43 H43            7.9966    -3.0094     2.8119 H       
@<TRIPOS>BOND
   1    1    2 ar
   2    1    6 ar
   3    1   28 1
   4    2    3 ar
   5    2    7 1
   6    3    4 ar
   7    4    5 ar
   8    4   15 1
   9    5    6 ar
  10    5   29 1
  11    6    8 1
  12    7   24 1
  13    7   30 1
  14    7   31 1
  15    8    9 1
  16    9   10 ar
  17    9   14 ar
  18   10   11 ar
  19   10   32 1
  20   11   12 ar
  21   12   13 ar
  22   12   33 1
  23   13   26 1
  24   13   14 ar
  25   14   34 1
  26   15   16 am
  27   15   17 2
  28   16   18 1
  29   16   35 1
  30   18   19 ar
  31   18   23 ar
  32   19   20 ar
  33   19   36 1
  34   20   21 ar
  35   20   37 1
  36   21   22 ar
  37   21   27 1
  38   22   23 ar
  39   22   25 1
  40   24   38 1
  41   24   39 1
  42   24   40 1
  43   25   41 1
  44   25   42 1
  45   25   43 1

#	End of record

