#	Name: ASD01040051
#	Creating user name:	WinNT
#	Creation time:	15. 06. 2019 18:58

#	Modifying user name:	WinNT
#	Modification time:	15. 06. 2019 18:58

#	Program:	/corina/corina34_cracker 3.40 0067  02.08.2006

@<TRIPOS>MOLECULE
ASD01040051
  48   50    0    0    0
SMALL
NO_CHARGES


@<TRIPOS>ATOM
   1 O1            -0.0163     1.3545     0.0095 O.3     
   2 C2             0.0021    -0.0041     0.0020 C.ar    
   3 C3             0.0058    -0.6902    -1.2051 C.ar    
   4 C4             0.0245    -2.0689    -1.2160 C.ar    
   5 C5             0.0401    -2.7740    -0.0132 C.ar    
   6 C6             0.0607    -4.2565    -0.0214 C.2     
   7 C7            -1.0952    -5.0110    -0.5625 C.ar    
   8 C8            -0.9435    -5.7981    -1.7033 C.ar    
   9 C9            -2.0205    -6.4986    -2.2040 C.ar    
  10 C10           -3.2552    -6.4203    -1.5738 C.ar    
  11 O11           -4.3145    -7.1116    -2.0696 O.3     
  12 C12           -3.4096    -5.6373    -0.4376 C.ar    
  13 C13           -2.3349    -4.9394     0.0717 C.ar    
  14 C14            1.1231    -4.9138     0.4598 C.2     
  15 C15            2.3128    -4.1634     1.0164 C.3     
  16 C16            2.6336    -4.7215     2.4069 C.3     
  17 C17            2.8307    -6.2355     2.3138 C.3     
  18 C18            1.5268    -6.9020     1.8720 C.3     
  19 C19            1.7024    -8.4218     1.8664 C.3     
  20 C20            1.9447    -8.9125     3.2952 C.3     
  21 O21            2.1087   -10.3320     3.2900 O.3     
  22 C22            1.1618    -6.4260     0.4666 C.3     
  23 C23            0.0368    -2.0820     1.1973 C.ar    
  24 C24            0.0230    -0.7032     1.2014 C.ar    
  25 H25            0.8616     1.7598     0.0033 H       
  26 H26           -0.0063    -0.1435    -2.1364 H       
  27 H27            0.0266    -2.6021    -2.1553 H       
  28 H28            0.0164    -5.8589    -2.1944 H       
  29 H29           -1.9037    -7.1085    -3.0877 H       
  30 H30           -4.4067    -8.0034    -1.7071 H       
  31 H31           -4.3712    -5.5784     0.0504 H       
  32 H32           -2.4544    -4.3343     0.9583 H       
  33 H33            3.1719    -4.3005     0.3597 H       
  34 H34            2.0743    -3.1024     1.0906 H       
  35 H35            3.5461    -4.2586     2.7827 H       
  36 H36            1.8089    -4.5033     3.0854 H       
  37 H37            3.6138    -6.4550     1.5880 H       
  38 H38            3.1222    -6.6236     3.2897 H       
  39 H39            0.7313    -6.6303     2.5658 H       
  40 H40            0.8018    -8.8902     1.4692 H       
  41 H41            2.5554    -8.6867     1.2417 H       
  42 H42            2.8452    -8.4441     3.6924 H       
  43 H43            1.0916    -8.6476     3.9199 H       
  44 H44            2.2664   -10.7129     4.1648 H       
  45 H45            0.1830    -6.8185     0.1911 H       
  46 H46            1.9125    -6.7762    -0.2418 H       
  47 H47            0.0485    -2.6254     2.1306 H       
  48 H48            0.0242    -0.1666     2.1387 H       
@<TRIPOS>BOND
   1    1    2 1
   2    1   25 1
   3    2   24 ar
   4    2    3 ar
   5    3    4 ar
   6    3   26 1
   7    4    5 ar
   8    4   27 1
   9    5   23 ar
  10    5    6 1
  11    6   14 2
  12    6    7 1
  13    7   13 ar
  14    7    8 ar
  15    8   28 1
  16    8    9 ar
  17    9   10 ar
  18    9   29 1
  19   10   12 ar
  20   10   11 1
  21   11   30 1
  22   12   13 ar
  23   12   31 1
  24   13   32 1
  25   14   15 1
  26   14   22 1
  27   15   33 1
  28   15   34 1
  29   15   16 1
  30   16   17 1
  31   16   35 1
  32   16   36 1
  33   17   37 1
  34   17   38 1
  35   17   18 1
  36   18   22 1
  37   18   19 1
  38   18   39 1
  39   19   40 1
  40   19   41 1
  41   19   20 1
  42   20   42 1
  43   20   43 1
  44   20   21 1
  45   21   44 1
  46   22   45 1
  47   22   46 1
  48   23   47 1
  49   23   24 ar
  50   24   48 1

#	End of record

