#	Name: ASD01814546
#	Creating user name:	WinNT
#	Creation time:	15. 06. 2019 19:32

#	Modifying user name:	WinNT
#	Modification time:	15. 06. 2019 19:32

#	Program:	/corina/corina34_cracker 3.40 0067  02.08.2006

@<TRIPOS>MOLECULE
ASD01814546
  74   78    0    0    0
SMALL
NO_CHARGES


@<TRIPOS>ATOM
   1 C1            -0.0168     1.3882     0.0097 C.ar    
   2 C2             0.0021    -0.0041     0.0020 C.ar    
   3 C3             1.1795    -0.6891    -0.0124 C.ar    
   4 C4             2.3944     0.0147    -0.0202 C.ar    
   5 C5             2.3745     1.4312    -0.0129 C.ar    
   6 C6             1.1424     2.1038     0.0024 C.ar    
   7 C7             3.6273    -0.6667    -0.0345 C.ar    
   8 C8             4.7911     0.0287    -0.0410 C.ar    
   9 C9             4.7929     1.4362    -0.0341 C.ar    
  10 C10            3.5923     2.1420    -0.0203 C.ar    
  11 O11            3.5945     3.4965    -0.0140 O.3     
  12 C12            3.5844     4.1511    -1.2841 C.3     
  13 C13            6.0721     2.1670    -0.0414 C.2     
  14 O14            6.0777     3.3832    -0.0354 O.2     
  15 N15            7.2362     1.4879    -0.0548 N.am    
  16 C16            3.6526    -2.1735    -0.0423 C.3     
  17 N17            3.4082    -2.6604    -1.4065 N.3     
  18 C18            3.6582    -4.1042    -1.5027 C.3     
  19 C19            4.2134    -1.9159    -2.3831 C.3     
  20 C20            3.8275    -2.3478    -3.7996 C.3     
  21 C21            4.0681    -3.8522    -3.9526 C.3     
  22 C22            3.2556    -4.6015    -2.8929 C.3     
  23 C23            3.6336    -4.2946    -5.3262 C.ar    
  24 N24            2.8753    -3.5011    -6.0568 N.ar    
  25 C25            2.4712    -3.8463    -7.2638 C.ar    
  26 C26            2.8321    -5.0637    -7.8088 C.ar    
  27 C27            3.6291    -5.9251    -7.0700 C.ar    
  28 C28            4.0393    -5.5251    -5.8077 C.ar    
  29 C29            8.5082     2.2146    -0.0621 C.3     
  30 C30            8.9010     2.5696     1.3734 C.3     
  31 C31            9.5942     1.3354    -0.6854 C.3     
  32 C32           10.9227     2.0944    -0.6931 C.3     
  33 C33           11.3155     2.4494     0.7424 C.3     
  34 C34           10.2295     3.3285     1.3658 C.3     
  35 O35            9.2274     1.0039    -2.0261 O.3     
  36 C36            4.0441    -7.2619    -7.6284 C.3     
  37 C37            5.4997    -4.1424    -3.7709 C.1     
  38 N38            6.6046    -4.3663    -3.6307 N.1     
  39 H39           -0.9635     1.9079     0.0170 H       
  40 H40           -0.9304    -0.5489     0.0080 H       
  41 H41            1.1785    -1.7691    -0.0175 H       
  42 H42            1.1136     3.1834     0.0085 H       
  43 H43            5.7301    -0.5049    -0.0514 H       
  44 H44            4.4690     3.8595    -1.8503 H       
  45 H45            2.6891     3.8623    -1.8347 H       
  46 H46            3.5874     5.2311    -1.1363 H       
  47 H47            7.2317     0.5179    -0.0596 H       
  48 H48            4.6274    -2.5222     0.2988 H       
  49 H49            2.8775    -2.5533     0.6234 H       
  50 H50            4.7177    -4.3010    -1.3393 H       
  51 H51            3.0713    -4.6255    -0.7465 H       
  52 H52            4.0298    -0.8478    -2.2664 H       
  53 H53            5.2704    -2.1229    -2.2156 H       
  54 H54            2.7739    -2.1283    -3.9726 H       
  55 H55            4.4362    -1.8064    -4.5237 H       
  56 H56            3.4559    -5.6702    -2.9692 H       
  57 H57            2.1931    -4.4175    -3.0516 H       
  58 H58            1.8507    -3.1698    -7.8328 H       
  59 H59            2.4975    -5.3410    -8.7975 H       
  60 H60            4.6609    -6.1704    -5.2047 H       
  61 H61            8.4011     3.1287    -0.6461 H       
  62 H62            8.1273     3.1959     1.8175 H       
  63 H63            9.0081     1.6555     1.9574 H       
  64 H64            9.7014     0.4214    -0.1014 H       
  65 H65           11.6964     1.4681    -1.1371 H       
  66 H66           10.8156     3.0085    -1.2771 H       
  67 H67           11.4226     1.5353     1.3264 H       
  68 H68           12.2619     2.9901     0.7370 H       
  69 H69           10.1223     4.2426     0.7818 H       
  70 H70           10.5093     3.5815     2.3884 H       
  71 H71            9.8717     0.4467    -2.4839 H       
  72 H72            4.9849    -7.1540    -8.1683 H       
  73 H73            4.1733    -7.9725    -6.8120 H       
  74 H74            3.2745    -7.6262    -8.3089 H       
@<TRIPOS>BOND
   1    1    2 ar
   2    1    6 ar
   3    1   39 1
   4    2    3 ar
   5    2   40 1
   6    3    4 ar
   7    3   41 1
   8    4    5 ar
   9    4    7 ar
  10    5    6 ar
  11    5   10 ar
  12    6   42 1
  13    7    8 ar
  14    7   16 1
  15    8    9 ar
  16    8   43 1
  17    9   10 ar
  18    9   13 1
  19   10   11 1
  20   11   12 1
  21   12   44 1
  22   12   45 1
  23   12   46 1
  24   13   14 2
  25   13   15 am
  26   15   29 1
  27   15   47 1
  28   16   17 1
  29   16   48 1
  30   16   49 1
  31   17   18 1
  32   17   19 1
  33   18   22 1
  34   18   50 1
  35   18   51 1
  36   19   20 1
  37   19   52 1
  38   19   53 1
  39   20   21 1
  40   20   54 1
  41   20   55 1
  42   21   22 1
  43   21   23 1
  44   21   37 1
  45   22   56 1
  46   22   57 1
  47   23   24 ar
  48   23   28 ar
  49   24   25 ar
  50   25   26 ar
  51   25   58 1
  52   26   27 ar
  53   26   59 1
  54   27   28 ar
  55   27   36 1
  56   28   60 1
  57   29   30 1
  58   29   31 1
  59   29   61 1
  60   30   34 1
  61   30   62 1
  62   30   63 1
  63   31   32 1
  64   31   35 1
  65   31   64 1
  66   32   33 1
  67   32   65 1
  68   32   66 1
  69   33   34 1
  70   33   67 1
  71   33   68 1
  72   34   69 1
  73   34   70 1
  74   35   71 1
  75   36   72 1
  76   36   73 1
  77   36   74 1
  78   37   38 3

#	End of record

