#	Name: ASD01200007
#	Creating user name:	WinNT
#	Creation time:	15. 06. 2019 19:08

#	Modifying user name:	WinNT
#	Modification time:	15. 06. 2019 19:08

#	Program:	/corina/corina34_cracker 3.40 0067  02.08.2006

@<TRIPOS>MOLECULE
ASD01200007
  52   55    0    0    0
SMALL
NO_CHARGES


@<TRIPOS>ATOM
   1 C1            -0.1501     1.8265    -0.1161 C.ar    
   2 C2            -0.0210     0.3267    -0.1859 C.3     
   3 C3            -0.7798    -0.1878    -1.3819 C.2     
   4 N4            -0.7065    -1.4912    -1.7169 N.am    
   5 C5            -1.4880    -1.9875    -2.7551 C.2     
   6 O6            -1.4566     0.5711    -2.0431 O.2     
   7 C7            -0.5959    -0.2945     1.0887 C.3     
   8 C8             0.2505     0.1311     2.2901 C.3     
   9 S9            -1.5060    -3.6591    -3.3108 S.3     
  10 C10           -2.7083    -3.2375    -4.5285 C.2     
  11 C11           -2.9786    -1.9352    -4.4155 C.2     
  12 N12           -2.3241    -1.2942    -3.4652 N.2     
  13 C13            0.9798     2.6209    -0.1733 C.ar    
  14 C14            0.8614     3.9967    -0.1093 C.ar    
  15 C15           -0.3869     4.5781     0.0114 C.ar    
  16 C16           -1.5169     3.7837     0.0677 C.ar    
  17 C17           -1.3988     2.4081    -0.0007 C.ar    
  18 S18           -0.5378     6.3317     0.0942 S.o2    
  19 O19           -1.7496     6.5460     0.8048 O.2     
  20 O20            0.7078     6.7660     0.6223 O.2     
  21 C21           -0.7128     6.8530    -1.6345 C.3     
  22 C22           -0.7494     8.3559    -1.9188 C.3     
  23 C23            0.4881     7.5368    -2.2912 C.3     
  24 C24           -0.4078    -0.3638     3.5817 C.3     
  25 C25            0.4853    -0.0021     4.7714 C.3     
  26 O26            1.7797    -0.5787     4.5863 O.3     
  27 C27            2.4626    -0.1168     3.4191 C.3     
  28 C28            1.6490    -0.4830     2.1750 C.3     
  29 F29           -3.2609    -4.0862    -5.4227 F       
  30 H30            1.0309     0.0565    -0.2792 H       
  31 H31           -0.1088    -2.0832    -1.2340 H       
  32 H32           -1.6219     0.0461     1.2281 H       
  33 H33           -0.5825    -1.3809     1.0014 H       
  34 H34            0.3289     1.2180     2.3141 H       
  35 H35           -3.6906    -1.4385    -5.0580 H       
  36 H36            1.9551     2.1667    -0.2677 H       
  37 H37            1.7442     4.6173    -0.1533 H       
  38 H38           -2.4921     4.2379     0.1624 H       
  39 H39           -2.2816     1.7875     0.0433 H       
  40 H40           -1.3289     6.2072    -2.2602 H       
  41 H41           -1.3893     8.6988    -2.7319 H       
  42 H42           -0.6683     9.0314    -1.0672 H       
  43 H43            1.3833     7.6733    -1.6845 H       
  44 H44            0.6623     7.3408    -3.3491 H       
  45 H45           -1.3816     0.1115     3.6995 H       
  46 H46           -0.5326    -1.4456     3.5356 H       
  47 H47            0.5767     1.0818     4.8410 H       
  48 H48            0.0427    -0.3895     5.6891 H       
  49 H49            2.5800     0.9656     3.4710 H       
  50 H50            3.4445    -0.5868     3.3626 H       
  51 H51            1.5657    -1.5673     2.1005 H       
  52 H52            2.1461    -0.0931     1.2869 H       
@<TRIPOS>BOND
   1    1    2 1
   2    1   13 ar
   3    1   17 ar
   4    2    3 1
   5    2    7 1
   6    2   30 1
   7    3    4 am
   8    3    6 2
   9    4    5 1
  10    4   31 1
  11    5    9 1
  12    5   12 2
  13    7    8 1
  14    7   32 1
  15    7   33 1
  16    8   24 1
  17    8   28 1
  18    8   34 1
  19    9   10 1
  20   10   11 2
  21   10   29 1
  22   11   12 1
  23   11   35 1
  24   13   14 ar
  25   13   36 1
  26   14   15 ar
  27   14   37 1
  28   15   16 ar
  29   15   18 1
  30   16   17 ar
  31   16   38 1
  32   17   39 1
  33   18   19 2
  34   18   20 2
  35   18   21 1
  36   21   22 1
  37   21   23 1
  38   21   40 1
  39   22   23 1
  40   22   41 1
  41   22   42 1
  42   23   43 1
  43   23   44 1
  44   24   25 1
  45   24   45 1
  46   24   46 1
  47   25   26 1
  48   25   47 1
  49   25   48 1
  50   26   27 1
  51   27   28 1
  52   27   49 1
  53   27   50 1
  54   28   51 1
  55   28   52 1

#	End of record

