#	Name: ASD07931832
#	Creating user name:	WinNT
#	Creation time:	15. 06. 2019 21:13

#	Modifying user name:	WinNT
#	Modification time:	15. 06. 2019 21:13

#	Program:	/corina/corina34_cracker 3.40 0067  02.08.2006

@<TRIPOS>MOLECULE
ASD07931832
  47   50    0    0    0
SMALL
NO_CHARGES


@<TRIPOS>ATOM
   1 C1             7.4146    -2.4989    -2.7029 C.3     
   2 S2             6.3619    -1.3410    -3.6203 S.o2    
   3 O3             6.4014    -0.0517    -3.0243 O.2     
   4 O4             6.5404    -1.5067    -5.0203 O.2     
   5 O5             4.9441    -1.8306    -3.3622 O.3     
   6 C6             4.4532    -1.5266    -2.0550 C.3     
   7 C7             2.9489    -1.2089    -2.0203 C.3     
   8 C8             2.8890    -2.0144    -0.7117 C.3     
   9 C9             4.1294    -2.7723    -1.2135 C.3     
  10 C10            0.8345    -1.7053    -5.1390 C.2     
  11 C11            1.6148    -1.0456    -4.0688 C.2     
  12 N12            0.3418    -2.9704    -4.9112 N.am    
  13 N13            2.1951    -1.8177    -3.1191 N.am    
  14 C14            2.0547    -3.2779    -3.2121 C.3     
  15 C15            0.6082    -3.6039    -3.6127 C.3     
  16 C16            0.6073    -1.0672    -6.3194 C.2     
  17 C17           -0.1287    -1.6885    -7.3360 C.2     
  18 C18           -0.6215    -2.9490    -7.1367 C.2     
  19 C19           -0.3682    -3.6121    -5.8552 C.2     
  20 O20           -0.7973    -4.7342    -5.6469 O.2     
  21 O21            1.7330     0.1642    -4.0426 O.2     
  22 C22           -0.9987    -4.7157    -8.8088 C.2     
  23 N23           -1.9418    -5.0089    -9.6620 N.2     
  24 C24           -2.9233    -4.0991    -9.5698 C.2     
  25 C25           -2.5803    -3.2044    -8.6238 C.2     
  26 N26           -1.3582    -3.5908    -8.1363 N.pl3   
  27 C27           -4.1908    -4.0811   -10.3849 C.3     
  28 H28            7.1580    -2.4626    -1.6441 H       
  29 H29            7.2580    -3.5095    -3.0802 H       
  30 H30            8.4604    -2.2205    -2.8330 H       
  31 H31            5.0665    -0.7932    -1.5314 H       
  32 H32            2.7293    -0.1491    -1.8912 H       
  33 H33            3.0747    -1.4144     0.1792 H       
  34 H34            2.0008    -2.6400    -0.6243 H       
  35 H35            3.8913    -3.6527    -1.8104 H       
  36 H36            4.8629    -2.9746    -0.4329 H       
  37 H37            2.7397    -3.6644    -3.9667 H       
  38 H38            2.2776    -3.7295    -2.2454 H       
  39 H39           -0.0790    -3.2110    -2.8634 H       
  40 H40            0.4839    -4.6835    -3.6973 H       
  41 H41            0.9979    -0.0722    -6.4734 H       
  42 H42           -0.3061    -1.1763    -8.2701 H       
  43 H43           -0.0876    -5.2759    -8.6590 H       
  44 H44           -3.1569    -2.3470    -8.3095 H       
  45 H45           -4.9628    -4.6517    -9.8686 H       
  46 H46           -4.5250    -3.0517   -10.5142 H       
  47 H47           -4.0012    -4.5269   -11.3613 H       
@<TRIPOS>BOND
   1    1    2 1
   2    1   28 1
   3    1   29 1
   4    1   30 1
   5    2    3 2
   6    2    4 2
   7    2    5 1
   8    5    6 1
   9    6    7 1
  10    6    9 1
  11    6   31 1
  12    7    8 1
  13    7   13 1
  14    7   32 1
  15    8    9 1
  16    8   33 1
  17    8   34 1
  18    9   35 1
  19    9   36 1
  20   10   11 1
  21   10   12 1
  22   10   16 2
  23   11   13 am
  24   11   21 2
  25   12   15 1
  26   12   19 am
  27   13   14 1
  28   14   15 1
  29   14   37 1
  30   14   38 1
  31   15   39 1
  32   15   40 1
  33   16   17 1
  34   16   41 1
  35   17   18 2
  36   17   42 1
  37   18   19 1
  38   18   26 1
  39   19   20 2
  40   22   23 2
  41   22   26 1
  42   22   43 1
  43   23   24 1
  44   24   25 2
  45   24   27 1
  46   25   26 1
  47   25   44 1
  48   27   45 1
  49   27   46 1
  50   27   47 1

#	End of record

