#	Name: ASD02030737
#	Creating user name:	WinNT
#	Creation time:	15. 06. 2019 20:16

#	Modifying user name:	WinNT
#	Modification time:	15. 06. 2019 20:16

#	Program:	/corina/corina34_cracker 3.40 0067  02.08.2006

@<TRIPOS>MOLECULE
ASD02030737
  34   36    0    0    0
SMALL
NO_CHARGES


@<TRIPOS>ATOM
   1 N1            -2.0071    -2.7315    -1.1692 N.2     
   2 N2            -2.1368    -1.3638    -0.9006 N.am    
   3 C3            -3.1017    -0.6328    -1.4859 C.2     
   4 N4            -3.9717    -1.1920    -2.3475 N.am    
   5 C5            -3.8852    -2.5070    -2.6368 C.2     
   6 C6            -2.8318    -3.3120    -1.9997 C.2     
   7 O7            -3.1901     0.5535    -1.2324 O.2     
   8 O8            -4.6683    -3.0203    -3.4140 O.2     
   9 C9            -1.2083    -0.7198     0.0318 C.3     
  10 C10           -1.7164    -0.8846     1.4409 C.ar    
  11 C11           -2.4095     0.1220     2.0404 C.ar    
  12 C12           -2.8871    -0.0122     3.3424 C.ar    
  13 C13           -2.6749    -1.1539     4.0527 C.ar    
  14 C14           -1.9640    -2.2149     3.4670 C.ar    
  15 C15           -1.7247    -3.4088     4.1690 C.ar    
  16 C16           -1.0319    -4.4151     3.5695 C.ar    
  17 C17           -0.5539    -4.2807     2.2672 C.ar    
  18 C18           -0.7660    -3.1393     1.5571 C.ar    
  19 C19           -1.4824    -2.0803     2.1407 C.ar    
  20 C20           -2.6636     1.4008     1.2847 C.3     
  21 O21           -2.7182    -4.6385    -2.2707 O.3     
  22 H22           -4.6615    -0.6493    -2.7604 H       
  23 H23           -0.2254    -1.1826    -0.0565 H       
  24 H24           -1.1328     0.3414    -0.2055 H       
  25 H25           -3.4336     0.8020     3.7951 H       
  26 H26           -3.0507    -1.2436     5.0612 H       
  27 H27           -2.0885    -3.5268     5.1791 H       
  28 H28           -0.8495    -5.3314     4.1112 H       
  29 H29           -0.0067    -5.0946     1.8149 H       
  30 H30           -0.3890    -3.0492     0.5490 H       
  31 H31           -3.5713     1.2973     0.6901 H       
  32 H32           -2.7837     2.2224     1.9909 H       
  33 H33           -1.8197     1.6078     0.6266 H       
  34 H34           -1.9945    -5.0753    -1.8011 H       
@<TRIPOS>BOND
   1    1    2 1
   2    1    6 2
   3    2    3 am
   4    2    9 1
   5    3    4 am
   6    3    7 2
   7    4    5 am
   8    4   22 1
   9    5    6 1
  10    5    8 2
  11    6   21 1
  12    9   10 1
  13    9   23 1
  14    9   24 1
  15   10   11 ar
  16   10   19 ar
  17   11   12 ar
  18   11   20 1
  19   12   13 ar
  20   12   25 1
  21   13   14 ar
  22   13   26 1
  23   14   15 ar
  24   14   19 ar
  25   15   16 ar
  26   15   27 1
  27   16   17 ar
  28   16   28 1
  29   17   18 ar
  30   17   29 1
  31   18   19 ar
  32   18   30 1
  33   20   31 1
  34   20   32 1
  35   20   33 1
  36   21   34 1

#	End of record

