#	Name: ASD08830164
#	Creating user name:	WinNT
#	Creation time:	15. 06. 2019 21:19

#	Modifying user name:	WinNT
#	Modification time:	15. 06. 2019 21:19

#	Program:	/corina/corina34_cracker 3.40 0067  02.08.2006

@<TRIPOS>MOLECULE
ASD08830164
  38   41    0    0    0
SMALL
NO_CHARGES


@<TRIPOS>ATOM
   1 C1            -0.0170     1.4023     0.0098 C.ar    
   2 C2             0.0021    -0.0041     0.0020 C.ar    
   3 C3             2.4391     0.0060    -0.0212 C.ar    
   4 C4             2.4199     1.4081    -0.0124 C.ar    
   5 C5             1.2092    -0.7036    -0.0133 C.ar    
   6 C6             1.2205     2.0835     0.0016 C.ar    
   7 C7             1.2317    -2.1119    -0.0206 C.ar    
   8 C8             2.4233    -2.7680    -0.0350 C.ar    
   9 C9             3.6291    -2.0690    -0.0424 C.ar    
  10 C10            3.6490    -0.7076    -0.0357 C.ar    
  11 S11            0.8894     3.8244     0.0162 S.3     
  12 C12           -0.9331     3.7217     0.0308 C.3     
  13 C13           -1.2127     2.2439     0.0197 C.2     
  14 O14           -2.3369     1.7880     0.0251 O.2     
  15 C15           -1.4969     4.3680     1.2978 C.3     
  16 N16           -1.1281     5.7896     1.3281 N.3     
  17 C17           -1.8445     6.4970     2.3994 C.3     
  18 C18           -1.3871     7.9577     2.4336 C.3     
  19 O19           -1.6074     8.5512     1.1512 O.3     
  20 C20           -0.9239     7.8876     0.0846 C.3     
  21 C21           -1.3766     6.4263     0.0265 C.3     
  22 H22           -0.9299    -0.5497     0.0083 H       
  23 H23            3.3485     1.9595    -0.0179 H       
  24 H24            0.3064    -2.6688    -0.0143 H       
  25 H25            2.4351    -3.8480    -0.0406 H       
  26 H26            4.5609    -2.6150    -0.0532 H       
  27 H27            4.5907    -0.1788    -0.0412 H       
  28 H28           -1.3498     4.1943    -0.8586 H       
  29 H29           -2.5829     4.2743     1.3011 H       
  30 H30           -1.0864     3.8673     2.1746 H       
  31 H31           -2.9169     6.4558     2.2089 H       
  32 H32           -1.6259     6.0246     3.3570 H       
  33 H33           -1.9567     8.4999     3.1884 H       
  34 H34           -0.3255     8.0010     2.6772 H       
  35 H35           -1.1586     8.3791    -0.8596 H       
  36 H36            0.1511     7.9289     0.2598 H       
  37 H37           -0.8165     5.9022    -0.7479 H       
  38 H38           -2.4416     6.3839    -0.2019 H       
@<TRIPOS>BOND
   1    1    2 ar
   2    1    6 ar
   3    1   13 1
   4    2    5 ar
   5    2   22 1
   6    3    4 ar
   7    3    5 ar
   8    3   10 ar
   9    4    6 ar
  10    4   23 1
  11    5    7 ar
  12    6   11 1
  13    7    8 ar
  14    7   24 1
  15    8    9 ar
  16    8   25 1
  17    9   10 ar
  18    9   26 1
  19   10   27 1
  20   11   12 1
  21   12   13 1
  22   12   15 1
  23   12   28 1
  24   13   14 2
  25   15   16 1
  26   15   29 1
  27   15   30 1
  28   16   17 1
  29   16   21 1
  30   17   18 1
  31   17   31 1
  32   17   32 1
  33   18   19 1
  34   18   33 1
  35   18   34 1
  36   19   20 1
  37   20   21 1
  38   20   35 1
  39   20   36 1
  40   21   37 1
  41   21   38 1

#	End of record

