#	Name: ASD05250056
#	Creating user name:	WinNT
#	Creation time:	15. 06. 2019 20:58

#	Modifying user name:	WinNT
#	Modification time:	15. 06. 2019 20:58

#	Program:	/corina/corina34_cracker 3.40 0067  02.08.2006

@<TRIPOS>MOLECULE
ASD05250056
  84   89    0    0    0
SMALL
NO_CHARGES


@<TRIPOS>ATOM
   1 C1            -0.5866     1.1346    -0.2020 C.3     
   2 C2            -0.6014    -0.3913    -0.3126 C.3     
   3 C3             0.2048    -0.8214    -1.5398 C.3     
   4 C4             1.6482    -0.3347    -1.3972 C.3     
   5 C5             1.6642     1.1908    -1.2852 C.3     
   6 C6             0.8567     1.6216    -0.0593 C.3     
   7 C7             2.4557    -0.7649    -2.6234 C.3     
   8 C8             1.8371    -0.1538    -3.8821 C.3     
   9 C9             1.8529     1.3725    -3.7695 C.3     
  10 C10            1.0466     1.8021    -2.5448 C.3     
  11 O11           -0.0200    -0.9598     0.8625 O.3     
  12 C12           -0.9589    -1.2207     1.9077 C.3     
  13 O13           -1.8071    -2.3057     1.5264 O.3     
  14 C14           -1.1095    -3.5208     1.2454 C.3     
  15 C15           -0.3636    -3.9813     2.5004 C.3     
  16 C16            0.5930    -2.8733     2.9517 C.3     
  17 C17           -0.2068    -1.5888     3.1894 C.3     
  18 C18           -2.1107    -4.5979     0.8228 C.3     
  19 O19           -1.3036    -4.2540     3.5416 O.3     
  20 O20            1.2399    -3.2649     4.1643 O.3     
  21 O21            0.6850    -0.5290     3.5409 O.3     
  22 O22            1.4369     1.0538     1.1167 O.3     
  23 C23            3.1079     1.6759    -1.1388 C.3     
  24 O24            3.6850     1.1056     0.0376 O.3     
  25 O25            2.2288    -0.9044    -0.2223 O.3     
  26 C26            1.3231     2.0000    -5.0356 C.3     
  27 C27            1.1660     3.5281    -4.9489 C.3     
  28 C28            0.4182     3.9238    -3.6733 C.3     
  29 C29            1.0977     3.3302    -2.4423 C.3     
  30 C30           -0.0931     1.5117    -5.3919 C.3     
  31 C31           -0.5971     2.5717    -6.3985 C.3     
  32 C32            0.2211     3.8501    -6.1372 C.3     
  33 C33            2.5148     4.2424    -5.0562 C.3     
  34 O34            2.1977     1.6803    -6.1194 O.3     
  35 C35           -0.6982     4.9876    -5.7739 C.2     
  36 C36           -0.3559     6.4592    -5.7847 C.3     
  37 O37           -1.5616     7.1549    -5.3605 O.3     
  38 C38           -2.5061     6.2250    -5.1251 C.2     
  39 C39           -1.9676     4.8878    -5.3881 C.2     
  40 O40           -3.6391     6.4600    -4.7534 O.2     
  41 H41           -1.0295     1.5682    -1.0986 H       
  42 H42           -1.1615     1.4412     0.6719 H       
  43 H43           -1.6298    -0.7384    -0.4135 H       
  44 H44            0.1939    -1.9084    -1.6191 H       
  45 H45           -0.2382    -0.3871    -2.4361 H       
  46 H46            0.8673     2.7087     0.0190 H       
  47 H47            3.4846    -0.4200    -2.5201 H       
  48 H48            2.4434    -1.8518    -2.7035 H       
  49 H49            2.4133    -0.4596    -4.7553 H       
  50 H50            0.8087    -0.4998    -3.9861 H       
  51 H51            2.8840     1.7013    -3.6405 H       
  52 H52            0.0151     1.4652    -2.6480 H       
  53 H53           -1.5635    -0.3310     2.0836 H       
  54 H54           -0.3953    -3.3518     0.4394 H       
  55 H55            0.2046    -4.8840     2.2758 H       
  56 H56            1.3406    -2.6994     2.1778 H       
  57 H57           -0.9207    -1.7485     3.9975 H       
  58 H58           -2.6424    -4.2694    -0.0702 H       
  59 H59           -1.5784    -5.5246     0.6085 H       
  60 H60           -2.8244    -4.7669     1.6291 H       
  61 H61           -1.9446    -4.9439     3.3220 H       
  62 H62            1.8615    -2.6087     4.5081 H       
  63 H63            0.2455     0.3164     3.7060 H       
  64 H64            0.9753     1.2854     1.9342 H       
  65 H65            3.6845     1.3694    -2.0116 H       
  66 H66            3.1197     2.7629    -1.0589 H       
  67 H67            4.6018     1.3703     0.1939 H       
  68 H68            2.2523    -1.8712    -0.2243 H       
  69 H69            0.4053     5.0103    -3.5873 H       
  70 H70           -0.6066     3.5568    -3.7296 H       
  71 H71            0.5738     3.6543    -1.5431 H       
  72 H72            2.1360     3.6597    -2.4028 H       
  73 H73           -0.0537     0.5274    -5.8585 H       
  74 H74           -0.7269     1.4924    -4.5053 H       
  75 H75           -0.4330     2.2253    -7.4189 H       
  76 H76           -1.6570     2.7669    -6.2358 H       
  77 H77            0.8052     4.1077    -7.0207 H       
  78 H78            2.9799     3.9990    -6.0114 H       
  79 H79            2.3616     5.3196    -4.9907 H       
  80 H80            3.1637     3.9176    -4.2429 H       
  81 H81            2.2975     0.7316    -6.2776 H       
  82 H82            0.4582     6.6603    -5.0883 H       
  83 H83           -0.0761     6.7721    -6.7906 H       
  84 H84           -2.5147     3.9630    -5.2784 H       
@<TRIPOS>BOND
   1    1    2 1
   2    1    6 1
   3    1   41 1
   4    1   42 1
   5    2    3 1
   6    2   11 1
   7    2   43 1
   8    3    4 1
   9    3   44 1
  10    3   45 1
  11    4    5 1
  12    4    7 1
  13    4   25 1
  14    5   23 1
  15    5    6 1
  16    5   10 1
  17    6   22 1
  18    6   46 1
  19    7    8 1
  20    7   47 1
  21    7   48 1
  22    8    9 1
  23    8   49 1
  24    8   50 1
  25    9   10 1
  26    9   26 1
  27    9   51 1
  28   10   29 1
  29   10   52 1
  30   11   12 1
  31   12   13 1
  32   12   17 1
  33   12   53 1
  34   13   14 1
  35   14   15 1
  36   14   18 1
  37   14   54 1
  38   15   16 1
  39   15   19 1
  40   15   55 1
  41   16   17 1
  42   16   20 1
  43   16   56 1
  44   17   21 1
  45   17   57 1
  46   18   58 1
  47   18   59 1
  48   18   60 1
  49   19   61 1
  50   20   62 1
  51   21   63 1
  52   22   64 1
  53   23   24 1
  54   23   65 1
  55   23   66 1
  56   24   67 1
  57   25   68 1
  58   26   27 1
  59   26   30 1
  60   26   34 1
  61   27   28 1
  62   27   33 1
  63   27   32 1
  64   28   29 1
  65   28   69 1
  66   28   70 1
  67   29   71 1
  68   29   72 1
  69   30   31 1
  70   30   73 1
  71   30   74 1
  72   31   32 1
  73   31   75 1
  74   31   76 1
  75   32   35 1
  76   32   77 1
  77   33   78 1
  78   33   79 1
  79   33   80 1
  80   34   81 1
  81   35   36 1
  82   35   39 2
  83   36   37 1
  84   36   82 1
  85   36   83 1
  86   37   38 1
  87   38   39 1
  88   38   40 2
  89   39   84 1

#	End of record

