#	Name: ASD01813850
#	Creating user name:	WinNT
#	Creation time:	15. 06. 2019 19:31

#	Modifying user name:	WinNT
#	Modification time:	15. 06. 2019 19:31

#	Program:	/corina/corina34_cracker 3.40 0067  02.08.2006

@<TRIPOS>MOLECULE
ASD01813850
  57   60    0    0    0
SMALL
NO_CHARGES


@<TRIPOS>ATOM
   1 C1            -0.0178     1.4608     0.0101 C.3     
   2 N2             0.0021    -0.0041     0.0020 N.am    
   3 C3            -0.5728    -0.8723     1.0358 C.3     
   4 C4            -0.3083    -2.2893     0.5920 C.ar    
   5 C5             0.3761    -2.2017    -0.6224 C.ar    
   6 C6             0.5448    -0.7745    -0.9565 C.2     
   7 O7             1.0977    -0.3553    -1.9546 O.2     
   8 C8            -0.6029    -3.5180     1.1362 C.ar    
   9 C9            -0.2201    -4.6752     0.4790 C.ar    
  10 C10            0.4584    -4.5997    -0.7247 C.ar    
  11 C11            0.7590    -3.3729    -1.2790 C.ar    
  12 C12            0.8717    -5.8641    -1.4330 C.3     
  13 C13           -0.2737    -6.3661    -2.2740 C.ar    
  14 C14           -1.1975    -7.2401    -1.7309 C.ar    
  15 C15           -0.4022    -5.9476    -3.5853 C.ar    
  16 C16           -1.4514    -6.4064    -4.3584 C.ar    
  17 C17           -2.3762    -7.2876    -3.8177 C.ar    
  18 C18           -2.2479    -7.7020    -2.4997 C.ar    
  19 C19           -0.7516     1.9696    -1.2345 C.3     
  20 C20            1.4180     1.9920    -0.0008 C.3     
  21 O21            1.3958     3.4199    -0.0514 O.3     
  22 C22            0.7638     3.9527    -1.2171 C.3     
  23 C23           -0.6982     3.5003    -1.2551 C.3     
  24 F24           -2.0851     1.5483    -1.1965 F       
  25 C25           -0.5429    -6.0204     1.0765 C.3     
  26 C26           -1.3412    -3.6045     2.4471 C.3     
  27 C27           -3.2538    -8.6553    -1.9076 C.3     
  28 O28           -3.4094    -7.7400    -4.5759 O.3     
  29 C29           -3.4819    -7.2666    -5.9223 C.3     
  30 H30           -0.5298     1.8132     0.9055 H       
  31 H31           -0.0895    -0.6838     1.9945 H       
  32 H32           -1.6459    -0.6991     1.1162 H       
  33 H33            1.2886    -3.3184    -2.2187 H       
  34 H34            1.7295    -5.6581    -2.0732 H       
  35 H35            1.1412    -6.6214    -0.6969 H       
  36 H36           -1.0974    -7.5621    -0.7049 H       
  37 H37            0.3179    -5.2612    -4.0057 H       
  38 H38           -1.5516    -6.0789    -5.3826 H       
  39 H39           -0.2688     1.5759    -2.1289 H       
  40 H40            1.9322     1.6682     0.9041 H       
  41 H41            1.9420     1.6054    -0.8749 H       
  42 H42            0.8068     5.0415    -1.1883 H       
  43 H43            1.2793     3.5918    -2.1071 H       
  44 H44           -1.1700     3.8690    -2.1659 H       
  45 H45           -1.2243     3.8949    -0.3858 H       
  46 H46           -1.5159    -6.3542     0.7158 H       
  47 H47            0.2202    -6.7411     0.7827 H       
  48 H48           -0.5667    -5.9391     2.1632 H       
  49 H49           -2.4143    -3.6344     2.2584 H       
  50 H50           -1.0398    -4.5094     2.9749 H       
  51 H51           -1.1035    -2.7324     3.0563 H       
  52 H52           -4.0702    -8.0894    -1.4588 H       
  53 H53           -3.6478    -9.3013    -2.6922 H       
  54 H54           -2.7710    -9.2645    -1.1436 H       
  55 H55           -4.3505    -7.7037    -6.4148 H       
  56 H56           -3.5730    -6.1805    -5.9212 H       
  57 H57           -2.5773    -7.5548    -6.4580 H       
@<TRIPOS>BOND
   1    1    2 1
   2    1   20 1
   3    1   19 1
   4    1   30 1
   5    2    3 1
   6    2    6 am
   7    3    4 1
   8    3   31 1
   9    3   32 1
  10    4    8 ar
  11    4    5 ar
  12    5    6 1
  13    5   11 ar
  14    6    7 2
  15    8    9 ar
  16    8   26 1
  17    9   10 ar
  18    9   25 1
  19   10   11 ar
  20   10   12 1
  21   11   33 1
  22   12   13 1
  23   12   34 1
  24   12   35 1
  25   13   15 ar
  26   13   14 ar
  27   14   18 ar
  28   14   36 1
  29   15   16 ar
  30   15   37 1
  31   16   17 ar
  32   16   38 1
  33   17   18 ar
  34   17   28 1
  35   18   27 1
  36   19   23 1
  37   19   24 1
  38   19   39 1
  39   20   21 1
  40   20   40 1
  41   20   41 1
  42   21   22 1
  43   22   23 1
  44   22   42 1
  45   22   43 1
  46   23   44 1
  47   23   45 1
  48   25   46 1
  49   25   47 1
  50   25   48 1
  51   26   49 1
  52   26   50 1
  53   26   51 1
  54   27   52 1
  55   27   53 1
  56   27   54 1
  57   28   29 1
  58   29   55 1
  59   29   56 1
  60   29   57 1

#	End of record

