#	Name: ASD01200096
#	Creating user name:	WinNT
#	Creation time:	15. 06. 2019 19:08

#	Modifying user name:	WinNT
#	Modification time:	15. 06. 2019 19:08

#	Program:	/corina/corina34_cracker 3.40 0067  02.08.2006

@<TRIPOS>MOLECULE
ASD01200096
  60   63    0    0    0
SMALL
NO_CHARGES


@<TRIPOS>ATOM
   1 C1             0.3399     1.5947    -1.2474 C.2     
   2 C2             0.5481     0.2850    -1.9633 C.3     
   3 O3             1.2923     2.2935    -0.9725 O.2     
   4 N4            -0.9050     1.9920    -0.9177 N.am    
   5 C5            -1.1074     3.2652    -0.2218 C.3     
   6 C6            -0.3119     7.9069    -3.8970 C.2     
   7 N7            -1.5343     7.4390    -3.9511 N.2     
   8 C8            -1.6595     6.3919    -3.1011 C.ar    
   9 C9            -0.4105     6.2091    -2.4801 C.ar    
  10 N10            0.4237     7.1799    -3.0009 N.pl3   
  11 C11           -2.7227     5.5445    -2.7720 C.ar    
  12 C12           -2.5354     4.5403    -1.8436 C.ar    
  13 C13           -1.2958     4.3662    -1.2335 C.ar    
  14 C14           -0.2404     5.1944    -1.5485 C.ar    
  15 C15            0.1987     9.0468    -4.6908 C.ar    
  16 C16           -0.6501     9.7067    -5.5787 C.ar    
  17 C17           -0.1578    10.7715    -6.3137 C.ar    
  18 C18            1.1676    11.1419    -6.1369 C.ar    
  19 C19            1.9539    10.4426    -5.2384 C.ar    
  20 N20            1.4598     9.4365    -4.5477 N.ar    
  21 O21           -3.5679     3.7162    -1.5224 O.3     
  22 C22           -4.7291     3.8485    -2.2157 C.ar    
  23 C23           -4.9172     3.1453    -3.3970 C.ar    
  24 C24           -6.0987     3.2812    -4.0996 C.ar    
  25 C25           -7.0934     4.1174    -3.6269 C.ar    
  26 C26           -6.9085     4.8192    -2.4500 C.ar    
  27 C27           -5.7311     4.6825    -1.7405 C.ar    
  28 S28           -8.5988     4.2894    -4.5261 S.o2    
  29 O29           -9.0774     5.5777    -4.1652 O.2     
  30 O30           -8.2413     3.9903    -5.8685 O.2     
  31 C31           -9.6788     2.9972    -3.8520 C.3     
  32 C32          -11.0339     3.0440    -4.5609 C.3     
  33 C33           -2.0559     1.1507    -1.2552 C.3     
  34 C34           -2.3357     0.1833    -0.1034 C.3     
  35 H35            1.6120     0.1373    -2.1487 H       
  36 H36            0.1702    -0.5303    -1.3464 H       
  37 H37            0.0126     0.3006    -2.9125 H       
  38 H38           -1.9928     3.1971     0.4102 H       
  39 H39           -0.2362     3.4843     0.3956 H       
  40 H40            1.3564     7.3195    -2.7742 H       
  41 H41           -3.6860     5.6754    -3.2424 H       
  42 H42            0.7183     5.0537    -1.0715 H       
  43 H43           -1.6768     9.3914    -5.6917 H       
  44 H44           -0.7911    11.3018    -7.0095 H       
  45 H45            1.5818    11.9681    -6.6957 H       
  46 H46            2.9859    10.7287    -5.0987 H       
  47 H47           -4.1404     2.4926    -3.7671 H       
  48 H48           -6.2456     2.7342    -5.0192 H       
  49 H49           -7.6868     5.4720    -2.0831 H       
  50 H50           -5.5888     5.2277    -0.8192 H       
  51 H51           -9.2198     2.0212    -4.0098 H       
  52 H52           -9.8214     3.1633    -2.7843 H       
  53 H53          -11.6829     2.2676    -4.1558 H       
  54 H54          -11.4929     4.0200    -4.4032 H       
  55 H55          -10.8913     2.8779    -5.6287 H       
  56 H56           -2.9300     1.7804    -1.4213 H       
  57 H57           -1.8388     0.5843    -2.1608 H       
  58 H58           -3.1920    -0.4427    -0.3545 H       
  59 H59           -1.4616    -0.4464     0.0627 H       
  60 H60           -2.5528     0.7497     0.8022 H       
@<TRIPOS>BOND
   1    1    2 1
   2    1    3 2
   3    1    4 am
   4    2   35 1
   5    2   36 1
   6    2   37 1
   7    4    5 1
   8    4   33 1
   9    5   13 1
  10    5   38 1
  11    5   39 1
  12    6    7 2
  13    6   10 1
  14    6   15 1
  15    7    8 1
  16    8    9 ar
  17    8   11 ar
  18    9   10 1
  19    9   14 ar
  20   10   40 1
  21   11   12 ar
  22   11   41 1
  23   12   13 ar
  24   12   21 1
  25   13   14 ar
  26   14   42 1
  27   15   16 ar
  28   15   20 ar
  29   16   17 ar
  30   16   43 1
  31   17   18 ar
  32   17   44 1
  33   18   19 ar
  34   18   45 1
  35   19   20 ar
  36   19   46 1
  37   21   22 1
  38   22   23 ar
  39   22   27 ar
  40   23   24 ar
  41   23   47 1
  42   24   25 ar
  43   24   48 1
  44   25   26 ar
  45   25   28 1
  46   26   27 ar
  47   26   49 1
  48   27   50 1
  49   28   29 2
  50   28   30 2
  51   28   31 1
  52   31   32 1
  53   31   51 1
  54   31   52 1
  55   32   53 1
  56   32   54 1
  57   32   55 1
  58   33   34 1
  59   33   56 1
  60   33   57 1
  61   34   58 1
  62   34   59 1
  63   34   60 1

#	End of record

