#	Name: ASD01881833
#	Creating user name:	WinNT
#	Creation time:	15. 06. 2019 19:43

#	Modifying user name:	WinNT
#	Modification time:	15. 06. 2019 19:43

#	Program:	/corina/corina34_cracker 3.40 0067  02.08.2006

@<TRIPOS>MOLECULE
ASD01881833
  43   45    0    0    0
SMALL
NO_CHARGES


@<TRIPOS>ATOM
   1 C1            -0.0184     1.5028     0.0103 C.2     
   2 C2             0.0021    -0.0041     0.0020 C.3     
   3 C3             1.4513    -0.4944    -0.0145 C.3     
   4 O4             1.0197     2.1211     0.0037 O.2     
   5 O5            -1.1898     2.1580     0.0194 O.3     
   6 C6            -0.7002    -0.5305     1.2552 C.3     
   7 C7            -0.7241    -0.5171    -1.2431 C.3     
   8 O8             1.4707    -1.9232    -0.0223 O.3     
   9 N9             6.2557    -4.5885    -0.0828 N.pl3   
  10 N10            5.7122    -5.8817    -0.0839 N.2     
  11 N11            4.4282    -5.8065    -0.0707 N.2     
  12 C12            4.0344    -4.5173    -0.0603 C.ar    
  13 C13            5.1903    -3.7174    -0.0678 C.ar    
  14 C14            2.7756    -3.9010    -0.0454 C.ar    
  15 C15            2.6905    -2.5240    -0.0372 C.ar    
  16 C16            3.8449    -1.7448    -0.0445 C.ar    
  17 C17            5.0788    -2.3316    -0.0604 C.ar    
  18 C18            7.6774    -4.2349    -0.0898 C.3     
  19 C19            8.1639    -4.1065    -1.5347 C.3     
  20 C20            9.5995    -3.6264    -1.7567 C.3     
  21 C21            9.2348    -5.0906    -2.0096 C.3     
  22 Br22           1.2029    -4.9509    -0.0356 Br      
  23 C23           -1.1335     3.6089     0.0270 C.3     
  24 H24            1.9516    -0.1193    -0.9073 H       
  25 H25            1.9686    -0.1289     0.8726 H       
  26 H26           -1.7327    -0.1812     1.2669 H       
  27 H27           -0.6854    -1.6204     1.2492 H       
  28 H28           -0.1829    -0.1650     2.1423 H       
  29 H29           -0.2237    -0.1421    -2.1359 H       
  30 H30           -0.7093    -1.6070    -1.2491 H       
  31 H31           -1.7565    -0.1678    -1.2314 H       
  32 H32            3.7641    -0.6678    -0.0383 H       
  33 H33            5.9680    -1.7186    -0.0662 H       
  34 H34            7.8181    -3.2854     0.4267 H       
  35 H35            8.2478    -5.0127     0.4178 H       
  36 H36            7.4110    -3.7936    -2.2582 H       
  37 H37            9.7913    -2.9980    -2.6265 H       
  38 H38           10.1974    -3.4020    -0.8734 H       
  39 H39            9.5928    -5.8295    -1.2927 H       
  40 H40            9.1866    -5.4255    -3.0458 H       
  41 H41           -0.6017     3.9472     0.9164 H       
  42 H42           -0.6102     3.9569    -0.8636 H       
  43 H43           -2.1463     4.0118     0.0340 H       
@<TRIPOS>BOND
   1    1    2 1
   2    1    4 2
   3    1    5 1
   4    2    3 1
   5    2    6 1
   6    2    7 1
   7    3    8 1
   8    3   24 1
   9    3   25 1
  10    5   23 1
  11    6   26 1
  12    6   27 1
  13    6   28 1
  14    7   29 1
  15    7   30 1
  16    7   31 1
  17    8   15 1
  18    9   10 1
  19    9   13 1
  20    9   18 1
  21   10   11 2
  22   11   12 1
  23   12   13 ar
  24   12   14 ar
  25   13   17 ar
  26   14   15 ar
  27   14   22 1
  28   15   16 ar
  29   16   17 ar
  30   16   32 1
  31   17   33 1
  32   18   19 1
  33   18   34 1
  34   18   35 1
  35   19   20 1
  36   19   21 1
  37   19   36 1
  38   20   21 1
  39   20   37 1
  40   20   38 1
  41   21   39 1
  42   21   40 1
  43   23   41 1
  44   23   42 1
  45   23   43 1

#	End of record

