#	Name: ASD01320052
#	Creating user name:	WinNT
#	Creation time:	15. 06. 2019 19:15

#	Modifying user name:	WinNT
#	Modification time:	15. 06. 2019 19:15

#	Program:	/corina/corina34_cracker 3.40 0067  02.08.2006

@<TRIPOS>MOLECULE
ASD01320052
  30   31    0    0    0
SMALL
NO_CHARGES


@<TRIPOS>ATOM
   1 C1            -0.0168     1.3857     0.0097 C.ar    
   2 C2             0.0021    -0.0041     0.0020 C.ar    
   3 C3            -1.1731    -0.7218     0.0094 C.ar    
   4 C4            -2.3931    -0.0521     0.0246 C.ar    
   5 C5            -2.4101     1.3565     0.0324 C.ar    
   6 C6            -1.2016     2.0646     0.0303 C.ar    
   7 Cl7            1.4792     2.2664     0.0001 Cl      
   8 N8            -3.7005    -0.4788     0.0353 N.pl3   
   9 C9            -4.5290     0.6265     0.0494 C.2     
  10 C10           -3.7693     1.7530     0.0479 C.2     
  11 C11           -5.9991     0.5898     0.0633 C.2     
  12 N12           -6.6437    -0.5938     0.0629 N.am    
  13 C13           -8.1082    -0.6303     0.0767 C.3     
  14 C14           -8.5821    -2.0851     0.0731 C.3     
  15 O15           -8.1765    -2.7212     1.2868 O.3     
  16 O16           -6.6333     1.6278     0.0752 O.2     
  17 C17           -8.5714    -4.0910     1.3852 C.3     
  18 H18            0.9475    -0.5261    -0.0102 H       
  19 H19           -1.1482    -1.8015     0.0030 H       
  20 H20           -1.2067     3.1446     0.0365 H       
  21 H21           -3.9928    -1.4037     0.0327 H       
  22 H22           -4.1364     2.7686     0.0570 H       
  23 H23           -6.1379    -1.4215     0.0534 H       
  24 H24           -8.4756    -0.1307     0.9731 H       
  25 H25           -8.4927    -0.1208    -0.8068 H       
  26 H26           -9.6688    -2.1130    -0.0062 H       
  27 H27           -8.1422    -2.6084    -0.7759 H       
  28 H28           -9.6580    -4.1605     1.3331 H       
  29 H29           -8.1314    -4.6559     0.5634 H       
  30 H30           -8.2262    -4.5014     2.3341 H       
@<TRIPOS>BOND
   1    1    2 ar
   2    1    7 1
   3    1    6 ar
   4    2    3 ar
   5    2   18 1
   6    3    4 ar
   7    3   19 1
   8    4    5 ar
   9    4    8 1
  10    5    6 ar
  11    5   10 1
  12    6   20 1
  13    8    9 1
  14    8   21 1
  15    9   10 2
  16    9   11 1
  17   10   22 1
  18   11   12 am
  19   11   16 2
  20   12   13 1
  21   12   23 1
  22   13   14 1
  23   13   24 1
  24   13   25 1
  25   14   15 1
  26   14   26 1
  27   14   27 1
  28   15   17 1
  29   17   28 1
  30   17   29 1
  31   17   30 1

#	End of record

