#	Name: ASD04878001
#	Creating user name:	WinNT
#	Creation time:	15. 06. 2019 20:52

#	Modifying user name:	WinNT
#	Modification time:	15. 06. 2019 20:52

#	Program:	/corina/corina34_cracker 3.40 0067  02.08.2006

@<TRIPOS>MOLECULE
ASD04878001
  36   39    0    0    0
SMALL
NO_CHARGES


@<TRIPOS>ATOM
   1 N1            -0.0159     1.3215     0.0093 N.ar    
   2 C2             0.0021    -0.0041     0.0020 C.ar    
   3 N3             1.1383    -0.6859    -0.0091 N.ar    
   4 C4             2.3096    -0.0657    -0.0018 C.ar    
   5 C5             2.3347     1.3148     0.0103 C.ar    
   6 C6             3.6338     2.0681     0.0478 C.3     
   7 C7             3.5324     3.3607    -0.7570 C.3     
   8 C8             2.3150     4.1482    -0.3522 C.ar    
   9 C9             1.1396     3.4854    -0.0003 C.ar    
  10 C10            1.1202     2.0053     0.0021 C.ar    
  11 C11            0.0077     4.2136     0.3524 C.ar    
  12 C12            0.0581     5.5938     0.3658 C.ar    
  13 C13            1.2293     6.2478     0.0291 C.ar    
  14 C14            2.3547     5.5273    -0.3299 C.ar    
  15 N15           -1.1978    -0.6942     0.0066 N.pl3   
  16 C16            3.4414     3.0260    -2.2236 C.ar    
  17 C17            4.4038     3.4917    -3.0998 C.ar    
  18 C18            4.3203     3.1847    -4.4450 C.ar    
  19 C19            3.2748     2.4115    -4.9139 C.ar    
  20 C20            2.3129     1.9450    -4.0375 C.ar    
  21 C21            2.3987     2.2484    -2.6916 C.ar    
  22 H22            3.2297    -0.6312    -0.0049 H       
  23 H23            3.8799     2.3078     1.0823 H       
  24 H24            4.4226     1.4444    -0.3728 H       
  25 H25            4.4238     3.9631    -0.5820 H       
  26 H26           -0.9066     3.7018     0.6144 H       
  27 H27           -0.8181     6.1629     0.6392 H       
  28 H28            1.2657     7.3271     0.0464 H       
  29 H29            3.2654     6.0450    -0.5928 H       
  30 H30           -2.0370    -0.2078     0.0150 H       
  31 H31           -1.1994    -1.6642     0.0014 H       
  32 H32            5.2207     4.0958    -2.7335 H       
  33 H33            5.0718     3.5492    -5.1297 H       
  34 H34            3.2092     2.1722    -5.9651 H       
  35 H35            1.4958     1.3412    -4.4039 H       
  36 H36            1.6493     1.8808    -2.0063 H       
@<TRIPOS>BOND
   1    1    2 ar
   2    1   10 ar
   3    2    3 ar
   4    2   15 1
   5    3    4 ar
   6    4    5 ar
   7    4   22 1
   8    5    6 1
   9    5   10 ar
  10    6    7 1
  11    6   23 1
  12    6   24 1
  13    7    8 1
  14    7   16 1
  15    7   25 1
  16    8    9 ar
  17    8   14 ar
  18    9   10 1
  19    9   11 ar
  20   11   12 ar
  21   11   26 1
  22   12   13 ar
  23   12   27 1
  24   13   14 ar
  25   13   28 1
  26   14   29 1
  27   15   30 1
  28   15   31 1
  29   16   17 ar
  30   16   21 ar
  31   17   18 ar
  32   17   32 1
  33   18   19 ar
  34   18   33 1
  35   19   20 ar
  36   19   34 1
  37   20   21 ar
  38   20   35 1
  39   21   36 1

#	End of record

