#	Name: ASD03731629
#	Creating user name:	WinNT
#	Creation time:	15. 06. 2019 20:46

#	Modifying user name:	WinNT
#	Modification time:	15. 06. 2019 20:46

#	Program:	/corina/corina34_cracker 3.40 0067  02.08.2006

@<TRIPOS>MOLECULE
ASD03731629
  43   44    0    0    0
SMALL
NO_CHARGES


@<TRIPOS>ATOM
   1 C1            -0.0273     1.4661    -0.1469 C.2     
   2 C2            -0.0047    -0.0081    -0.1274 C.ar    
   3 C3            -0.1177    -0.6959     1.0866 C.ar    
   4 C4            -0.0960    -2.0760     1.0997 C.ar    
   5 C5             0.0377    -2.7814    -0.0888 C.ar    
   6 C6             0.1504    -2.1008    -1.2985 C.ar    
   7 C7             0.1239    -0.7233    -1.3220 C.ar    
   8 O8            -0.1442     2.0862     0.8925 O.2     
   9 N9             0.0873     2.1263    -1.3163 N.am    
  10 S10            0.0619     3.7820    -1.3383 S.o2    
  11 O11            0.1783     4.1160    -2.7145 O.2     
  12 O12           -1.1010     4.1245    -0.5970 O.2     
  13 C13            1.5583     4.2696    -0.4362 C.3     
  14 O14            0.0590    -4.1385    -0.0714 O.3     
  15 C15            1.2670    -4.7588    -0.1388 C.ar    
  16 C16            1.3471    -6.1443    -0.0279 C.ar    
  17 C17            2.5802    -6.7715    -0.0978 C.ar    
  18 C18            3.7282    -6.0216    -0.2772 C.ar    
  19 C19            3.6488    -4.6461    -0.3872 C.ar    
  20 C20            2.4207    -4.0140    -0.3237 C.ar    
  21 O21            0.2173    -6.8802     0.1489 O.3     
  22 C22            0.3575    -8.3019     0.1168 C.3     
  23 C23            0.5455    -8.8281     1.5412 C.3     
  24 C24           -0.8989    -8.9246    -0.4952 C.3     
  25 F25            0.2807    -2.7925    -2.4517 F       
  26 F26           -0.2474    -0.0102     2.2434 F       
  27 H27           -0.1828    -2.6079     2.0356 H       
  28 H28            0.2069    -0.1968    -2.2612 H       
  29 H29            0.1846     1.6317    -2.1450 H       
  30 H30            2.4356     3.8693    -0.9444 H       
  31 H31            1.6233     5.3571    -0.4013 H       
  32 H32            1.5152     3.8754     0.5791 H       
  33 H33            2.6451    -7.8461    -0.0117 H       
  34 H34            4.6890    -6.5119    -0.3310 H       
  35 H35            4.5478    -4.0641    -0.5269 H       
  36 H36            2.3611    -2.9394    -0.4140 H       
  37 H37            1.2256    -8.5679    -0.4863 H       
  38 H38           -0.3226    -8.5621     2.1443 H       
  39 H39            0.6524    -9.9126     1.5167 H       
  40 H40            1.4406    -8.3845     1.9772 H       
  41 H41           -1.0329    -8.5497    -1.5099 H       
  42 H42           -0.7920   -10.0091    -0.5197 H       
  43 H43           -1.7670    -8.6586     0.1079 H       
@<TRIPOS>BOND
   1    1    2 1
   2    1    8 2
   3    1    9 am
   4    2    3 ar
   5    2    7 ar
   6    3    4 ar
   7    3   26 1
   8    4    5 ar
   9    4   27 1
  10    5    6 ar
  11    5   14 1
  12    6    7 ar
  13    6   25 1
  14    7   28 1
  15    9   10 am
  16    9   29 1
  17   10   11 2
  18   10   12 2
  19   10   13 1
  20   13   30 1
  21   13   31 1
  22   13   32 1
  23   14   15 1
  24   15   16 ar
  25   15   20 ar
  26   16   17 ar
  27   16   21 1
  28   17   18 ar
  29   17   33 1
  30   18   19 ar
  31   18   34 1
  32   19   20 ar
  33   19   35 1
  34   20   36 1
  35   21   22 1
  36   22   23 1
  37   22   24 1
  38   22   37 1
  39   23   38 1
  40   23   39 1
  41   23   40 1
  42   24   41 1
  43   24   42 1
  44   24   43 1

#	End of record

