#	Name: ASD03090856
#	Creating user name:	WinNT
#	Creation time:	15. 06. 2019 20:29

#	Modifying user name:	WinNT
#	Modification time:	15. 06. 2019 20:29

#	Program:	/corina/corina34_cracker 3.40 0067  02.08.2006

@<TRIPOS>MOLECULE
ASD03090856
  39   41    0    0    0
SMALL
NO_CHARGES


@<TRIPOS>ATOM
   1 N1            -0.0149     1.3421     0.1053 N.am    
   2 C2             0.0030    -0.0051     0.0723 C.2     
   3 O3            -1.0442    -0.6288     0.0752 O.2     
   4 N4             1.1687    -0.6570     0.0363 N.2     
   5 C5             1.2438     2.0918     0.1019 C.3     
   6 C6            -1.2932     2.0571     0.1387 C.3     
   7 C7            -1.7202     2.2708     1.5922 C.3     
   8 S8            -0.1729    -3.0447     0.0008 S.3     
   9 C9             1.1864    -1.9875     0.0037 C.2     
  10 N10            2.2793    -2.7909    -0.0347 N.pl3   
  11 C11            2.0560    -4.1338    -0.0639 C.2     
  12 C12            0.7906    -4.5309    -0.0521 C.2     
  13 C13            0.2795    -5.9484    -0.0787 C.3     
  14 O14            7.4851    -0.9543    -0.0528 O.3     
  15 C15            8.1209    -2.2099    -0.3569 C.3     
  16 O16            7.1778    -3.1928     0.1096 O.3     
  17 C17            5.9555    -2.5894     0.0355 C.ar    
  18 C18            6.1440    -1.2125    -0.0645 C.ar    
  19 C19            4.6733    -3.1114     0.0455 C.ar    
  20 C20            3.5781    -2.2627    -0.0443 C.ar    
  21 C21            3.7690    -0.8915    -0.1440 C.ar    
  22 C22            5.0485    -0.3694    -0.1545 C.ar    
  23 F23            8.3226    -2.3376    -1.7353 F       
  24 F24            9.3332    -2.3264     0.3315 F       
  25 H25            1.5382     2.3026    -0.9262 H       
  26 H26            1.1096     3.0295     0.6410 H       
  27 H27            2.0199     1.5008     0.5882 H       
  28 H28           -1.1819     3.0234    -0.3532 H       
  29 H29           -2.0513     1.4704    -0.3802 H       
  30 H30           -1.8315     1.3045     2.0841 H       
  31 H31           -0.9622     2.8575     2.1111 H       
  32 H32           -2.6713     2.8028     1.6170 H       
  33 H33            2.8708    -4.8420    -0.0952 H       
  34 H34           -0.8103    -5.9421    -0.0608 H       
  35 H35            0.6251    -6.4422    -0.9869 H       
  36 H36            0.6541    -6.4861     0.7923 H       
  37 H37            4.5250    -4.1784     0.1226 H       
  38 H38            2.9166    -0.2319    -0.2138 H       
  39 H39            5.1947     0.6979    -0.2316 H       
@<TRIPOS>BOND
   1    1    2 am
   2    1    5 1
   3    1    6 1
   4    2    3 2
   5    2    4 1
   6    4    9 2
   7    5   25 1
   8    5   26 1
   9    5   27 1
  10    6    7 1
  11    6   28 1
  12    6   29 1
  13    7   30 1
  14    7   31 1
  15    7   32 1
  16    8    9 1
  17    8   12 1
  18    9   10 1
  19   10   11 1
  20   10   20 1
  21   11   12 2
  22   11   33 1
  23   12   13 1
  24   13   34 1
  25   13   35 1
  26   13   36 1
  27   14   15 1
  28   14   18 1
  29   15   16 1
  30   15   23 1
  31   15   24 1
  32   16   17 1
  33   17   18 ar
  34   17   19 ar
  35   18   22 ar
  36   19   20 ar
  37   19   37 1
  38   20   21 ar
  39   21   22 ar
  40   21   38 1
  41   22   39 1

#	End of record

