#	Name: ASD01915146
#	Creating user name:	WinNT
#	Creation time:	15. 06. 2019 20:04

#	Modifying user name:	WinNT
#	Modification time:	15. 06. 2019 20:04

#	Program:	/corina/corina34_cracker 3.40 0067  02.08.2006

@<TRIPOS>MOLECULE
ASD01915146
  44   47    0    0    0
SMALL
NO_CHARGES


@<TRIPOS>ATOM
   1 C1            -0.2253     1.4613    -1.1287 C.ar    
   2 C2            -0.2369     0.0863    -1.2830 C.ar    
   3 C3             0.9600    -0.6056    -1.1466 C.ar    
   4 C4             2.1165     0.0949    -0.8631 C.ar    
   5 N5             2.0948     1.4068    -0.7216 N.ar    
   6 C6             0.9752     2.0997    -0.8442 C.ar    
   7 O7             0.9993     3.4477    -0.6906 O.3     
   8 C8             2.2644     4.0450    -0.3992 C.3     
   9 C9             2.0965     5.5365    -0.2639 C.2     
  10 C10            0.8948     6.2458    -0.3935 C.2     
  11 N11            3.0491     6.3997     0.0018 N.2     
  12 C12            1.2320     7.5542    -0.1927 C.2     
  13 C13            0.4247     8.7834    -0.1932 C.2     
  14 N14            2.5858     7.5866     0.0603 N.pl3   
  15 C15            3.2728     8.8495     0.3567 C.3     
  16 C16            2.5574     9.9929    -0.3613 C.3     
  17 N17            1.1094     9.9526    -0.1718 N.am    
  18 O18           -0.7911     8.7523    -0.2123 O.2     
  19 C19            3.2512     9.1009     1.8658 C.3     
  20 Cl20           1.0019    -2.3314    -1.3297 Cl      
  21 C21            0.4169    11.1441     0.0407 C.ar    
  22 C22           -0.1766    11.3912     1.2746 C.ar    
  23 C23           -0.8612    12.5666     1.4879 C.ar    
  24 C24           -0.9596    13.5121     0.4631 C.ar    
  25 C25           -0.3621    13.2604    -0.7753 C.ar    
  26 C26            0.3258    12.0854    -0.9798 C.ar    
  27 C27           -1.6712    14.7355     0.6812 C.1     
  28 N28           -2.2357    15.7060     0.8542 N.1     
  29 H29           -1.1368     2.0312    -1.2324 H       
  30 H30           -1.1553    -0.4371    -1.5042 H       
  31 H31            3.0499    -0.4377    -0.7556 H       
  32 H32            2.6525     3.6369     0.5340 H       
  33 H33            2.9627     3.8299    -1.2080 H       
  34 H34           -0.0851     5.8449    -0.6065 H       
  35 H35            4.3051     8.7921     0.0114 H       
  36 H36            2.9362    10.9409     0.0206 H       
  37 H37            2.7767     9.9317    -1.4273 H       
  38 H38            3.7582     8.2830     2.3777 H       
  39 H39            3.7615    10.0387     2.0852 H       
  40 H40            2.2185     9.1601     2.2095 H       
  41 H41           -0.1005    10.6601     2.0658 H       
  42 H42           -1.3220    12.7577     2.4458 H       
  43 H43           -0.4364    13.9886    -1.5694 H       
  44 H44            0.7917    11.8923    -1.9348 H       
@<TRIPOS>BOND
   1    1    2 ar
   2    1    6 ar
   3    1   29 1
   4    2    3 ar
   5    2   30 1
   6    3    4 ar
   7    3   20 1
   8    4    5 ar
   9    4   31 1
  10    5    6 ar
  11    6    7 1
  12    7    8 1
  13    8    9 1
  14    8   32 1
  15    8   33 1
  16    9   11 2
  17    9   10 1
  18   10   12 2
  19   10   34 1
  20   11   14 1
  21   12   14 1
  22   12   13 1
  23   13   17 am
  24   13   18 2
  25   14   15 1
  26   15   16 1
  27   15   19 1
  28   15   35 1
  29   16   17 1
  30   16   36 1
  31   16   37 1
  32   17   21 1
  33   19   38 1
  34   19   39 1
  35   19   40 1
  36   21   22 ar
  37   21   26 ar
  38   22   23 ar
  39   22   41 1
  40   23   24 ar
  41   23   42 1
  42   24   25 ar
  43   24   27 1
  44   25   26 ar
  45   25   43 1
  46   26   44 1
  47   27   28 3

#	End of record

