#	Name: ASD02560416
#	Creating user name:	WinNT
#	Creation time:	15. 06. 2019 20:25

#	Modifying user name:	WinNT
#	Modification time:	15. 06. 2019 20:25

#	Program:	/corina/corina34_cracker 3.40 0067  02.08.2006

@<TRIPOS>MOLECULE
ASD02560416
  40   43    0    0    0
SMALL
NO_CHARGES


@<TRIPOS>ATOM
   1 C1             0.1327     1.3903     1.0916 C.2     
   2 C2             0.1540    -0.0159     1.0817 C.2     
   3 C3             1.2833    -0.6778     0.7597 C.2     
   4 N4             2.4245     0.0067     0.4377 N.pl3   
   5 C5             2.4338     1.3829     0.4384 C.2     
   6 C6             1.2569     2.0854     0.7744 C.2     
   7 C7             3.6775    -0.4086     0.0813 C.2     
   8 C8             4.4298     0.7279    -0.1294 C.2     
   9 N9             3.6430     1.7961     0.0964 N.2     
  10 C10            5.8549     0.7662    -0.5331 C.ar    
  11 N11            4.1118    -1.7285    -0.0447 N.3     
  12 C12            2.9884    -2.6666     0.0811 C.3     
  13 C13            3.3172    -3.9830    -0.6445 C.3     
  14 C14            6.3154     1.7736    -1.3805 C.ar    
  15 C15            6.7419    -0.2017    -0.0625 C.ar    
  16 C16            7.6435     1.8043    -1.7532 C.ar    
  17 C17            8.5182     0.8375    -1.2880 C.ar    
  18 C18            8.0678    -0.1612    -0.4417 C.ar    
  19 Br19          10.3369     0.8859    -1.8037 Br      
  20 C20            2.7630    -3.0253     1.5644 C.3     
  21 C21            2.3694    -4.5231     1.5374 C.3     
  22 C22            3.2802    -5.0959     0.4232 C.3     
  23 H23           -0.7755     1.9164     1.3462 H       
  24 H24           -0.7391    -0.5684     1.3337 H       
  25 H25            1.2880    -1.7578     0.7562 H       
  26 H26            1.2496     3.1654     0.7795 H       
  27 H27            4.6022    -1.8662    -0.9157 H       
  28 H28            2.0846    -2.2247    -0.3384 H       
  29 H29            2.5725    -4.1805    -1.4156 H       
  30 H30            4.3104    -3.9259    -1.0900 H       
  31 H31            5.6338     2.5280    -1.7446 H       
  32 H32            6.3916    -0.9812     0.5979 H       
  33 H33            8.0013     2.5839    -2.4094 H       
  34 H34            8.7547    -0.9128    -0.0814 H       
  35 H35            3.6806    -2.8823     2.1352 H       
  36 H36            1.9547    -2.4260     1.9834 H       
  37 H37            2.5860    -4.9968     2.4949 H       
  38 H38            1.3179    -4.6415     1.2757 H       
  39 H39            2.8494    -6.0075     0.0093 H       
  40 H40            4.2813    -5.2872     0.8096 H       
@<TRIPOS>BOND
   1    1    2 1
   2    1    6 2
   3    1   23 1
   4    2    3 2
   5    2   24 1
   6    3    4 1
   7    3   25 1
   8    4    5 1
   9    4    7 1
  10    5    6 1
  11    5    9 2
  12    6   26 1
  13    7    8 2
  14    7   11 1
  15    8    9 1
  16    8   10 1
  17   10   14 ar
  18   10   15 ar
  19   11   12 1
  20   11   27 1
  21   12   13 1
  22   12   20 1
  23   12   28 1
  24   13   22 1
  25   13   29 1
  26   13   30 1
  27   14   16 ar
  28   14   31 1
  29   15   18 ar
  30   15   32 1
  31   16   17 ar
  32   16   33 1
  33   17   18 ar
  34   17   19 1
  35   18   34 1
  36   20   21 1
  37   20   35 1
  38   20   36 1
  39   21   22 1
  40   21   37 1
  41   21   38 1
  42   22   39 1
  43   22   40 1

#	End of record

