#	Name: ASD03430080
#	Creating user name:	WinNT
#	Creation time:	15. 06. 2019 20:40

#	Modifying user name:	WinNT
#	Modification time:	15. 06. 2019 20:40

#	Program:	/corina/corina34_cracker 3.40 0067  02.08.2006

@<TRIPOS>MOLECULE
ASD03430080
  51   56    0    0    0
SMALL
NO_CHARGES


@<TRIPOS>ATOM
   1 C1             0.4355     1.1398    -0.5721 C.ar    
   2 C2             0.4070    -0.2404    -0.4397 C.ar    
   3 C3             1.5768    -0.9428    -0.2438 C.ar    
   4 C4             2.7978    -0.2787    -0.1661 C.ar    
   5 C5             2.8234     1.1051    -0.3037 C.ar    
   6 C6             1.6496     1.8126    -0.5045 C.ar    
   7 O7             3.8214    -1.1516     0.0584 O.3     
   8 C8             1.8760    -2.4098    -0.0894 C.3     
   9 C9             3.3960    -2.4829    -0.2899 C.3     
  10 C10            0.5776    -3.9819     0.9887 C.ar    
  11 C11            1.4619    -2.9395     1.2513 C.ar    
  12 C12            1.1405    -3.2502    -1.0936 C.2     
  13 N13            0.4111    -4.1385    -0.3895 N.am    
  14 O14            1.1922    -3.1488    -2.3011 O.2     
  15 C15            1.7791    -2.5985     2.5521 C.ar    
  16 C16            1.2142    -3.2994     3.6101 C.ar    
  17 C17            0.3363    -4.3356     3.3558 C.ar    
  18 C18            0.0179    -4.6779     2.0575 C.ar    
  19 O19            2.6433    -1.5786     2.7963 O.3     
  20 C20           -0.4550    -5.1509    -0.9987 C.3     
  21 O21           -0.7284     1.8174    -0.7724 O.3     
  22 C22           -0.7009     3.2288    -0.5332 C.3     
  23 C23            0.5542     3.8047    -1.2030 C.3     
  24 O24            1.7006     3.1675    -0.6301 O.3     
  25 C25            2.1340    -0.3268     2.9150 C.ar    
  26 C26            2.9699     0.7257     3.2670 C.ar    
  27 C27            2.4378     1.9976     3.3847 C.ar    
  28 C28            1.0817     2.1729     3.1448 C.ar    
  29 C29            0.3104     1.0814     2.7987 C.ar    
  30 N30            0.8474    -0.1189     2.6891 N.ar    
  31 C31            4.4363     0.4851     3.5179 C.3     
  32 F32            5.0562     1.6933     3.8542 F       
  33 F33            4.5862    -0.4247     4.5701 F       
  34 F34            5.0276    -0.0367     2.3624 F       
  35 H35           -0.5348    -0.7666    -0.4899 H       
  36 H36            3.7650     1.6316    -0.2533 H       
  37 H37            3.6391    -2.7076    -1.3284 H       
  38 H38            3.8399    -3.2189     0.3805 H       
  39 H39            1.4600    -3.0350     4.6279 H       
  40 H40           -0.1029    -4.8811     4.1780 H       
  41 H41           -0.6693    -5.4896     1.8691 H       
  42 H42           -1.4564    -4.7409    -1.1300 H       
  43 H43           -0.0504    -5.4391    -1.9689 H       
  44 H44           -0.5027    -6.0259    -0.3505 H       
  45 H45           -1.5907     3.6915    -0.9602 H       
  46 H46           -0.6655     3.4193     0.5394 H       
  47 H47            0.5222     3.6077    -2.2746 H       
  48 H48            0.6043     4.8793    -1.0275 H       
  49 H49            3.0632     2.8349     3.6572 H       
  50 H50            0.6348     3.1525     3.2284 H       
  51 H51           -0.7451     1.2124     2.6111 H       
@<TRIPOS>BOND
   1    1    2 ar
   2    1    6 ar
   3    1   21 1
   4    2    3 ar
   5    2   35 1
   6    3    4 ar
   7    3    8 1
   8    4    5 ar
   9    4    7 1
  10    5    6 ar
  11    5   36 1
  12    6   24 1
  13    7    9 1
  14    8    9 1
  15    8   11 1
  16    8   12 1
  17    9   37 1
  18    9   38 1
  19   10   11 ar
  20   10   13 1
  21   10   18 ar
  22   11   15 ar
  23   12   13 am
  24   12   14 2
  25   13   20 1
  26   15   16 ar
  27   15   19 1
  28   16   17 ar
  29   16   39 1
  30   17   18 ar
  31   17   40 1
  32   18   41 1
  33   19   25 1
  34   20   42 1
  35   20   43 1
  36   20   44 1
  37   21   22 1
  38   22   23 1
  39   22   45 1
  40   22   46 1
  41   23   24 1
  42   23   47 1
  43   23   48 1
  44   25   26 ar
  45   25   30 ar
  46   26   27 ar
  47   26   31 1
  48   27   28 ar
  49   27   49 1
  50   28   29 ar
  51   28   50 1
  52   29   30 ar
  53   29   51 1
  54   31   32 1
  55   31   33 1
  56   31   34 1

#	End of record

