#	Name: ASD01810123
#	Creating user name:	WinNT
#	Creation time:	15. 06. 2019 19:23

#	Modifying user name:	WinNT
#	Modification time:	15. 06. 2019 19:23

#	Program:	/corina/corina34_cracker 3.40 0067  02.08.2006

@<TRIPOS>MOLECULE
ASD01810123
  45   48    0    0    0
SMALL
NO_CHARGES


@<TRIPOS>ATOM
   1 C1             0.0290     1.4281    -0.0071 C.ar    
   2 C2             0.0299     0.0420    -0.0144 C.ar    
   3 C3             1.2148    -0.6625    -0.0236 C.ar    
   4 C4             2.4293     0.0169    -0.0256 C.ar    
   5 C5             2.4290     1.4226    -0.0187 C.ar    
   6 C6             1.2213     2.1247    -0.0093 C.ar    
   7 N7             3.6199    -0.6776    -0.0338 N.pl3   
   8 C8             4.8139    -0.0707    -0.0353 C.2     
   9 C9             4.9403     1.3035    -0.0286 C.2     
  10 C10            3.7218     2.1298    -0.0210 C.2     
  11 O11            3.7799     3.3470    -0.0152 O.2     
  12 C12            6.2690     1.9316    -0.0300 C.2     
  13 O13            6.3794     3.2751    -0.0234 O.3     
  14 O14            7.2684     1.2396    -0.0371 O.2     
  15 C15            3.5776    -2.1419    -0.0409 C.3     
  16 C16            3.5573    -2.6371    -1.4640 C.ar    
  17 C17            4.7459    -2.8984    -2.1206 C.ar    
  18 C18            4.7307    -3.3523    -3.4249 C.ar    
  19 C19            3.5200    -3.5466    -4.0769 C.ar    
  20 C20            2.3280    -3.2837    -3.4146 C.ar    
  21 C21            2.3499    -2.8346    -2.1087 C.ar    
  22 N22            3.5011    -4.0059    -5.3985 N.am    
  23 F23            1.2198     3.4757    -0.0026 F       
  24 C24            4.6981    -4.1967    -6.2260 C.3     
  25 C25            4.1846    -4.2793    -7.6806 C.3     
  26 C26            2.7348    -4.7761    -7.4754 C.3     
  27 C27            2.3849    -4.3346    -6.0713 C.2     
  28 O28            1.2602    -4.2784    -5.6208 O.2     
  29 H29           -0.9079     1.9654    -0.0041 H       
  30 H30           -0.9087    -0.4924    -0.0125 H       
  31 H31            1.2005    -1.7424    -0.0289 H       
  32 H32            5.7076    -0.6771    -0.0415 H       
  33 H33            7.2741     3.6421    -0.0246 H       
  34 H34            4.4587    -2.5334     0.4675 H       
  35 H35            2.6795    -2.4819     0.4750 H       
  36 H36            5.6871    -2.7471    -1.6131 H       
  37 H37            5.6593    -3.5556    -3.9374 H       
  38 H38            1.3849    -3.4338    -3.9189 H       
  39 H39            1.4233    -2.6302    -1.5929 H       
  40 H40            5.3743    -3.3493    -6.1122 H       
  41 H41            5.2031    -5.1227    -5.9511 H       
  42 H42            4.1973    -3.2980    -8.1551 H       
  43 H43            4.7651    -4.9981    -8.2590 H       
  44 H44            2.0665    -4.3131    -8.2015 H       
  45 H45            2.6893    -5.8624    -7.5521 H       
@<TRIPOS>BOND
   1    1    2 ar
   2    1    6 ar
   3    1   29 1
   4    2    3 ar
   5    2   30 1
   6    3    4 ar
   7    3   31 1
   8    4    5 ar
   9    4    7 1
  10    5    6 ar
  11    5   10 1
  12    6   23 1
  13    7    8 1
  14    7   15 1
  15    8    9 2
  16    8   32 1
  17    9   10 1
  18    9   12 1
  19   10   11 2
  20   12   13 1
  21   12   14 2
  22   13   33 1
  23   15   16 1
  24   15   34 1
  25   15   35 1
  26   16   17 ar
  27   16   21 ar
  28   17   18 ar
  29   17   36 1
  30   18   19 ar
  31   18   37 1
  32   19   20 ar
  33   19   22 1
  34   20   21 ar
  35   20   38 1
  36   21   39 1
  37   22   24 1
  38   22   27 am
  39   24   25 1
  40   24   40 1
  41   24   41 1
  42   25   26 1
  43   25   42 1
  44   25   43 1
  45   26   27 1
  46   26   44 1
  47   26   45 1
  48   27   28 2

#	End of record

