#	Name: ASD04880957
#	Creating user name:	WinNT
#	Creation time:	15. 06. 2019 20:53

#	Modifying user name:	WinNT
#	Modification time:	15. 06. 2019 20:53

#	Program:	/corina/corina34_cracker 3.40 0067  02.08.2006

@<TRIPOS>MOLECULE
ASD04880957
  65   68    0    0    0
SMALL
NO_CHARGES


@<TRIPOS>ATOM
   1 C1            -0.0178     1.4648     0.0101 C.3     
   2 N2             0.0021    -0.0041     0.0020 N.3     
   3 C3             0.7064    -0.5277     1.1807 C.3     
   4 C4             0.7745    -2.0543     1.0946 C.3     
   5 N5            -0.5880    -2.5990     1.0137 N.3     
   6 C6            -1.2923    -2.0754    -0.1650 C.3     
   7 C7            -1.3604    -0.5488    -0.0788 C.3     
   8 C8            -0.5691    -3.9923     1.0061 C.ar    
   9 C9             0.1006    -4.6716    -0.0047 C.ar    
  10 C10            0.1219    -6.0489    -0.0163 C.ar    
  11 C11           -0.5308    -6.7674     0.9890 C.ar    
  12 C12           -1.2051    -6.0863     2.0069 C.ar    
  13 C13           -1.2187    -4.7045     2.0180 C.ar    
  14 N14           -1.8877    -4.0185     3.0391 N.pl3   
  15 C15           -0.5087    -8.2425     0.9759 C.2     
  16 N16            0.1412    -8.8980    -0.0060 N.am    
  17 O17           -1.0769    -8.8668     1.8511 O.2     
  18 C18            2.1033     0.0363     1.2234 C.ar    
  19 C19            2.6561     0.4226     2.4300 C.ar    
  20 C20            3.9374     0.9400     2.4691 C.ar    
  21 C21            4.6660     1.0706     1.3016 C.ar    
  22 C22            4.1135     0.6834     0.0951 C.ar    
  23 C23            2.8338     0.1620     0.0566 C.ar    
  24 C24            0.1632   -10.3628    -0.0189 C.3     
  25 C25            0.9616   -10.8503    -1.2296 C.3     
  26 C26            0.9845   -12.3800    -1.2432 C.3     
  27 N27            1.7490   -12.8468    -2.4024 N.am    
  28 C28            3.1944   -13.1013    -2.3932 C.3     
  29 C29            3.6154   -13.1404    -3.8790 C.3     
  30 C30            2.2948   -13.5516    -4.5703 C.3     
  31 C31            1.2158   -13.1024    -3.6096 C.2     
  32 O32            0.0412   -12.9872    -3.8887 O.2     
  33 H33            1.0047     1.8421     0.0024 H       
  34 H34           -0.5450     1.8259    -0.8730 H       
  35 H35           -0.5280     1.8163     0.9069 H       
  36 H36            0.1692    -0.2380     2.0838 H       
  37 H37            1.3352    -2.3437     0.2058 H       
  38 H38            1.2710    -2.4468     1.9820 H       
  39 H39           -0.7551    -2.3650    -1.0681 H       
  40 H40           -2.3026    -2.4833    -0.1958 H       
  41 H41           -1.9211    -0.2594     0.8100 H       
  42 H42           -1.8569    -0.1563    -0.9662 H       
  43 H43            0.6051    -4.1184    -0.7831 H       
  44 H44            0.6431    -6.5739    -0.8031 H       
  45 H45           -1.7105    -6.6388     2.7851 H       
  46 H46           -1.9004    -3.0486     3.0443 H       
  47 H47           -2.3385    -4.5132     3.7413 H       
  48 H48            0.5945    -8.4000    -0.7042 H       
  49 H49            2.0869     0.3206     3.3421 H       
  50 H50            4.3691     1.2425     3.4117 H       
  51 H51            5.6668     1.4754     1.3321 H       
  52 H52            4.6826     0.7857    -0.8170 H       
  53 H53            2.4035    -0.1440    -0.8856 H       
  54 H54            0.6311   -10.7273     0.8955 H       
  55 H55           -0.8573   -10.7409    -0.0805 H       
  56 H56            0.4937   -10.4858    -2.1441 H       
  57 H57            1.9821   -10.4722    -1.1680 H       
  58 H58            1.4524   -12.7445    -0.3287 H       
  59 H59           -0.0360   -12.7581    -1.3048 H       
  60 H60            3.7157   -12.2968    -1.8745 H       
  61 H61            3.4058   -14.0582    -1.9160 H       
  62 H62            3.9433   -12.1575    -4.2176 H       
  63 H63            4.3916   -13.8874    -4.0450 H       
  64 H64            2.1916   -13.0433    -5.5289 H       
  65 H65            2.2549   -14.6326    -4.7043 H       
@<TRIPOS>BOND
   1    1    2 1
   2    1   33 1
   3    1   34 1
   4    1   35 1
   5    2    3 1
   6    2    7 1
   7    3    4 1
   8    3   18 1
   9    3   36 1
  10    4    5 1
  11    4   37 1
  12    4   38 1
  13    5    6 1
  14    5    8 1
  15    6    7 1
  16    6   39 1
  17    6   40 1
  18    7   41 1
  19    7   42 1
  20    8    9 ar
  21    8   13 ar
  22    9   10 ar
  23    9   43 1
  24   10   11 ar
  25   10   44 1
  26   11   12 ar
  27   11   15 1
  28   12   13 ar
  29   12   45 1
  30   13   14 1
  31   14   46 1
  32   14   47 1
  33   15   16 am
  34   15   17 2
  35   16   24 1
  36   16   48 1
  37   18   19 ar
  38   18   23 ar
  39   19   20 ar
  40   19   49 1
  41   20   21 ar
  42   20   50 1
  43   21   22 ar
  44   21   51 1
  45   22   23 ar
  46   22   52 1
  47   23   53 1
  48   24   25 1
  49   24   54 1
  50   24   55 1
  51   25   26 1
  52   25   56 1
  53   25   57 1
  54   26   27 1
  55   26   58 1
  56   26   59 1
  57   27   28 1
  58   27   31 am
  59   28   29 1
  60   28   60 1
  61   28   61 1
  62   29   30 1
  63   29   62 1
  64   29   63 1
  65   30   31 1
  66   30   64 1
  67   30   65 1
  68   31   32 2

#	End of record

