#	Name: ASD05720221
#	Creating user name:	WinNT
#	Creation time:	15. 06. 2019 21:02

#	Modifying user name:	WinNT
#	Modification time:	15. 06. 2019 21:02

#	Program:	/corina/corina34_cracker 3.40 0067  02.08.2006

@<TRIPOS>MOLECULE
ASD05720221
  43   45    0    0    0
SMALL
NO_CHARGES


@<TRIPOS>ATOM
   1 C1             0.4956     1.0382     1.0965 C.2     
   2 N2             0.3990    -0.2278     0.6697 N.am    
   3 C3             1.6517    -0.6089     0.0004 C.3     
   4 C4             2.5238     0.6577     0.1001 C.3     
   5 N5             1.6699     1.6180     0.8151 N.am    
   6 O6            -0.4030     1.6108     1.6818 O.2     
   7 C7             2.0440     2.9907     1.1642 C.3     
   8 C8             2.7057     3.0038     2.5436 C.3     
   9 O9             3.9361     2.2790     2.4887 O.3     
  10 C10            4.6380     2.2302     3.7324 C.3     
  11 C11            1.3906    -0.9672    -1.4640 C.3     
  12 C12            0.5324    -2.2319    -1.5344 C.3     
  13 C13            0.6553     0.1869    -2.1482 C.3     
  14 C14           -1.6994    -3.1293     0.6440 C.2     
  15 N15           -0.6402    -2.3217     0.4923 N.2     
  16 C16           -0.7086    -1.0502     0.8334 C.2     
  17 C17           -1.9043    -0.5233     1.3648 C.2     
  18 C18           -2.9753    -1.3334     1.5199 C.2     
  19 N19           -2.8763    -2.6482     1.1577 N.pl3   
  20 N20           -3.7880    -3.7095     1.1958 N.2     
  21 C21           -3.2024    -4.7892     0.7293 C.2     
  22 C22           -1.8999    -4.4755     0.3679 C.2     
  23 Br23          -0.6271    -5.6664    -0.3655 Br      
  24 H24            2.1254    -1.4415     0.5204 H       
  25 H25            3.4305     0.4540     0.6697 H       
  26 H26            2.7708     1.0314    -0.8936 H       
  27 H27            2.7430     3.3766     0.4222 H       
  28 H28            1.1519     3.6168     1.1832 H       
  29 H29            2.9036     4.0334     2.8419 H       
  30 H30            2.0409     2.5365     3.2700 H       
  31 H31            5.5602     1.6628     3.6071 H       
  32 H32            4.8759     3.2437     4.0554 H       
  33 H33            4.0132     1.7468     4.4835 H       
  34 H34            2.3400    -1.1438    -1.9697 H       
  35 H35           -0.4866    -1.9971    -1.2267 H       
  36 H36            0.5252    -2.6096    -2.5568 H       
  37 H37            0.9471    -2.9899    -0.8699 H       
  38 H38           -0.2941     0.3635    -1.6425 H       
  39 H39            1.2667     1.0879    -2.0980 H       
  40 H40            0.4693    -0.0683    -3.1914 H       
  41 H41           -1.9634     0.5179     1.6456 H       
  42 H42           -3.8984    -0.9466     1.9255 H       
  43 H43           -3.6615    -5.7626     0.6390 H       
@<TRIPOS>BOND
   1    1    2 am
   2    1    5 am
   3    1    6 2
   4    2    3 1
   5    2   16 1
   6    3    4 1
   7    3   11 1
   8    3   24 1
   9    4    5 1
  10    4   25 1
  11    4   26 1
  12    5    7 1
  13    7    8 1
  14    7   27 1
  15    7   28 1
  16    8    9 1
  17    8   29 1
  18    8   30 1
  19    9   10 1
  20   10   31 1
  21   10   32 1
  22   10   33 1
  23   11   12 1
  24   11   13 1
  25   11   34 1
  26   12   35 1
  27   12   36 1
  28   12   37 1
  29   13   38 1
  30   13   39 1
  31   13   40 1
  32   14   15 1
  33   14   19 1
  34   14   22 2
  35   15   16 2
  36   16   17 1
  37   17   18 2
  38   17   41 1
  39   18   19 1
  40   18   42 1
  41   19   20 1
  42   20   21 2
  43   21   22 1
  44   21   43 1
  45   22   23 1

#	End of record

