#	Name: ASD08170129
#	Creating user name:	WinNT
#	Creation time:	15. 06. 2019 21:17

#	Modifying user name:	WinNT
#	Modification time:	15. 06. 2019 21:17

#	Program:	/corina/corina34_cracker 3.40 0067  02.08.2006

@<TRIPOS>MOLECULE
ASD08170129
  63   67    0    0    0
SMALL
NO_CHARGES


@<TRIPOS>ATOM
   1 N1            -0.0111     0.9658     0.0074 N.am    
   2 C2             1.1468     1.6555    -0.0000 C.2     
   3 C3             3.5940     1.9147    -0.0220 C.ar    
   4 C4             5.1363     3.2941    -1.2265 C.ar    
   5 C5             4.1246     2.3645     1.1726 C.ar    
   6 C6           -10.3704     2.2278    -4.0346 C.2     
   7 C7           -12.0634     0.8863    -5.0183 C.2     
   8 C8            -6.8629     4.1040     0.6667 C.3     
   9 C9            -7.8076     3.2629    -0.1949 C.3     
  10 N10           -7.8449     3.8082    -1.5579 N.3     
  11 C11           -6.5197     3.7539    -2.1880 C.3     
  12 C12           -5.5366     4.6097    -1.3859 C.3     
  13 C13           -5.4617     4.0823     0.0496 C.3     
  14 N14           -4.9520     2.7089     0.0407 N.pl3   
  15 C15           -3.5827     2.4764     0.0327 C.2     
  16 N16           -2.6648     3.3925     0.0328 N.2     
  17 N17           -1.3659     2.9335     0.0240 N.2     
  18 C18           -1.2266     1.6457     0.0168 C.2     
  19 C19            2.4620     0.9199    -0.0165 C.3     
  20 C20            4.0979     2.3816    -1.2215 C.ar    
  21 C21            5.6705     3.7399    -0.0320 C.ar    
  22 C22            5.1627     3.2773     1.1676 C.ar    
  23 O23            1.1304     2.8683     0.0067 O.2     
  24 S24           -2.8170     0.8912     0.0286 S.3     
  25 C25           -8.7914     3.1491    -2.3317 C.2     
  26 N26           -9.5517     2.1802    -1.9256 N.2     
  27 N27          -10.4221     1.6729    -2.8653 N.2     
  28 N28          -11.1592     1.8797    -5.1284 N.am    
  29 C29          -12.9168     0.5097    -6.2018 C.3     
  30 C30          -13.8374    -0.6201    -5.8181 C.ar    
  31 C31          -15.0880    -0.3459    -5.2968 C.ar    
  32 C32          -15.9324    -1.3822    -4.9448 C.ar    
  33 C33          -15.5262    -2.6927    -5.1140 C.ar    
  34 C34          -14.2756    -2.9668    -5.6352 C.ar    
  35 C35          -13.4334    -1.9305    -5.9926 C.ar    
  36 O36          -12.1902     0.2955    -3.9666 O.2     
  37 S37           -9.1505     3.4969    -4.0197 S.3     
  38 H38            0.0021    -0.0041     0.0020 H       
  39 H39            5.5303     3.6587    -2.1637 H       
  40 H40            3.7279     2.0030     2.1098 H       
  41 H41           -7.2261     5.1309     0.7088 H       
  42 H42           -6.8234     3.6898     1.6741 H       
  43 H43           -7.4514     2.2332    -0.2253 H       
  44 H44           -8.8093     3.2880     0.2339 H       
  45 H45           -6.1695     2.7219    -2.2090 H       
  46 H46           -6.5860     4.1358    -3.2068 H       
  47 H47           -4.5494     4.5567    -1.8450 H       
  48 H48           -5.8785     5.6446    -1.3767 H       
  49 H49           -4.7956     4.7152     0.6359 H       
  50 H50           -5.5708     1.9619     0.0403 H       
  51 H51            2.5367     0.2893     0.8694 H       
  52 H52            2.5197     0.2988    -0.9104 H       
  53 H53            3.6807     2.0333    -2.1547 H       
  54 H54            6.4817     4.4528    -0.0359 H       
  55 H55            5.5800     3.6256     2.1008 H       
  56 H56          -11.0578     2.3522    -5.9694 H       
  57 H57          -13.5084     1.3710    -6.5120 H       
  58 H58          -12.2767     0.1930    -7.0253 H       
  59 H59          -15.4052     0.6779    -5.1643 H       
  60 H60          -16.9094    -1.1681    -4.5372 H       
  61 H61          -16.1858    -3.5023    -4.8386 H       
  62 H62          -13.9581    -3.9906    -5.7671 H       
  63 H63          -12.4563    -2.1447    -6.3998 H       
@<TRIPOS>BOND
   1    1   38 1
   2    1    2 am
   3    1   18 1
   4    2   19 1
   5    2   23 2
   6    3   19 1
   7    3    5 ar
   8    3   20 ar
   9    4   20 ar
  10    4   21 ar
  11    4   39 1
  12    5   40 1
  13    5   22 ar
  14    6   37 1
  15    6   27 2
  16    6   28 1
  17    7   36 2
  18    7   28 am
  19    7   29 1
  20    8    9 1
  21    8   13 1
  22    8   41 1
  23    8   42 1
  24    9   10 1
  25    9   43 1
  26    9   44 1
  27   10   11 1
  28   10   25 1
  29   11   45 1
  30   11   46 1
  31   11   12 1
  32   12   47 1
  33   12   48 1
  34   12   13 1
  35   13   49 1
  36   13   14 1
  37   14   15 1
  38   14   50 1
  39   15   16 2
  40   15   24 1
  41   16   17 1
  42   17   18 2
  43   18   24 1
  44   19   51 1
  45   19   52 1
  46   20   53 1
  47   21   22 ar
  48   21   54 1
  49   22   55 1
  50   25   37 1
  51   25   26 2
  52   26   27 1
  53   28   56 1
  54   29   30 1
  55   29   57 1
  56   29   58 1
  57   30   31 ar
  58   30   35 ar
  59   31   32 ar
  60   31   59 1
  61   32   60 1
  62   32   33 ar
  63   33   61 1
  64   33   34 ar
  65   34   62 1
  66   34   35 ar
  67   35   63 1

#	End of record

