#	Name: ASD03430753
#	Creating user name:	WinNT
#	Creation time:	15. 06. 2019 20:41

#	Modifying user name:	WinNT
#	Modification time:	15. 06. 2019 20:41

#	Program:	/corina/corina34_cracker 3.40 0067  02.08.2006

@<TRIPOS>MOLECULE
ASD03430753
  34   38    0    0    0
SMALL
NO_CHARGES


@<TRIPOS>ATOM
   1 C1            -0.0166     1.3733     0.0096 C.ar    
   2 C2             0.0021    -0.0041     0.0020 C.ar    
   3 C3             1.2044    -0.6790    -0.0067 C.ar    
   4 C4             2.4068     0.0234     0.0031 C.ar    
   5 C5             2.3790     1.4128     0.0031 C.ar    
   6 C6             1.1695     2.0975     0.0022 C.ar    
   7 O7             3.4728    -0.8265     0.0235 O.3     
   8 C8             1.5601    -2.1407    -0.0405 C.3     
   9 C9             3.0489    -2.1319    -0.4143 C.3     
  10 C10            0.4336    -3.8614     1.0037 C.ar    
  11 C11            1.3174    -2.8198     1.2746 C.ar    
  12 C12            0.7380    -2.9028    -1.0398 C.2     
  13 N13            0.1140    -3.8824    -0.3560 N.am    
  14 O14            0.6521    -2.6802    -2.2290 O.2     
  15 C15            1.7755    -2.6039     2.5554 C.ar    
  16 C16            1.3594    -3.4241     3.5883 C.ar    
  17 C17            0.4800    -4.4633     3.3316 C.ar    
  18 C18            0.0178    -4.6828     2.0483 C.ar    
  19 O19            0.9260     3.4376    -0.0156 O.3     
  20 C20           -1.1521     2.3776     0.0352 C.3     
  21 C21           -0.4182     3.6803     0.4325 C.3     
  22 F22            0.0731    -5.2652     4.3398 F       
  23 H23           -0.9262    -0.5560     0.0033 H       
  24 H24            3.3065     1.9661     0.0038 H       
  25 H25            3.1783    -2.2399    -1.4911 H       
  26 H26            3.5872    -2.9136     0.1217 H       
  27 H27           -0.4872    -4.5271    -0.7609 H       
  28 H28            2.4610    -1.7931     2.7534 H       
  29 H29            1.7194    -3.2551     4.5924 H       
  30 H30           -0.6681    -5.4942     1.8547 H       
  31 H31           -1.6098     2.4732    -0.9494 H       
  32 H32           -1.8959     2.1056     0.7841 H       
  33 H33           -0.4451     3.8246     1.5126 H       
  34 H34           -0.8483     4.5387    -0.0836 H       
@<TRIPOS>BOND
   1    1    2 ar
   2    1    6 ar
   3    1   20 1
   4    2    3 ar
   5    2   23 1
   6    3    4 ar
   7    3    8 1
   8    4    5 ar
   9    4    7 1
  10    5    6 ar
  11    5   24 1
  12    6   19 1
  13    7    9 1
  14    8    9 1
  15    8   11 1
  16    8   12 1
  17    9   25 1
  18    9   26 1
  19   10   11 ar
  20   10   13 1
  21   10   18 ar
  22   11   15 ar
  23   12   13 am
  24   12   14 2
  25   13   27 1
  26   15   16 ar
  27   15   28 1
  28   16   17 ar
  29   16   29 1
  30   17   18 ar
  31   17   22 1
  32   18   30 1
  33   19   21 1
  34   20   21 1
  35   20   31 1
  36   20   32 1
  37   21   33 1
  38   21   34 1

#	End of record

