#	Name: ASD01420225
#	Creating user name:	WinNT
#	Creation time:	15. 06. 2019 19:20

#	Modifying user name:	WinNT
#	Modification time:	15. 06. 2019 19:20

#	Program:	/corina/corina34_cracker 3.40 0067  02.08.2006

@<TRIPOS>MOLECULE
ASD01420225
  50   53    0    0    0
SMALL
NO_CHARGES


@<TRIPOS>ATOM
   1 C1            -0.0169     1.3941     0.0097 C.ar    
   2 C2             0.0021    -0.0041     0.0020 C.ar    
   3 C3            -1.2129    -0.7121     0.0098 C.ar    
   4 C4            -2.4161    -0.0217     0.0249 C.ar    
   5 C5            -2.4163     1.3576     0.0323 C.ar    
   6 C6            -1.2205     2.0612     0.0305 C.ar    
   7 N7             1.0002    -0.9213    -0.0124 N.2     
   8 C8             0.4890    -2.1286    -0.0140 C.2     
   9 N9            -0.8779    -2.0529    -0.0006 N.pl3   
  10 C10            1.2706    -3.3824    -0.0282 C.2     
  11 C11            2.6811    -3.4826    -0.0416 C.2     
  12 C12            3.0017    -4.7996    -0.0520 C.2     
  13 N13            1.8435    -5.5104    -0.0453 N.pl3   
  14 N14            0.7756    -4.6046    -0.0248 N.2     
  15 N15            3.5873    -2.4099    -0.0439 N.am    
  16 C16            4.9137    -2.6483    -0.0574 C.2     
  17 O17            5.3258    -3.7924    -0.0676 O.2     
  18 C18            5.8658    -1.5213    -0.0598 C.ar    
  19 C19            6.3087    -0.9771    -1.2702 C.ar    
  20 C20            7.2008     0.0786    -1.2632 C.ar    
  21 C21            7.6558     0.5967    -0.0643 C.ar    
  22 C22            7.2231     0.0648     1.1368 C.ar    
  23 C23            6.3264    -0.9870     1.1484 C.ar    
  24 F24            5.9050    -1.5051     2.3227 F       
  25 F25            5.8661    -1.4824    -2.4424 F       
  26 C26            1.2763     2.1679     0.0015 C.3     
  27 N27            1.8069     2.2202    -1.3673 N.3     
  28 C28            3.0702     2.9685    -1.4139 C.3     
  29 C29            3.8922     2.5069    -2.6189 C.3     
  30 C30            2.7727     4.4639    -1.5422 C.3     
  31 H31           -3.3506    -0.5630     0.0305 H       
  32 H32           -3.3538     1.8936     0.0441 H       
  33 H33           -1.2344     3.1411     0.0367 H       
  34 H34           -1.4958    -2.8006     0.0015 H       
  35 H35            4.0003    -5.2109    -0.0634 H       
  36 H36            1.7693    -6.4776    -0.0506 H       
  37 H37            3.2586    -1.4973    -0.0358 H       
  38 H38            7.5437     0.4999    -2.1966 H       
  39 H39            8.3533     1.4213    -0.0660 H       
  40 H40            7.5837     0.4752     2.0685 H       
  41 H41            1.0957     3.1812     0.3602 H       
  42 H42            1.9985     1.6753     0.6526 H       
  43 H43            1.9222     1.2922    -1.7462 H       
  44 H44            3.6338     2.7874    -0.4987 H       
  45 H45            3.3287     2.6880    -3.5341 H       
  46 H46            4.8296     3.0621    -2.6535 H       
  47 H47            4.1042     1.4416    -2.5275 H       
  48 H48            2.1871     4.7928    -0.6838 H       
  49 H49            3.7100     5.0191    -1.5769 H       
  50 H50            2.2091     4.6450    -2.4575 H       
@<TRIPOS>BOND
   1    1    2 ar
   2    1   26 1
   3    1    6 ar
   4    2    3 ar
   5    2    7 1
   6    3    4 ar
   7    3    9 1
   8    4    5 ar
   9    4   31 1
  10    5    6 ar
  11    5   32 1
  12    6   33 1
  13    7    8 2
  14    8    9 1
  15    8   10 1
  16    9   34 1
  17   10   11 1
  18   10   14 2
  19   11   12 2
  20   11   15 1
  21   12   13 1
  22   12   35 1
  23   13   14 1
  24   13   36 1
  25   15   16 am
  26   15   37 1
  27   16   18 1
  28   16   17 2
  29   18   19 ar
  30   18   23 ar
  31   19   20 ar
  32   19   25 1
  33   20   21 ar
  34   20   38 1
  35   21   22 ar
  36   21   39 1
  37   22   23 ar
  38   22   40 1
  39   23   24 1
  40   26   27 1
  41   26   41 1
  42   26   42 1
  43   27   28 1
  44   27   43 1
  45   28   29 1
  46   28   30 1
  47   28   44 1
  48   29   45 1
  49   29   46 1
  50   29   47 1
  51   30   48 1
  52   30   49 1
  53   30   50 1

#	End of record

