#	Name: ASD01882032
#	Creating user name:	WinNT
#	Creation time:	15. 06. 2019 19:43

#	Modifying user name:	WinNT
#	Modification time:	15. 06. 2019 19:43

#	Program:	/corina/corina34_cracker 3.40 0067  02.08.2006

@<TRIPOS>MOLECULE
ASD01882032
  49   53    0    0    0
SMALL
NO_CHARGES


@<TRIPOS>ATOM
   1 C1            -0.0161     1.3337     0.0094 C.2     
   2 N2             0.0021    -0.0041     0.0020 N.am    
   3 C3             1.2613    -0.4841    -0.0126 C.2     
   4 C4             2.1640     0.7337    -0.0147 C.3     
   5 N5             1.2200     1.8645     0.0004 N.am    
   6 O6            -1.0354     1.9955     0.0180 O.2     
   7 O7             1.6013    -1.6477    -0.0215 O.2     
   8 C8            -1.1986    -0.8435     0.0097 C.3     
   9 C9             1.5609     3.2893     0.0041 C.3     
  10 C10            1.6916     3.7708     1.4261 C.ar    
  11 C11            2.9193     3.7121     2.0648 C.ar    
  12 C12            3.0440     4.1527     3.3692 C.ar    
  13 C13            1.9320     4.6566     4.0416 C.ar    
  14 C14            0.6987     4.7137     3.3947 C.ar    
  15 C15            0.5849     4.2761     2.0884 C.ar    
  16 F16           -0.6088     4.3360     1.4585 F       
  17 F17            3.9964     3.2231     1.4122 F       
  18 C18            2.1296     6.5463     9.4262 C.2     
  19 N19            0.8532     6.9184     9.6229 N.am    
  20 C20            0.0908     6.6575     8.3967 C.3     
  21 C21            1.0686     6.0714     7.4088 C.ar    
  22 C22            0.9457     5.6345     6.1131 C.ar    
  23 C23            2.0605     5.1300     5.4409 C.ar    
  24 C24            3.2955     5.0713     6.0874 C.ar    
  25 C25            3.4184     5.5090     7.3865 C.ar    
  26 C26            2.3038     6.0146     8.0618 C.ar    
  27 O27            3.0155     6.6396    10.2535 O.2     
  28 C28            0.3121     7.4900    10.8585 C.3     
  29 C29            0.4097     6.6446    12.1300 C.3     
  30 C30            1.3077     7.8710    11.9559 C.3     
  31 H31            2.7924     0.7467     0.8759 H       
  32 H32            2.7753     0.7564    -0.9169 H       
  33 H33           -1.5068    -1.0461    -1.0159 H       
  34 H34           -0.9813    -1.7838     0.5163 H       
  35 H35           -2.0010    -0.3250     0.5345 H       
  36 H36            2.5060     3.4381    -0.5182 H       
  37 H37            0.7749     3.8522    -0.4994 H       
  38 H38            4.0015     4.1062     3.8665 H       
  39 H39           -0.1657     5.1031     3.9119 H       
  40 H40           -0.7103     5.9463     8.5979 H       
  41 H41           -0.3226     7.5880     8.0076 H       
  42 H42           -0.0114     5.6805     5.6150 H       
  43 H43            4.1576     4.6810     5.5670 H       
  44 H44            4.3758     5.4615     7.8841 H       
  45 H45           -0.5703     8.1186    10.7387 H       
  46 H46           -0.4082     6.7173    12.8468 H       
  47 H47            0.8766     5.6631    12.0472 H       
  48 H48            2.3654     7.6964    11.7586 H       
  49 H49            1.0806     8.7506    12.5582 H       
@<TRIPOS>BOND
   1    1    2 am
   2    1    5 am
   3    1    6 2
   4    2    3 am
   5    2    8 1
   6    3    4 1
   7    3    7 2
   8    4    5 1
   9    4   31 1
  10    4   32 1
  11    5    9 1
  12    8   33 1
  13    8   34 1
  14    8   35 1
  15    9   10 1
  16    9   36 1
  17    9   37 1
  18   10   11 ar
  19   10   15 ar
  20   11   12 ar
  21   11   17 1
  22   12   13 ar
  23   12   38 1
  24   13   14 ar
  25   13   23 1
  26   14   15 ar
  27   14   39 1
  28   15   16 1
  29   18   19 am
  30   18   26 1
  31   18   27 2
  32   19   20 1
  33   19   28 1
  34   20   21 1
  35   20   40 1
  36   20   41 1
  37   21   22 ar
  38   21   26 ar
  39   22   23 ar
  40   22   42 1
  41   23   24 ar
  42   24   25 ar
  43   24   43 1
  44   25   26 ar
  45   25   44 1
  46   28   29 1
  47   28   30 1
  48   28   45 1
  49   29   30 1
  50   29   46 1
  51   29   47 1
  52   30   48 1
  53   30   49 1

#	End of record

