#	Name: ASD09800021
#	Creating user name:	WinNT
#	Creation time:	15. 06. 2019 21:24

#	Modifying user name:	WinNT
#	Modification time:	15. 06. 2019 21:24

#	Program:	/corina/corina34_cracker 3.40 0067  02.08.2006

@<TRIPOS>MOLECULE
ASD09800021
  83   88    0    0    0
SMALL
NO_CHARGES


@<TRIPOS>ATOM
   1 N1             0.0536     1.2847    -0.0404 N.am    
   2 C2             0.3445    -0.0812    -0.0394 C.ar    
   3 C3             1.4799    -0.5484     0.5857 C.ar    
   4 C4            -0.5254    -0.9936    -0.6738 C.ar    
   5 C5            -0.2120    -2.3749    -0.6615 C.ar    
   6 C6             0.9617    -2.8137    -0.0161 C.ar    
   7 C7             1.7814    -1.9073     0.5939 C.ar    
   8 C8            -1.6952    -0.5579    -1.3162 C.ar    
   9 C9            -2.5118    -1.4662    -1.9178 C.ar    
  10 C10           -2.2042    -2.8252    -1.9057 C.ar    
  11 C11           -1.0779    -3.2828    -1.2931 C.ar    
  12 O12            1.2743    -4.1364     0.0037 O.3     
  13 C13            2.0305    -4.6267    -1.0085 C.ar    
  14 C14            2.3748    -5.9847    -1.0252 C.ar    
  15 N15            2.4339    -3.8215    -1.9763 N.ar    
  16 C16            3.1546    -6.4693    -2.0772 C.ar    
  17 C17            3.5554    -5.5819    -3.0626 C.ar    
  18 C18            3.1711    -4.2567    -2.9802 C.ar    
  19 C19            1.9197    -6.8908     0.0549 C.ar    
  20 N20            1.1765    -6.4274     1.0578 N.ar    
  21 C21            2.2593    -8.2472     0.0340 C.ar    
  22 C22            1.8118    -9.0541     1.0638 C.ar    
  23 N23            1.0807    -8.5235     2.0319 N.ar    
  24 C24            0.7690    -7.2356     2.0238 C.ar    
  25 N25            0.0031    -6.7208     3.0554 N.pl3   
  26 C26           -0.4522    -7.5970     4.1375 C.3     
  27 C27           -1.2736    -6.7844     5.1404 C.3     
  28 N28           -1.7301    -7.6631     6.2255 N.3     
  29 C29           -2.5240    -6.9153     7.2097 C.3     
  30 C30           -3.4708    -7.8735     7.9352 C.3     
  31 C31           -4.2976    -7.0947     8.9603 C.3     
  32 C32           -3.3619    -6.4360     9.9759 C.3     
  33 C33           -2.4151    -5.4778     9.2504 C.3     
  34 C34           -1.5882    -6.2566     8.2253 C.3     
  35 N35           -4.1557    -5.6883    10.9601 N.3     
  36 C36            2.1935     2.2868     1.3706 C.ar    
  37 C37            1.5799     2.5995     2.5850 C.ar    
  38 C38            2.3106     2.5125     3.7720 C.ar    
  39 C39            3.6319     2.1186     3.7374 C.ar    
  40 C40            4.2340     1.8106     2.5301 C.ar    
  41 C41            3.5146     1.8892     1.3511 C.ar    
  42 S42            1.2809     2.3926    -0.1329 S.o2    
  43 O43            2.1507     1.9429    -1.1627 O.2     
  44 O44            0.6656     3.6735    -0.1395 O.2     
  45 C45            3.0345    -2.3852     1.2812 C.3     
  46 C46            0.2078     3.0081     2.6134 C.1     
  47 N47           -0.8808     3.3323     2.6359 N.1     
  48 H48           -0.8676     1.5845     0.0091 H       
  49 H49            2.1443     0.1483     1.0752 H       
  50 H50           -1.9463     0.4924    -1.3327 H       
  51 H51           -3.4112    -1.1285    -2.4113 H       
  52 H52           -2.8687    -3.5256    -2.3896 H       
  53 H53           -0.8518    -4.3389    -1.2917 H       
  54 H54            3.4387    -7.5103    -2.1214 H       
  55 H55            4.1592    -5.9234    -3.8903 H       
  56 H56            3.4832    -3.5649    -3.7486 H       
  57 H57            2.8568    -8.6550    -0.7679 H       
  58 H58            2.0556   -10.1062     1.0782 H       
  59 H59           -0.2323    -5.7798     3.0618 H       
  60 H60           -1.0694    -8.3946     3.7239 H       
  61 H61            0.4115    -8.0304     4.6418 H       
  62 H62           -0.6564    -5.9869     5.5540 H       
  63 H63           -2.1373    -6.3510     4.6361 H       
  64 H64           -2.2508    -8.4469     5.8613 H       
  65 H65           -3.1052    -6.1472     6.6996 H       
  66 H66           -4.1374    -8.3428     7.2117 H       
  67 H67           -2.8896    -8.6417     8.4454 H       
  68 H68           -4.8788    -6.3266     8.4502 H       
  69 H69           -4.9721    -7.7774     9.4772 H       
  70 H70           -2.7807    -7.2042    10.4860 H       
  71 H71           -2.9963    -4.7097     8.7402 H       
  72 H72           -1.7484    -5.0086     9.9739 H       
  73 H73           -1.0071    -7.0248     8.7354 H       
  74 H74           -0.9137    -5.5740     7.7084 H       
  75 H75           -3.5601    -5.2436    11.6424 H       
  76 H76           -4.7520    -5.0129    10.5057 H       
  77 H77            1.8421     2.7533     4.7149 H       
  78 H78            4.1981     2.0509     4.6546 H       
  79 H79            5.2691     1.5031     2.5087 H       
  80 H80            3.9906     1.6473     0.4123 H       
  81 H81            3.8612    -2.3850     0.5707 H       
  82 H82            3.2694    -1.7199     2.1121 H       
  83 H83            2.8793    -3.3962     1.6579 H       
@<TRIPOS>BOND
   1    1    2 1
   2    1   42 am
   3    1   48 1
   4    2    3 ar
   5    2    4 ar
   6    3    7 ar
   7    3   49 1
   8    4    5 ar
   9    4    8 ar
  10    5    6 ar
  11    5   11 ar
  12    6    7 ar
  13    6   12 1
  14    7   45 1
  15    8    9 ar
  16    8   50 1
  17    9   10 ar
  18    9   51 1
  19   10   11 ar
  20   10   52 1
  21   11   53 1
  22   12   13 1
  23   13   14 ar
  24   13   15 ar
  25   14   16 ar
  26   14   19 1
  27   15   18 ar
  28   16   17 ar
  29   16   54 1
  30   17   18 ar
  31   17   55 1
  32   18   56 1
  33   19   20 ar
  34   19   21 ar
  35   20   24 ar
  36   21   22 ar
  37   21   57 1
  38   22   23 ar
  39   22   58 1
  40   23   24 ar
  41   24   25 1
  42   25   26 1
  43   25   59 1
  44   26   27 1
  45   26   60 1
  46   26   61 1
  47   27   28 1
  48   27   62 1
  49   27   63 1
  50   28   29 1
  51   28   64 1
  52   29   30 1
  53   29   34 1
  54   29   65 1
  55   30   31 1
  56   30   66 1
  57   30   67 1
  58   31   32 1
  59   31   68 1
  60   31   69 1
  61   32   33 1
  62   32   35 1
  63   32   70 1
  64   33   34 1
  65   33   71 1
  66   33   72 1
  67   34   73 1
  68   34   74 1
  69   35   75 1
  70   35   76 1
  71   36   37 ar
  72   36   42 1
  73   36   41 ar
  74   37   38 ar
  75   37   46 1
  76   38   39 ar
  77   38   77 1
  78   39   40 ar
  79   39   78 1
  80   40   41 ar
  81   40   79 1
  82   41   80 1
  83   42   43 2
  84   42   44 2
  85   45   81 1
  86   45   82 1
  87   45   83 1
  88   46   47 3

#	End of record

