#	Name: ASD03092681
#	Creating user name:	WinNT
#	Creation time:	15. 06. 2019 20:33

#	Modifying user name:	WinNT
#	Modification time:	15. 06. 2019 20:33

#	Program:	/corina/corina34_cracker 3.40 0067  02.08.2006

@<TRIPOS>MOLECULE
ASD03092681
  38   40    0    0    0
SMALL
NO_CHARGES


@<TRIPOS>ATOM
   1 C1            -0.0187     1.5258     0.0104 C.3     
   2 C2             0.0021    -0.0041     0.0020 C.3     
   3 C3             1.3165     0.7789    -0.0063 C.3     
   4 C4            -0.4176     2.2092     1.2929 C.2     
   5 O5            -0.7068     1.5482     2.2678 O.2     
   6 N6            -0.4530     3.5550     1.3566 N.am    
   7 C7            -0.8408     4.2194     2.6034 C.3     
   8 C8             0.3833     4.3550     3.5112 C.3     
   9 C9            -0.8030     6.3735     1.3199 C.ar    
  10 C10           -1.3904     5.5879     2.2934 C.ar    
  11 C11           -2.4920     6.0741     2.9811 C.ar    
  12 C12           -2.9638     7.3380     2.6628 C.ar    
  13 C13           -2.3244     8.0673     1.6762 C.ar    
  14 N14           -1.2783     7.5718     1.0421 N.ar    
  15 Cl15          -2.9047     9.6515     1.2674 Cl      
  16 C16           -0.4023    -0.6984    -1.2729 C.ar    
  17 C17           -1.4808    -1.5632    -1.2768 C.ar    
  18 C18           -1.8517    -2.2002    -2.4462 C.ar    
  19 C19           -1.1445    -1.9720    -3.6118 C.ar    
  20 C20           -0.0666    -1.1066    -3.6081 C.ar    
  21 C21            0.3016    -0.4663    -2.4397 C.ar    
  22 H22           -0.3248     2.0300    -0.9061 H       
  23 H23           -0.2728    -0.5162     0.9241 H       
  24 H24            1.8888     0.7918    -0.9339 H       
  25 H25            1.9064     0.7818     0.9103 H       
  26 H26           -0.2217     4.0837     0.5769 H       
  27 H27           -1.6040     3.6273     3.1085 H       
  28 H28            1.1464     4.9471     3.0061 H       
  29 H29            0.0947     4.8493     4.4388 H       
  30 H30            0.7808     3.3651     3.7354 H       
  31 H31            0.0580     6.0033     0.7832 H       
  32 H32           -2.9712     5.4819     3.7466 H       
  33 H33           -3.8198     7.7480     3.1780 H       
  34 H34           -2.0333    -1.7415    -0.3661 H       
  35 H35           -2.6938    -2.8764    -2.4491 H       
  36 H36           -1.4339    -2.4702    -4.5253 H       
  37 H37            0.4861    -0.9286    -4.5187 H       
  38 H38            1.1415     0.2128    -2.4376 H       
@<TRIPOS>BOND
   1    1    2 1
   2    1    3 1
   3    1    4 1
   4    1   22 1
   5    2    3 1
   6    2   16 1
   7    2   23 1
   8    3   24 1
   9    3   25 1
  10    4    5 2
  11    4    6 am
  12    6    7 1
  13    6   26 1
  14    7    8 1
  15    7   10 1
  16    7   27 1
  17    8   28 1
  18    8   29 1
  19    8   30 1
  20    9   10 ar
  21    9   14 ar
  22    9   31 1
  23   10   11 ar
  24   11   12 ar
  25   11   32 1
  26   12   13 ar
  27   12   33 1
  28   13   14 ar
  29   13   15 1
  30   16   17 ar
  31   16   21 ar
  32   17   18 ar
  33   17   34 1
  34   18   19 ar
  35   18   35 1
  36   19   20 ar
  37   19   36 1
  38   20   21 ar
  39   20   37 1
  40   21   38 1

#	End of record

