#	Name: ASD08170112
#	Creating user name:	WinNT
#	Creation time:	15. 06. 2019 21:17

#	Modifying user name:	WinNT
#	Modification time:	15. 06. 2019 21:17

#	Program:	/corina/corina34_cracker 3.40 0067  02.08.2006

@<TRIPOS>MOLECULE
ASD08170112
  66   69    0    0    0
SMALL
NO_CHARGES


@<TRIPOS>ATOM
   1 C1            -0.0187     1.5258     0.0104 C.3     
   2 C2             0.0021    -0.0041     0.0020 C.3     
   3 C3             1.4167     2.0553    -0.0004 C.3     
   4 C4             1.3960     3.5852     0.0080 C.3     
   5 C5             2.8098     4.1068    -0.0027 C.2     
   6 C6            -1.4117    -0.5257     0.0127 C.2     
   7 S7             3.7994     4.4593     1.4143 S.3     
   8 C8             5.0770     4.9390     0.3786 C.2     
   9 N9             4.6867     4.8059    -0.8531 N.2     
  10 N10            3.5185     4.3715    -1.0541 N.2     
  11 S11           -2.3742    -0.8935     1.4445 S.3     
  12 N12           -2.1404    -0.7792    -1.0277 N.2     
  13 N13           -3.3061    -1.2119    -0.8091 N.2     
  14 C14           -3.6713    -1.3622     0.4283 C.2     
  15 N15           -4.9107    -1.8251     0.8572 N.am    
  16 C16           -5.8536    -2.1613    -0.0452 C.2     
  17 O17           -5.6213    -2.0602    -1.2312 O.2     
  18 N18            6.3249     5.3958     0.7887 N.am    
  19 C19            7.2495     5.7444    -0.1278 C.2     
  20 C20            8.6017     6.2394     0.3166 C.3     
  21 O21            6.9932     5.6598    -1.3102 O.2     
  22 C22           -7.1965    -2.6628     0.4196 C.3     
  23 C23            9.4419     6.5593    -0.8929 C.ar    
  24 C24           -8.0610    -2.9663    -0.7770 C.ar    
  25 C25            9.4126     7.8286    -1.4374 C.ar    
  26 C26           -8.0426    -4.2290    -1.3400 C.ar    
  27 C27           10.1866     8.1226    -2.5506 C.ar    
  28 C28           10.9883     7.1406    -3.1141 C.ar    
  29 C29           11.0141     5.8729    -2.5658 C.ar    
  30 C30           10.2458     5.5838    -1.4532 C.ar    
  31 C31           -8.8346    -4.5105    -2.4378 C.ar    
  32 C32           -9.6467    -3.5305    -2.9747 C.ar    
  33 C33           -9.6673    -2.2628    -2.4113 C.ar    
  34 C34           -8.8754    -1.9842    -1.3068 C.ar    
  35 O35          -10.4655    -1.2970    -2.9376 O.3     
  36 C36          -11.2574    -1.6564    -4.0715 C.3     
  37 O37           10.1592     9.3704    -3.0884 O.3     
  38 C38           10.9817     9.6013    -4.2339 C.3     
  39 H39           -0.5459     1.8868    -0.8726 H       
  40 H40           -0.5289     1.8773     0.9072 H       
  41 H41            0.5123    -0.3556    -0.8948 H       
  42 H42            0.5293    -0.3651     0.8851 H       
  43 H43            1.9439     1.6943     0.8826 H       
  44 H44            1.9269     1.7038    -0.8972 H       
  45 H45            0.8688     3.9463    -0.8751 H       
  46 H46            0.8858     3.9367     0.9048 H       
  47 H47           -5.0964    -1.9059     1.8058 H       
  48 H48            6.5298     5.4635     1.7344 H       
  49 H49            8.4790     7.1377     0.9216 H       
  50 H50            9.0948     5.4678     0.9077 H       
  51 H51           -7.0615    -3.5694     1.0095 H       
  52 H52           -7.6776    -1.8996     1.0312 H       
  53 H53            8.7874     8.5913    -0.9972 H       
  54 H54           -7.4083    -4.9965    -0.9217 H       
  55 H55           11.5915     7.3669    -3.9809 H       
  56 H56           11.6381     5.1080    -3.0041 H       
  57 H57           10.2675     4.5922    -1.0258 H       
  58 H58           -8.8179    -5.4974    -2.8762 H       
  59 H59          -10.2649    -3.7508    -3.8324 H       
  60 H60           -8.8899    -0.9983    -0.8663 H       
  61 H61          -10.6045    -1.9724    -4.8852 H       
  62 H62          -11.9257    -2.4746    -3.8033 H       
  63 H63          -11.8459    -0.7964    -4.3910 H       
  64 H64           12.0244     9.4165    -3.9757 H       
  65 H65           10.6819     8.9292    -5.0379 H       
  66 H66           10.8662    10.6344    -4.5618 H       
@<TRIPOS>BOND
   1    1    2 1
   2    1    3 1
   3    1   39 1
   4    1   40 1
   5    2    6 1
   6    2   41 1
   7    2   42 1
   8    3    4 1
   9    3   43 1
  10    3   44 1
  11    4    5 1
  12    4   45 1
  13    4   46 1
  14    5    7 1
  15    5   10 2
  16    6   11 1
  17    6   12 2
  18    7    8 1
  19    8    9 2
  20    8   18 1
  21    9   10 1
  22   11   14 1
  23   12   13 1
  24   13   14 2
  25   14   15 1
  26   15   16 am
  27   15   47 1
  28   16   17 2
  29   16   22 1
  30   18   19 am
  31   18   48 1
  32   19   20 1
  33   19   21 2
  34   20   23 1
  35   20   49 1
  36   20   50 1
  37   22   24 1
  38   22   51 1
  39   22   52 1
  40   23   25 ar
  41   23   30 ar
  42   24   26 ar
  43   24   34 ar
  44   25   27 ar
  45   25   53 1
  46   26   31 ar
  47   26   54 1
  48   27   28 ar
  49   27   37 1
  50   28   29 ar
  51   28   55 1
  52   29   30 ar
  53   29   56 1
  54   30   57 1
  55   31   32 ar
  56   31   58 1
  57   32   33 ar
  58   32   59 1
  59   33   34 ar
  60   33   35 1
  61   34   60 1
  62   35   36 1
  63   36   61 1
  64   36   62 1
  65   36   63 1
  66   37   38 1
  67   38   64 1
  68   38   65 1
  69   38   66 1

#	End of record

