#	Name: ASD01913871
#	Creating user name:	WinNT
#	Creation time:	15. 06. 2019 20:02

#	Modifying user name:	WinNT
#	Modification time:	15. 06. 2019 20:02

#	Program:	/corina/corina34_cracker 3.40 0067  02.08.2006

@<TRIPOS>MOLECULE
ASD01913871
  37   39    0    0    0
SMALL
NO_CHARGES


@<TRIPOS>ATOM
   1 C1            -0.0173     1.4278     0.0099 C.ar    
   2 C2             0.0021    -0.0041     0.0020 C.1     
   3 C3             0.0180    -1.1779    -0.0044 C.1     
   4 C4             0.0374    -2.6098    -0.0123 C.ar    
   5 C5            -1.1615    -3.3383    -0.0048 C.ar    
   6 C6             0.1561    -5.3344    -0.0290 C.ar    
   7 N7             1.2706    -4.6188    -0.0412 N.ar    
   8 C8             1.2502    -3.3023    -0.0335 C.ar    
   9 C9            -1.0910    -4.7169    -0.0133 C.ar    
  10 C10            1.1812     2.1463     0.0023 C.ar    
  11 C11            1.1547     3.5252     0.0100 C.ar    
  12 C12           -1.2350     2.1134     0.0194 C.ar    
  13 C13           -0.0549     4.1972     0.0252 C.ar    
  14 C14           -1.2458     3.4925     0.0270 C.ar    
  15 N15            0.2332    -6.7251    -0.0380 N.am    
  16 C16           -0.6880    -7.6929    -0.1151 C.2     
  17 C17            0.3293    -8.7933    -0.0536 C.3     
  18 C18            1.3471    -7.6623     0.0266 C.3     
  19 C19            0.2432    -9.6492     1.2116 C.3     
  20 C20            0.4273    -9.6214    -1.3364 C.3     
  21 O21           -1.8976    -7.6835    -0.2025 O.2     
  22 H22           -2.1159    -2.8331     0.0078 H       
  23 H23            2.1799    -2.7527    -0.0440 H       
  24 H24           -1.9937    -5.3098    -0.0076 H       
  25 H25            2.1260     1.6231    -0.0092 H       
  26 H26            2.0801     4.0818     0.0045 H       
  27 H27           -2.1652     1.5647     0.0204 H       
  28 H28           -0.0695     5.2771     0.0312 H       
  29 H29           -2.1861     4.0237     0.0385 H       
  30 H30            2.0105    -7.6132    -0.8369 H       
  31 H31            1.8846    -7.6284     0.9743 H       
  32 H32           -0.5664   -10.3716     1.1072 H       
  33 H33            1.1852   -10.1779     1.3574 H       
  34 H34            0.0494    -9.0081     2.0715 H       
  35 H35            0.3582    -8.9614    -2.2011 H       
  36 H36            1.3813   -10.1482    -1.3567 H       
  37 H37           -0.3878   -10.3446    -1.3652 H       
@<TRIPOS>BOND
   1    1    2 1
   2    1   10 ar
   3    1   12 ar
   4    2    3 3
   5    3    4 1
   6    4    5 ar
   7    4    8 ar
   8    5    9 ar
   9    5   22 1
  10    6    7 ar
  11    6   15 1
  12    6    9 ar
  13    7    8 ar
  14    8   23 1
  15    9   24 1
  16   10   11 ar
  17   10   25 1
  18   11   13 ar
  19   11   26 1
  20   12   14 ar
  21   12   27 1
  22   13   14 ar
  23   13   28 1
  24   14   29 1
  25   15   16 am
  26   15   18 1
  27   16   17 1
  28   16   21 2
  29   17   18 1
  30   17   19 1
  31   17   20 1
  32   18   30 1
  33   18   31 1
  34   19   32 1
  35   19   33 1
  36   19   34 1
  37   20   35 1
  38   20   36 1
  39   20   37 1

#	End of record

