#	Name: ASD01903071
#	Creating user name:	WinNT
#	Creation time:	15. 06. 2019 19:54

#	Modifying user name:	WinNT
#	Modification time:	15. 06. 2019 19:54

#	Program:	/corina/corina34_cracker 3.40 0067  02.08.2006

@<TRIPOS>MOLECULE
ASD01903071
  33   35    0    0    0
SMALL
NO_CHARGES


@<TRIPOS>ATOM
   1 C1            -0.0160     1.2943     0.0210 C.2     
   2 N2             0.0004    -0.0032     0.0040 N.2     
   3 C3            -1.1730    -0.6194     0.0265 C.2     
   4 C4            -2.2471     0.1862     0.0645 C.2     
   5 S5            -1.6842     1.8559     0.0782 S.3     
   6 C6            -1.2920    -2.0998     0.0103 C.2     
   7 N7             1.1051     2.1110     0.0028 N.pl3   
   8 C8            -2.2719    -2.8641     0.6785 C.2     
   9 N9            -2.0510    -4.1256     0.4273 N.2     
  10 N10           -0.9297    -4.2252    -0.4056 N.am    
  11 C11           -0.4786    -2.9644    -0.6569 C.2     
  12 C12            0.9588     3.4914    -0.0934 C.ar    
  13 N13           -0.2450     4.0126    -0.2730 N.ar    
  14 C14           -0.4273     5.3159    -0.3694 C.ar    
  15 C15            0.6394     6.1881    -0.2855 C.ar    
  16 C16            1.9189     5.6818    -0.0973 C.ar    
  17 C17            2.0780     4.3118     0.0057 C.ar    
  18 C18           -3.6859    -0.2611     0.0955 C.3     
  19 C19           -0.3940    -5.3674    -0.8798 C.2     
  20 N20           -0.9447    -6.5546    -0.5575 N.am    
  21 O21            0.5852    -5.3269    -1.5978 O.2     
  22 H22            1.9910     1.7198     0.0572 H       
  23 H23           -3.0685    -2.4721     1.2935 H       
  24 H24            0.3722    -2.6996    -1.2673 H       
  25 H25           -1.4239     5.7053    -0.5161 H       
  26 H26            0.4807     7.2534    -0.3659 H       
  27 H27            2.7699     6.3433    -0.0289 H       
  28 H28            3.0588     3.8842     0.1527 H       
  29 H29           -4.0065    -0.3823     1.1302 H       
  30 H30           -4.3097     0.4876    -0.3929 H       
  31 H31           -3.7821    -1.2120    -0.4285 H       
  32 H32           -1.7265    -6.5870     0.0157 H       
  33 H33           -0.5591    -7.3767    -0.8988 H       
@<TRIPOS>BOND
   1    1    2 2
   2    1    7 1
   3    1    5 1
   4    2    3 1
   5    3    4 2
   6    3    6 1
   7    4    5 1
   8    4   18 1
   9    6    8 1
  10    6   11 2
  11    7   12 1
  12    7   22 1
  13    8    9 2
  14    8   23 1
  15    9   10 1
  16   10   11 1
  17   10   19 am
  18   11   24 1
  19   12   13 ar
  20   12   17 ar
  21   13   14 ar
  22   14   15 ar
  23   14   25 1
  24   15   16 ar
  25   15   26 1
  26   16   17 ar
  27   16   27 1
  28   17   28 1
  29   18   29 1
  30   18   30 1
  31   18   31 1
  32   19   20 am
  33   19   21 2
  34   20   32 1
  35   20   33 1

#	End of record

