#	Name: ASD01911853
#	Creating user name:	WinNT
#	Creation time:	15. 06. 2019 19:58

#	Modifying user name:	WinNT
#	Modification time:	15. 06. 2019 19:58

#	Program:	/corina/corina34_cracker 3.40 0067  02.08.2006

@<TRIPOS>MOLECULE
ASD01911853
  36   38    0    0    0
SMALL
NO_CHARGES


@<TRIPOS>ATOM
   1 C1            -1.0577    -0.4837    -2.0447 C.ar    
   2 C2            -1.0627     0.0680    -0.7671 C.ar    
   3 C3            -1.0157     1.4475    -0.6288 C.ar    
   4 N4            -0.9674     2.2287    -1.6897 N.ar    
   5 C5            -0.9613     1.7382    -2.9136 C.ar    
   6 C6            -1.0057     0.3736    -3.1317 C.ar    
   7 O7            -1.1133    -0.7333     0.3294 O.3     
   8 C8            -1.1590    -2.0774     0.1357 C.ar    
   9 C9            -0.0046    -2.7696    -0.2030 C.ar    
  10 C10           -0.0499    -4.1386    -0.4006 C.ar    
  11 C11           -1.2461    -4.8203    -0.2609 C.ar    
  12 C12           -2.4031    -4.1311     0.0779 C.ar    
  13 C13           -2.3574    -2.7586     0.2819 C.ar    
  14 N14           -3.6120    -4.8197     0.2191 N.am    
  15 C15           -3.6160    -6.0873     0.6770 C.2     
  16 C16           -4.8807    -6.8508     0.7278 C.ar    
  17 O17           -2.5795    -6.6027     1.0482 O.2     
  18 C18           -4.8881    -8.1637     1.2014 C.ar    
  19 C19           -6.0717    -8.8715     1.2464 C.ar    
  20 C20           -7.2499    -8.2830     0.8234 C.ar    
  21 C21           -7.2501    -6.9808     0.3518 C.ar    
  22 C22           -6.0735    -6.2599     0.3076 C.ar    
  23 Cl23          -8.7337    -6.2514    -0.1778 Cl      
  24 F24            1.0749    -4.8102    -0.7306 F       
  25 H25           -1.0890    -1.5540    -2.1853 H       
  26 H26           -1.0191     1.8862     0.3581 H       
  27 H27           -0.9210     2.4114    -3.7571 H       
  28 H28           -1.0003    -0.0194    -4.1376 H       
  29 H29            0.9298    -2.2393    -0.3128 H       
  30 H30           -1.2799    -5.8886    -0.4158 H       
  31 H31           -3.2562    -2.2209     0.5454 H       
  32 H32           -4.4477    -4.3850    -0.0124 H       
  33 H33           -3.9691    -8.6249     1.5317 H       
  34 H34           -6.0782    -9.8875     1.6124 H       
  35 H35           -8.1735    -8.8415     0.8608 H       
  36 H36           -6.0744    -5.2444    -0.0600 H       
@<TRIPOS>BOND
   1    1    2 ar
   2    1    6 ar
   3    1   25 1
   4    2    3 ar
   5    2    7 1
   6    3    4 ar
   7    3   26 1
   8    4    5 ar
   9    5    6 ar
  10    5   27 1
  11    6   28 1
  12    7    8 1
  13    8    9 ar
  14    8   13 ar
  15    9   10 ar
  16    9   29 1
  17   10   11 ar
  18   10   24 1
  19   11   12 ar
  20   11   30 1
  21   12   13 ar
  22   12   14 1
  23   13   31 1
  24   14   15 am
  25   14   32 1
  26   15   16 1
  27   15   17 2
  28   16   18 ar
  29   16   22 ar
  30   18   19 ar
  31   18   33 1
  32   19   20 ar
  33   19   34 1
  34   20   21 ar
  35   20   35 1
  36   21   22 ar
  37   21   23 1
  38   22   36 1

#	End of record

