#	Name: ASD00171004
#	Creating user name:	WinNT
#	Creation time:	15. 06. 2019 18:32

#	Modifying user name:	WinNT
#	Modification time:	15. 06. 2019 18:32

#	Program:	/corina/corina34_cracker 3.40 0067  02.08.2006

@<TRIPOS>MOLECULE
ASD00171004
  59   62    0    0    0
SMALL
NO_CHARGES


@<TRIPOS>ATOM
   1 C1             0.2533     0.6262     0.8437 C.2     
   2 O2             0.1834    -0.5687     1.0437 O.2     
   3 C3             1.5475     1.3069     0.9199 C.ar    
   4 C4             1.6352     2.6979     0.6882 C.ar    
   5 C5             2.8760     3.3299     0.7648 C.ar    
   6 C6             4.0061     2.5977     1.0650 C.ar    
   7 C7             3.9211     1.2300     1.2927 C.ar    
   8 C8             2.7072     0.5853     1.2288 C.ar    
   9 Cl9            5.5469     3.3920     1.1586 Cl      
  10 C10           -0.0275     3.6771    -0.9092 C.2     
  11 C11            0.4235     3.4757     0.3670 C.2     
  12 C12           -0.4081     4.1014     1.3663 C.2     
  13 C13           -1.4519     4.7544     0.8757 C.2     
  14 S14           -1.4914     4.6476    -0.8761 S.3     
  15 C15           -0.1150     4.0190     2.8422 C.3     
  16 N16            0.9265     4.9948     3.1899 N.3     
  17 C17            1.0722     5.1129     4.6474 C.3     
  18 C18            2.2176     6.0765     4.9666 C.3     
  19 N19            1.9363     7.3855     4.3606 N.3     
  20 C20            1.7906     7.2674     2.9030 C.3     
  21 C21            0.6452     6.3038     2.5839 C.3     
  22 C22            2.9779     8.3613     4.7082 C.3     
  23 C23            4.2144     7.9904     4.0362 C.3     
  24 C24            5.3846     8.9276     4.3988 C.3     
  25 C25            5.2615    10.1845     3.5806 C.3     
  26 C26            4.5100    11.3029     4.3276 C.3     
  27 C27            3.2803    10.7851     5.0979 C.3     
  28 C28            2.4936     9.7712     4.3122 C.3     
  29 N29            0.5831     3.1925    -2.0573 N.pl3   
  30 H30           -0.6385     1.1868     0.6052 H       
  31 H31            2.9523     4.3928     0.5887 H       
  32 H32            4.8140     0.6692     1.5264 H       
  33 H33            2.6496    -0.4774     1.4123 H       
  34 H34           -2.1808     5.2813     1.4737 H       
  35 H35           -1.0218     4.2392     3.4055 H       
  36 H36            0.2309     3.0151     3.0885 H       
  37 H37            0.1456     5.4949     5.0758 H       
  38 H38            1.2925     4.1331     5.0714 H       
  39 H39            2.3087     6.1880     6.0470 H       
  40 H40            3.1491     5.6810     4.5616 H       
  41 H41            1.5704     8.2472     2.4791 H       
  42 H42            2.7173     6.8854     2.4747 H       
  43 H43            0.5541     6.1923     1.5035 H       
  44 H44           -0.2863     6.6993     2.9888 H       
  45 H45            3.1401     8.3350     5.7858 H       
  46 H46            4.4778     6.9712     4.3189 H       
  47 H47            4.0548     8.0258     2.9585 H       
  48 H48            5.3402     9.1753     5.4593 H       
  49 H49            6.3309     8.4356     4.1741 H       
  50 H50            6.2604    10.5393     3.3269 H       
  51 H51            4.7265     9.9545     2.6592 H       
  52 H52            5.1936    11.7752     5.0331 H       
  53 H53            4.1829    12.0501     3.6046 H       
  54 H54            3.6145    10.3276     6.0291 H       
  55 H55            2.6316    11.6285     5.3345 H       
  56 H56            2.6561     9.9280     3.2459 H       
  57 H57            1.4330     9.8722     4.5426 H       
  58 H58            1.3948     2.6658    -1.9895 H       
  59 H59            0.1982     3.3805    -2.9275 H       
@<TRIPOS>BOND
   1    1    2 2
   2    1    3 1
   3    1   30 1
   4    3    4 ar
   5    3    8 ar
   6    4    5 ar
   7    4   11 1
   8    5    6 ar
   9    5   31 1
  10    6    7 ar
  11    6    9 1
  12    7    8 ar
  13    7   32 1
  14    8   33 1
  15   10   11 2
  16   10   14 1
  17   10   29 1
  18   11   12 1
  19   12   13 2
  20   12   15 1
  21   13   14 1
  22   13   34 1
  23   15   16 1
  24   15   35 1
  25   15   36 1
  26   16   17 1
  27   16   21 1
  28   17   18 1
  29   17   37 1
  30   17   38 1
  31   18   19 1
  32   18   39 1
  33   18   40 1
  34   19   20 1
  35   19   22 1
  36   20   21 1
  37   20   41 1
  38   20   42 1
  39   21   43 1
  40   21   44 1
  41   22   23 1
  42   22   28 1
  43   22   45 1
  44   23   24 1
  45   23   46 1
  46   23   47 1
  47   24   25 1
  48   24   48 1
  49   24   49 1
  50   25   26 1
  51   25   50 1
  52   25   51 1
  53   26   27 1
  54   26   52 1
  55   26   53 1
  56   27   28 1
  57   27   54 1
  58   27   55 1
  59   28   56 1
  60   28   57 1
  61   29   58 1
  62   29   59 1

#	End of record

