#	Name: ASD01180324
#	Creating user name:	WinNT
#	Creation time:	15. 06. 2019 19:07

#	Modifying user name:	WinNT
#	Modification time:	15. 06. 2019 19:07

#	Program:	/corina/corina34_cracker 3.40 0067  02.08.2006

@<TRIPOS>MOLECULE
ASD01180324
  63   65    0    0    0
SMALL
NO_CHARGES


@<TRIPOS>ATOM
   1 C1             0.9457     1.4829    -0.0438 C.2     
   2 C2             0.8371    -0.0202    -0.0432 C.3     
   3 C3             2.2391    -0.6328    -0.0457 C.3     
   4 O4             2.0329     2.0101    -0.0459 O.2     
   5 O5            -0.1653     2.2361    -0.0474 O.3     
   6 C6             3.2491    -2.8502    -0.0471 C.2     
   7 O7             4.3432    -2.3198    -0.0493 O.2     
   8 N8             2.1335    -2.0940    -0.0452 N.am    
   9 C9             2.9495    -6.9967    -0.0447 C.ar    
  10 N10            4.1528    -6.4380    -0.0475 N.ar    
  11 C11            4.2905    -5.1256    -0.0485 C.ar    
  12 C12            3.1428    -4.3220    -0.0465 C.ar    
  13 C13            1.8915    -4.9522    -0.0436 C.ar    
  14 N14            1.8391    -6.2708    -0.0427 N.ar    
  15 N15            2.8501    -8.3725    -0.0496 N.pl3   
  16 C16            1.5375    -9.0124     0.0674 C.3     
  17 C17            1.1752    -9.1667     1.5458 C.3     
  18 C18           -0.2400    -9.7351     1.6675 C.3     
  19 C19           -0.5479   -10.0264     3.1376 C.3     
  20 C20            1.6614   -12.8668    -1.7787 C.ar    
  21 C21            0.5400   -12.0540    -1.9317 C.ar    
  22 C22            0.5055   -10.8105    -1.3338 C.ar    
  23 C23            1.5812   -10.3710    -0.5835 C.ar    
  24 C24            2.6971   -11.1736    -0.4287 C.ar    
  25 C25            2.7423   -12.4188    -1.0221 C.ar    
  26 C26            1.7017   -14.2072    -2.4141 C.ar    
  27 C27            2.8230   -15.0201    -2.2611 C.ar    
  28 C28            2.8552   -16.2658    -2.8543 C.ar    
  29 C29            1.7772   -16.7077    -3.5999 C.ar    
  30 C30            0.6617   -15.9047    -3.7554 C.ar    
  31 C31            0.6161   -14.6598    -3.1611 C.ar    
  32 C32            1.8184   -18.0687    -4.2457 C.3     
  33 F33            1.2987   -19.0203    -3.3615 F       
  34 F34            1.0527   -18.0528    -5.4164 F       
  35 F35            3.1419   -18.3966    -4.5585 F       
  36 C36           -1.2466    -8.7171     1.1277 C.3     
  37 H37            0.3001    -0.3453     0.8479 H       
  38 H38            0.2968    -0.3457    -0.9321 H       
  39 H39            2.7761    -0.3077    -0.9368 H       
  40 H40            2.7795    -0.3072     0.8432 H       
  41 H41           -0.0453     3.1956    -0.0476 H       
  42 H42            1.2607    -2.5172    -0.0434 H       
  43 H43            5.2732    -4.6776    -0.0505 H       
  44 H44            0.9834    -4.3676    -0.0416 H       
  45 H45            3.6493    -8.9162    -0.1305 H       
  46 H46            0.7874    -8.3961    -0.4282 H       
  47 H47            1.8816    -9.8451     2.0242 H       
  48 H48            1.2190    -8.1931     2.0341 H       
  49 H49           -0.3118   -10.6576     1.0915 H       
  50 H50           -0.4762    -9.1039     3.7137 H       
  51 H51           -1.5562   -10.4314     3.2243 H       
  52 H52            0.1692   -10.7516     3.5222 H       
  53 H53           -0.3004   -12.3962    -2.5173 H       
  54 H54           -0.3631   -10.1796    -1.4517 H       
  55 H55            3.5344   -10.8253     0.1579 H       
  56 H56            3.6137   -13.0450    -0.9001 H       
  57 H57            3.6655   -14.6758    -1.6797 H       
  58 H58            3.7238   -16.8967    -2.7364 H       
  59 H59           -0.1771   -16.2545    -4.3390 H       
  60 H60           -0.2575   -14.0358    -3.2789 H       
  61 H61           -1.0948    -8.5892     0.0559 H       
  62 H62           -2.2596    -9.0755     1.3109 H       
  63 H63           -1.1027    -7.7614     1.6316 H       
@<TRIPOS>BOND
   1    1    2 1
   2    1    4 2
   3    1    5 1
   4    2    3 1
   5    2   37 1
   6    2   38 1
   7    3    8 1
   8    3   39 1
   9    3   40 1
  10    5   41 1
  11    6    7 2
  12    6    8 am
  13    6   12 1
  14    8   42 1
  15    9   10 ar
  16    9   14 ar
  17    9   15 1
  18   10   11 ar
  19   11   12 ar
  20   11   43 1
  21   12   13 ar
  22   13   14 ar
  23   13   44 1
  24   15   16 1
  25   15   45 1
  26   16   17 1
  27   16   23 1
  28   16   46 1
  29   17   18 1
  30   17   47 1
  31   17   48 1
  32   18   19 1
  33   18   36 1
  34   18   49 1
  35   19   50 1
  36   19   51 1
  37   19   52 1
  38   20   21 ar
  39   20   25 ar
  40   20   26 1
  41   21   22 ar
  42   21   53 1
  43   22   23 ar
  44   22   54 1
  45   23   24 ar
  46   24   25 ar
  47   24   55 1
  48   25   56 1
  49   26   27 ar
  50   26   31 ar
  51   27   28 ar
  52   27   57 1
  53   28   29 ar
  54   28   58 1
  55   29   30 ar
  56   29   32 1
  57   30   31 ar
  58   30   59 1
  59   31   60 1
  60   32   33 1
  61   32   34 1
  62   32   35 1
  63   36   61 1
  64   36   62 1
  65   36   63 1

#	End of record

