#	Name: ASD05430050
#	Creating user name:	WinNT
#	Creation time:	15. 06. 2019 20:59

#	Modifying user name:	WinNT
#	Modification time:	15. 06. 2019 20:59

#	Program:	/corina/corina34_cracker 3.40 0067  02.08.2006

@<TRIPOS>MOLECULE
ASD05430050
  60   66    0    0    0
SMALL
NO_CHARGES


@<TRIPOS>ATOM
   1 C1             0.0329     1.1451     0.2001 C.ar    
   2 C2             0.0794    -0.1988    -0.1734 C.ar    
   3 C3             1.2950    -0.8038    -0.4642 C.ar    
   4 C4             2.4633    -0.0791    -0.3852 C.ar    
   5 C5             2.4233     1.2671    -0.0122 C.ar    
   6 C6             1.1924     1.8753     0.2810 C.ar    
   7 O7             4.9643     0.0457     0.2716 O.3     
   8 C8             4.8591     1.4106     0.1306 C.2     
   9 C9             3.6692     2.0454     0.0740 C.2     
  10 C10            6.0142    -0.3950     1.1433 C.3     
  11 C11            7.4262     0.0838     0.7724 C.3     
  12 N12            7.3410     1.5052     0.4387 N.pl3   
  13 C13            6.1531     2.1309     0.0461 C.2     
  14 C14           -1.5079    -1.7221    -1.3080 C.2     
  15 N15           -1.1061    -0.9413    -0.2550 N.pl3   
  16 C16           -2.6988    -2.2512    -0.9689 C.2     
  17 N17           -3.0201    -1.8092     0.2561 N.2     
  18 C18           -2.0742    -1.0238     0.6943 C.2     
  19 C19           -3.5277    -3.1793    -1.8190 C.3     
  20 C20            8.3710     2.5411     0.4502 C.3     
  21 O21            7.7871     3.5942    -0.3461 O.3     
  22 N22            6.3919     3.3240    -0.3791 N.2     
  23 C23            8.6301     3.0183     1.8560 C.ar    
  24 C24            9.6605     2.0282    -0.1940 C.3     
  25 O25           10.6836     3.0175    -0.0653 O.3     
  26 C26            8.3250     2.2026     2.9296 C.ar    
  27 C27            9.1780     4.2693     2.0708 C.ar    
  28 C28            9.4169     4.7076     3.3595 C.ar    
  29 C29            9.1068     3.8935     4.4357 C.ar    
  30 C30            8.5625     2.6389     4.2192 C.ar    
  31 F31            9.3399     4.3210     5.6959 F       
  32 C32            5.6864    -0.5340     2.6295 C.3     
  33 C33            5.8812    -1.7832     1.7672 C.3     
  34 C34            0.4650     3.1259     0.6975 C.3     
  35 C35           -0.8215     2.3173     0.6041 C.3     
  36 H36            1.3243    -1.8442    -0.7523 H       
  37 H37            3.4086    -0.5502    -0.6107 H       
  38 H38            3.6316     3.1246     0.0920 H       
  39 H39            8.0984    -0.0573     1.6188 H       
  40 H40            7.7921    -0.4764    -0.0881 H       
  41 H41           -0.9740    -1.8789    -2.2336 H       
  42 H42           -2.0629    -0.5237     1.6515 H       
  43 H43           -3.2496    -4.2117    -1.6071 H       
  44 H44           -4.5839    -3.0337    -1.5922 H       
  45 H45           -3.3492    -2.9638    -2.8724 H       
  46 H46            9.9763     1.1119     0.3047 H       
  47 H47            9.4829     1.8244    -1.2500 H       
  48 H48           11.5312     2.7594    -0.4525 H       
  49 H49            7.9004     1.2240     2.7605 H       
  50 H50            9.4198     4.9041     1.2312 H       
  51 H51            9.8456     5.6846     3.5270 H       
  52 H52            8.3200     2.0032     5.0579 H       
  53 H53            6.4722    -0.2876     3.3435 H       
  54 H54            4.6713    -0.2938     2.9457 H       
  55 H55            4.9942    -2.3649     1.5162 H       
  56 H56            6.7951    -2.3587     1.9140 H       
  57 H57            0.7047     3.4539     1.7089 H       
  58 H58            0.5260     3.9308    -0.0350 H       
  59 H59           -1.4960     2.6595    -0.1807 H       
  60 H60           -1.3214     2.1804     1.5630 H       
@<TRIPOS>BOND
   1    1    2 ar
   2    1    6 ar
   3    1   35 1
   4    2    3 ar
   5    2   15 1
   6    3    4 ar
   7    3   36 1
   8    4    5 ar
   9    4   37 1
  10    5    6 ar
  11    5    9 1
  12    6   34 1
  13    7    8 1
  14    7   10 1
  15    8    9 2
  16    8   13 1
  17    9   38 1
  18   10   11 1
  19   10   32 1
  20   10   33 1
  21   11   12 1
  22   11   39 1
  23   11   40 1
  24   12   13 1
  25   12   20 1
  26   13   22 2
  27   14   15 1
  28   14   16 2
  29   14   41 1
  30   15   18 1
  31   16   17 1
  32   16   19 1
  33   17   18 2
  34   18   42 1
  35   19   43 1
  36   19   44 1
  37   19   45 1
  38   20   21 1
  39   20   23 1
  40   20   24 1
  41   21   22 1
  42   23   26 ar
  43   23   27 ar
  44   24   25 1
  45   24   46 1
  46   24   47 1
  47   25   48 1
  48   26   30 ar
  49   26   49 1
  50   27   28 ar
  51   27   50 1
  52   28   29 ar
  53   28   51 1
  54   29   30 ar
  55   29   31 1
  56   30   52 1
  57   32   33 1
  58   32   53 1
  59   32   54 1
  60   33   55 1
  61   33   56 1
  62   34   35 1
  63   34   57 1
  64   34   58 1
  65   35   59 1
  66   35   60 1

#	End of record

