#	Name: ASD01230107
#	Creating user name:	WinNT
#	Creation time:	15. 06. 2019 19:11

#	Modifying user name:	WinNT
#	Modification time:	15. 06. 2019 19:11

#	Program:	/corina/corina34_cracker 3.40 0067  02.08.2006

@<TRIPOS>MOLECULE
ASD01230107
  44   48    0    0    0
SMALL
NO_CHARGES


@<TRIPOS>ATOM
   1 N1            -0.0167     1.3834     0.0096 N.am    
   2 C2             0.0021    -0.0041     0.0020 C.2     
   3 N3            -1.1482    -0.7329     0.0095 N.pl3   
   4 C4            -2.3871    -0.0998     0.0248 C.ar    
   5 C5            -2.4439     1.3050     0.0325 C.ar    
   6 C6            -1.1816     2.0630     0.0300 C.2     
   7 C7             1.0442    -0.8829    -0.0130 C.2     
   8 C8             0.5120    -2.1835    -0.0147 C.2     
   9 N9            -0.8013    -2.0915    -0.0011 N.2     
  10 C10           -3.5611    -0.8330     0.0320 C.ar    
  11 C11           -4.7859    -0.1703     0.0468 C.ar    
  12 C12           -4.8324     1.2259     0.0539 C.ar    
  13 C13           -3.6780     1.9562     0.0473 C.ar    
  14 C14            1.2953    -3.4438    -0.0296 C.ar    
  15 C15            1.2486     2.1216     0.0015 C.3     
  16 C16            2.6880    -3.4013    -0.0379 C.ar    
  17 O17           -1.1893     3.2797     0.0365 O.2     
  18 C18           -6.0470    -0.9507     0.0545 C.2     
  19 C19           -7.1342    -0.7685     0.9327 C.2     
  20 C20            0.6409    -4.6739    -0.0296 C.ar    
  21 C21            1.3745    -5.8429    -0.0431 C.ar    
  22 C22            2.7568    -5.7949    -0.0565 C.ar    
  23 C23            3.4117    -4.5765    -0.0513 C.ar    
  24 C24           -6.3692    -1.9729    -0.7918 C.2     
  25 N25           -7.5974    -2.4107    -0.4529 N.pl3   
  26 N26           -8.0541    -1.6437     0.6257 N.2     
  27 C27           -7.2200     0.2564     2.0341 C.3     
  28 F28           -7.7832     1.4345     1.5320 F       
  29 F29           -8.0197    -0.2382     3.0700 F       
  30 F30           -5.9368     0.5243     2.5228 F       
  31 H31            2.0930    -0.6253    -0.0224 H       
  32 H32           -3.5275    -1.9125     0.0258 H       
  33 H33           -5.7869     1.7311     0.0650 H       
  34 H34           -3.7203     3.0353     0.0529 H       
  35 H35            1.5526     2.3102    -1.0281 H       
  36 H36            1.1189     3.0706     0.5217 H       
  37 H37            2.0158     1.5332     0.5049 H       
  38 H38            3.2003    -2.4506    -0.0342 H       
  39 H39           -0.4383    -4.7125    -0.0187 H       
  40 H40            0.8683    -6.7970    -0.0427 H       
  41 H41            3.3269    -6.7121    -0.0667 H       
  42 H42            4.4911    -4.5448    -0.0622 H       
  43 H43           -5.7513    -2.3602    -1.5884 H       
  44 H44           -8.0829    -3.1314    -0.8838 H       
@<TRIPOS>BOND
   1    1    2 1
   2    1   15 1
   3    1    6 am
   4    2    3 1
   5    2    7 2
   6    3    4 1
   7    3    9 1
   8    4    5 ar
   9    4   10 ar
  10    5    6 1
  11    5   13 ar
  12    6   17 2
  13    7    8 1
  14    7   31 1
  15    8    9 2
  16    8   14 1
  17   10   11 ar
  18   10   32 1
  19   11   12 ar
  20   11   18 1
  21   12   13 ar
  22   12   33 1
  23   13   34 1
  24   14   20 ar
  25   14   16 ar
  26   15   35 1
  27   15   36 1
  28   15   37 1
  29   16   23 ar
  30   16   38 1
  31   18   24 2
  32   18   19 1
  33   19   27 1
  34   19   26 2
  35   20   21 ar
  36   20   39 1
  37   21   22 ar
  38   21   40 1
  39   22   23 ar
  40   22   41 1
  41   23   42 1
  42   24   25 1
  43   24   43 1
  44   25   26 1
  45   25   44 1
  46   27   28 1
  47   27   29 1
  48   27   30 1

#	End of record

