#	Name: ASD01884381
#	Creating user name:	WinNT
#	Creation time:	15. 06. 2019 19:48

#	Modifying user name:	WinNT
#	Modification time:	15. 06. 2019 19:48

#	Program:	/corina/corina34_cracker 3.40 0067  02.08.2006

@<TRIPOS>MOLECULE
ASD01884381
  29   30    0    0    0
SMALL
NO_CHARGES


@<TRIPOS>ATOM
   1 C1             0.0010     1.3915    -0.0934 C.ar    
   2 C2             0.0328     0.0183    -0.2286 C.ar    
   3 N3            -1.0835    -0.6743    -0.3608 N.ar    
   4 C4            -2.2682    -0.0910    -0.3696 C.ar    
   5 C5            -2.3831     1.2779    -0.2395 C.ar    
   6 C6            -1.2292     2.0435    -0.0920 C.ar    
   7 O7            -1.3014     3.3932     0.0392 O.3     
   8 C8            -2.5245     3.9791    -0.0558 C.ar    
   9 C9            -3.3351     4.0840     1.0681 C.ar    
  10 C10           -2.9628     4.4780    -1.2728 C.ar    
  11 C11           -4.2065     5.0733    -1.3675 C.ar    
  12 C12           -5.0149     5.1721    -0.2497 C.ar    
  13 C13           -4.5787     4.6805     0.9681 C.ar    
  14 F14           -2.9090     3.6035     2.2567 F       
  15 Br15          -6.7158     5.9874    -0.3839 Br      
  16 C16            1.3580    -0.6993    -0.2258 C.3     
  17 C17            1.2801     2.1740     0.0570 C.3     
  18 O18           -1.0082    -2.0817    -0.4974 O.3     
  19 H19           -3.1582    -0.6928    -0.4803 H       
  20 H20           -3.3550     1.7488    -0.2482 H       
  21 H21           -2.3325     4.4018    -2.1464 H       
  22 H22           -4.5475     5.4621    -2.3157 H       
  23 H23           -5.2115     4.7588     1.8398 H       
  24 H24            1.6202    -0.9742     0.7958 H       
  25 H25            1.2852    -1.5990    -0.8369 H       
  26 H26            2.1270    -0.0438    -0.6345 H       
  27 H27            1.6462     2.4645    -0.9278 H       
  28 H28            1.0918     3.0672     0.6526 H       
  29 H29            2.0275     1.5562     0.5548 H       
@<TRIPOS>BOND
   1    1    2 ar
   2    1   17 1
   3    1    6 ar
   4    2    3 ar
   5    2   16 1
   6    3    4 ar
   7    3   18 1
   8    4    5 ar
   9    4   19 1
  10    5    6 ar
  11    5   20 1
  12    6    7 1
  13    7    8 1
  14    8    9 ar
  15    8   10 ar
  16    9   14 1
  17    9   13 ar
  18   10   11 ar
  19   10   21 1
  20   11   12 ar
  21   11   22 1
  22   12   13 ar
  23   12   15 1
  24   13   23 1
  25   16   24 1
  26   16   25 1
  27   16   26 1
  28   17   27 1
  29   17   28 1
  30   17   29 1

#	End of record

