#	Name: ASD01916224
#	Creating user name:	WinNT
#	Creation time:	15. 06. 2019 20:06

#	Modifying user name:	WinNT
#	Modification time:	15. 06. 2019 20:06

#	Program:	/corina/corina34_cracker 3.40 0067  02.08.2006

@<TRIPOS>MOLECULE
ASD01916224
  42   45    0    0    0
SMALL
NO_CHARGES


@<TRIPOS>ATOM
   1 C1            -0.0171     1.4098     0.0098 C.ar    
   2 C2             0.0021    -0.0041     0.0020 C.ar    
   3 C3            -1.1923    -0.7253     0.0124 C.ar    
   4 C4            -2.3850    -0.0638     0.0290 C.ar    
   5 C5            -2.4223     1.3389     0.0354 C.ar    
   6 C6            -1.2407     2.0764     0.0308 C.ar    
   7 N7             1.1593     2.0798     0.0022 N.2     
   8 C8             2.3138     1.4688    -0.0138 C.2     
   9 N9             2.4213     0.1127    -0.0277 N.am    
  10 C10            1.3105    -0.6681    -0.0177 C.2     
  11 C11            3.7023     2.0878    -0.0182 C.3     
  12 C12            4.6394     0.9324     0.3941 C.3     
  13 C13            3.8338    -0.3041    -0.0545 C.3     
  14 C14           -3.6836     2.0167     0.0512 C.1     
  15 C15           -4.7177     2.5723     0.0642 C.1     
  16 C16           -5.9790     3.2502     0.0800 C.ar    
  17 N17           -6.0140     4.5792     0.0860 N.ar    
  18 C18           -7.1537     5.2390     0.1005 C.ar    
  19 C19           -8.3634     4.5684     0.1105 C.ar    
  20 C20           -8.3740     3.1800     0.1046 C.ar    
  21 C21           -7.1642     2.5100     0.0832 C.ar    
  22 O22            1.3975    -1.8824    -0.0244 O.2     
  23 C23            5.9728     1.0168    -0.3515 C.3     
  24 O24            6.6806     2.1848     0.0689 O.3     
  25 C25            7.9465     2.3590    -0.5707 C.3     
  26 H26           -1.1724    -1.8051     0.0070 H       
  27 H27           -3.3083    -0.6242     0.0369 H       
  28 H28           -1.2727     3.1559     0.0360 H       
  29 H29            3.9561     2.4465    -1.0158 H       
  30 H30            3.7590     2.9009     0.7055 H       
  31 H31            4.7973     0.9246     1.4726 H       
  32 H32            3.9959    -1.1307     0.6373 H       
  33 H33            4.1217    -0.5953    -1.0647 H       
  34 H34           -7.1435     6.3189     0.1050 H       
  35 H35           -9.2918     5.1200     0.1230 H       
  36 H36           -9.3065     2.6352     0.1122 H       
  37 H37           -7.1359     1.4304     0.0777 H       
  38 H38            6.5691     0.1315    -0.1307 H       
  39 H39            5.7865     1.0712    -1.4241 H       
  40 H40            8.4202     3.2670    -0.1976 H       
  41 H41            8.5838     1.5015    -0.3545 H       
  42 H42            7.8012     2.4412    -1.6478 H       
@<TRIPOS>BOND
   1    1    2 ar
   2    1    7 1
   3    1    6 ar
   4    2    3 ar
   5    2   10 1
   6    3    4 ar
   7    3   26 1
   8    4    5 ar
   9    4   27 1
  10    5    6 ar
  11    5   14 1
  12    6   28 1
  13    7    8 2
  14    8    9 1
  15    8   11 1
  16    9   10 am
  17    9   13 1
  18   10   22 2
  19   11   12 1
  20   11   29 1
  21   11   30 1
  22   12   13 1
  23   12   23 1
  24   12   31 1
  25   13   32 1
  26   13   33 1
  27   14   15 3
  28   15   16 1
  29   16   17 ar
  30   16   21 ar
  31   17   18 ar
  32   18   19 ar
  33   18   34 1
  34   19   20 ar
  35   19   35 1
  36   20   21 ar
  37   20   36 1
  38   21   37 1
  39   23   24 1
  40   23   38 1
  41   23   39 1
  42   24   25 1
  43   25   40 1
  44   25   41 1
  45   25   42 1

#	End of record

