#	Name: ASD08170172
#	Creating user name:	WinNT
#	Creation time:	15. 06. 2019 21:17

#	Modifying user name:	WinNT
#	Modification time:	15. 06. 2019 21:17

#	Program:	/corina/corina34_cracker 3.40 0067  02.08.2006

@<TRIPOS>MOLECULE
ASD08170172
  67   70    0    0    0
SMALL
NO_CHARGES


@<TRIPOS>ATOM
   1 N1            -0.0150     1.2583     0.0090 N.2     
   2 N2             0.0021    -0.0041     0.0020 N.2     
   3 C3             1.1271     1.8769     0.0014 C.2     
   4 S4             2.3826     0.7116    -0.0169 S.3     
   5 C5             1.1681    -0.5677    -0.0121 C.2     
   6 C6             1.4387    -2.0502    -0.0227 C.3     
   7 C7             1.5165    -2.5442    -1.4687 C.3     
   8 S8             1.8422    -4.3286    -1.4814 S.3     
   9 C9             1.8986    -4.7206    -3.2516 C.3     
  10 C10            2.1699    -6.2152    -3.4347 C.3     
  11 C11            2.2167    -6.5408    -4.9053 C.2     
  12 N12            3.2694    -6.5184    -5.6596 N.2     
  13 S13            0.8491    -7.0282    -5.9071 S.3     
  14 C14            1.9000    -7.1354    -7.2557 C.2     
  15 N15            3.1017    -6.8250    -6.8728 N.2     
  16 N16            1.5289    -7.4992    -8.5457 N.am    
  17 C17            2.4537    -7.5464    -9.5250 C.2     
  18 O18            3.6096    -7.2716    -9.2812 O.2     
  19 C19            2.0516    -7.9407   -10.9228 C.3     
  20 N20            1.3017     3.2566     0.0067 N.am    
  21 C21            0.2284     4.0717     0.0214 C.2     
  22 O22           -0.8897     3.6019     0.0299 O.2     
  23 C23            0.4176     5.5667     0.0272 C.3     
  24 C24            1.4130    -6.7355   -11.6448 C.3     
  25 C25            0.7195     6.0631    -1.4026 C.3     
  26 C26           -0.0571     7.4043    -1.4760 C.3     
  27 C27           -1.3133     7.0831    -0.6283 C.3     
  28 N28           -0.8213     6.2259     0.4655 N.am    
  29 N29            3.2409    -8.3313   -11.6938 N.am    
  30 C30            3.3839    -7.4144   -12.8393 C.3     
  31 C31            1.9558    -6.8699   -13.0921 C.3     
  32 C32           -1.4100     6.0716     1.6681 C.2     
  33 C33           -2.6837     6.8125     1.9841 C.3     
  34 O34           -0.9148     5.3364     2.4958 O.2     
  35 F35           -3.0995     6.4930     3.2811 F       
  36 F36           -2.4567     8.1899     1.8931 F       
  37 F37           -3.6773     6.4423     1.0714 F       
  38 C38            4.0645    -9.3573   -11.4014 C.2     
  39 C39            5.2522    -9.6451   -12.2833 C.3     
  40 O40            3.8498   -10.0489   -10.4285 O.2     
  41 F41            5.9502   -10.7481   -11.7801 F       
  42 F42            4.8122    -9.9244   -13.5816 F       
  43 F43            6.0966    -8.5299   -12.3068 F       
  44 H44            2.3843    -2.2506     0.4811 H       
  45 H45            0.6334    -2.5702     0.4961 H       
  46 H46            0.5709    -2.3438    -1.9724 H       
  47 H47            2.3218    -2.0242    -1.9874 H       
  48 H48            0.9434    -4.4658    -3.7108 H       
  49 H49            2.6943    -4.1461    -3.7258 H       
  50 H50            3.1250    -6.4700    -2.9755 H       
  51 H51            1.3741    -6.7896    -2.9605 H       
  52 H52            0.6045    -7.7190    -8.7407 H       
  53 H53            1.3431    -8.7682   -10.8851 H       
  54 H54            2.1959     3.6323    -0.0001 H       
  55 H55            1.2380     5.8338     0.6933 H       
  56 H56            0.3256    -6.8103   -11.6322 H       
  57 H57            1.7413    -5.7984   -11.1953 H       
  58 H58            1.7886     6.2287    -1.5356 H       
  59 H59            0.3423     5.3580    -2.1433 H       
  60 H60            0.5191     8.2144    -1.0292 H       
  61 H61           -0.3300     7.6419    -2.5042 H       
  62 H62           -1.7447     8.0001    -0.2269 H       
  63 H63           -2.0491     6.5477    -1.2283 H       
  64 H64            4.0622    -6.5985   -12.5898 H       
  65 H65            3.7444    -7.9544   -13.7148 H       
  66 H66            1.3627    -7.5809   -13.6673 H       
  67 H67            1.9896    -5.9000   -13.5884 H       
@<TRIPOS>BOND
   1    1    2 1
   2    1    3 2
   3    2    5 2
   4    3    4 1
   5    3   20 1
   6    4    5 1
   7    5    6 1
   8    6    7 1
   9    6   44 1
  10    6   45 1
  11    7    8 1
  12    7   46 1
  13    7   47 1
  14    8    9 1
  15    9   10 1
  16    9   48 1
  17    9   49 1
  18   10   11 1
  19   10   50 1
  20   10   51 1
  21   11   12 2
  22   11   13 1
  23   12   15 1
  24   13   14 1
  25   14   15 2
  26   14   16 1
  27   16   17 am
  28   16   52 1
  29   17   18 2
  30   17   19 1
  31   19   24 1
  32   19   29 1
  33   19   53 1
  34   20   21 am
  35   20   54 1
  36   21   22 2
  37   21   23 1
  38   23   25 1
  39   23   28 1
  40   23   55 1
  41   24   31 1
  42   24   56 1
  43   24   57 1
  44   25   26 1
  45   25   58 1
  46   25   59 1
  47   26   27 1
  48   26   60 1
  49   26   61 1
  50   27   28 1
  51   27   62 1
  52   27   63 1
  53   28   32 am
  54   29   30 1
  55   29   38 am
  56   30   31 1
  57   30   64 1
  58   30   65 1
  59   31   66 1
  60   31   67 1
  61   32   33 1
  62   32   34 2
  63   33   35 1
  64   33   36 1
  65   33   37 1
  66   38   39 1
  67   38   40 2
  68   39   41 1
  69   39   42 1
  70   39   43 1

#	End of record

