#	Name: ASD08170632
#	Creating user name:	WinNT
#	Creation time:	15. 06. 2019 21:17

#	Modifying user name:	WinNT
#	Modification time:	15. 06. 2019 21:17

#	Program:	/corina/corina34_cracker 3.40 0067  02.08.2006

@<TRIPOS>MOLECULE
ASD08170632
  78   81    0    0    0
SMALL
NO_CHARGES


@<TRIPOS>ATOM
   1 N1            -0.0159     1.3150     0.0224 N.ar    
   2 C2             0.0017    -0.0034     0.0124 C.ar    
   3 C3            -1.2931    -0.7743     0.0243 C.3     
   4 C4            -4.2984    -0.6746     2.4294 C.3     
   5 C5            -5.5932    -1.4455     2.4412 C.2     
   6 N6            -5.8033    -2.5767     3.0361 N.2     
   7 N7            -6.9625    -3.0651     2.9277 N.2     
   8 C8            -7.8359    -2.3975     2.2358 C.2     
   9 S9            -7.0970    -0.9657     1.6538 S.3     
  10 N10           -9.1540    -2.7791     2.0098 N.am    
  11 C11           -3.4530    -1.1158     1.2328 C.3     
  12 C12           -2.1384    -0.3331     1.2208 C.3     
  13 C13            1.2122    -0.6808    -0.0095 C.ar    
  14 C14            2.3785     0.0690    -0.0202 C.ar    
  15 C15            2.2616     1.4575    -0.0083 C.ar    
  16 N16            1.0600     2.0148     0.0126 N.ar    
  17 N17            3.4043     2.2567    -0.0179 N.am    
  18 C18            3.2889     3.5963    -0.1113 C.2     
  19 O19            2.1992     4.1007    -0.2812 O.2     
  20 C20            4.5141     4.4673    -0.0047 C.3     
  21 C21            4.1152     5.9141    -0.1410 C.ar    
  22 C22            3.7797     6.6473     0.9819 C.ar    
  23 C23            3.4138     7.9744     0.8569 C.ar    
  24 C24            3.3838     8.5686    -0.3908 C.ar    
  25 C25            3.7202     7.8357    -1.5136 C.ar    
  26 C26            4.0903     6.5097    -1.3882 C.ar    
  27 C27           -9.6205    -3.9317     2.5297 C.2     
  28 O28           -8.8908    -4.6361     3.1947 O.2     
  29 C29          -11.0488    -4.3451     2.2847 C.3     
  30 C30          -11.3154    -5.6609     2.9693 C.ar    
  31 C31          -11.1665    -5.7699     4.3390 C.ar    
  32 C32          -11.4110    -6.9771     4.9671 C.ar    
  33 C33          -11.8047    -8.0748     4.2252 C.ar    
  34 C34          -11.9545    -7.9655     2.8552 C.ar    
  35 C35          -11.7143    -6.7576     2.2279 C.ar    
  36 C36          -12.3834    -9.1625     2.0463 C.3     
  37 N37          -13.8454    -9.1934     1.9573 N.am    
  38 C38          -14.4583   -10.1822     1.2769 C.2     
  39 O39          -15.8019   -10.2106     1.1951 O.3     
  40 O40          -13.7984   -11.0481     0.7373 O.2     
  41 C41          -16.3938   -11.3048     0.4463 C.3     
  42 C42          -17.9177   -11.1694     0.4640 C.3     
  43 C43          -11.9918    -3.2785     2.8450 C.3     
  44 H44           -1.8401    -0.5802    -0.8983 H       
  45 H45           -1.0805    -1.8405     0.1031 H       
  46 H46           -4.5110     0.3916     2.3505 H       
  47 H47           -3.7514    -0.8687     3.3520 H       
  48 H48           -9.7376    -2.2157     1.4779 H       
  49 H49           -3.2404    -2.1820     1.3116 H       
  50 H50           -4.0000    -0.9216     0.3102 H       
  51 H51           -1.5915    -0.5273     2.1434 H       
  52 H52           -2.3511     0.7331     1.1420 H       
  53 H53            1.2451    -1.7603    -0.0176 H       
  54 H54            3.3472    -0.4082    -0.0369 H       
  55 H55            4.2821     1.8485     0.0427 H       
  56 H56            4.9880     4.3107     0.9643 H       
  57 H57            5.2148     4.2073    -0.7981 H       
  58 H58            3.8032     6.1831     1.9568 H       
  59 H59            3.1510     8.5470     1.7341 H       
  60 H60            3.0972     9.6053    -0.4886 H       
  61 H61            3.6964     8.2998    -2.4885 H       
  62 H62            4.3531     5.9371    -2.2654 H       
  63 H63          -11.2174    -4.4524     1.2132 H       
  64 H64          -10.8588    -4.9122     4.9187 H       
  65 H65          -11.2939    -7.0624     6.0373 H       
  66 H66          -11.9950    -9.0180     4.7158 H       
  67 H67          -11.8314    -6.6723     1.1576 H       
  68 H68          -11.9597    -9.0946     1.0443 H       
  69 H69          -12.0295   -10.0733     2.5294 H       
  70 H70          -14.3722    -8.5022     2.3880 H       
  71 H71          -16.0383   -11.2744    -0.5837 H       
  72 H72          -16.1080   -12.2531     0.9015 H       
  73 H73          -18.2732   -11.1998     1.4939 H       
  74 H74          -18.2035   -10.2211     0.0088 H       
  75 H75          -18.3620   -11.9908    -0.0982 H       
  76 H76          -11.8233    -3.1713     3.9166 H       
  77 H77          -11.7990    -2.3268     2.3499 H       
  78 H78          -13.0249    -3.5775     2.6678 H       
@<TRIPOS>BOND
   1    1    2 ar
   2    1   16 ar
   3    2    3 1
   4    2   13 ar
   5    3   12 1
   6    3   44 1
   7    3   45 1
   8    4    5 1
   9    4   11 1
  10    4   46 1
  11    4   47 1
  12    5    6 2
  13    5    9 1
  14    6    7 1
  15    7    8 2
  16    8    9 1
  17    8   10 1
  18   10   27 am
  19   10   48 1
  20   11   12 1
  21   11   49 1
  22   11   50 1
  23   12   51 1
  24   12   52 1
  25   13   14 ar
  26   13   53 1
  27   14   15 ar
  28   14   54 1
  29   15   16 ar
  30   15   17 1
  31   17   18 am
  32   17   55 1
  33   18   19 2
  34   18   20 1
  35   20   21 1
  36   20   56 1
  37   20   57 1
  38   21   22 ar
  39   21   26 ar
  40   22   23 ar
  41   22   58 1
  42   23   24 ar
  43   23   59 1
  44   24   25 ar
  45   24   60 1
  46   25   26 ar
  47   25   61 1
  48   26   62 1
  49   27   28 2
  50   27   29 1
  51   29   30 1
  52   29   43 1
  53   29   63 1
  54   30   31 ar
  55   30   35 ar
  56   31   32 ar
  57   31   64 1
  58   32   33 ar
  59   32   65 1
  60   33   34 ar
  61   33   66 1
  62   34   35 ar
  63   34   36 1
  64   35   67 1
  65   36   37 1
  66   36   68 1
  67   36   69 1
  68   37   38 am
  69   37   70 1
  70   38   39 1
  71   38   40 2
  72   39   41 1
  73   41   42 1
  74   41   71 1
  75   41   72 1
  76   42   73 1
  77   42   74 1
  78   42   75 1
  79   43   76 1
  80   43   77 1
  81   43   78 1

#	End of record

