#	Name: ASD03330405
#	Creating user name:	WinNT
#	Creation time:	15. 06. 2019 20:37

#	Modifying user name:	WinNT
#	Modification time:	15. 06. 2019 20:37

#	Program:	/corina/corina34_cracker 3.40 0067  02.08.2006

@<TRIPOS>MOLECULE
ASD03330405
  67   69    0    0    0
SMALL
NO_CHARGES


@<TRIPOS>ATOM
   1 C1             0.0456     0.8313     0.6959 C.3     
   2 N2            -0.1839    -0.5750     0.3315 N.am    
   3 C3             0.4041    -1.0690    -0.9283 C.3     
   4 C4             1.8069    -0.5180    -1.0045 C.2     
   5 N5             2.2954     0.4363    -0.1729 N.pl3   
   6 C6             1.5447     1.0581     0.9204 C.3     
   7 C7             2.7981    -0.8493    -1.8707 C.2     
   8 N8             3.8770    -0.0931    -1.5665 N.2     
   9 C9             3.5817     0.6829    -0.5490 C.2     
  10 C10            4.4932     1.6621     0.0830 C.ar    
  11 C11            5.6634     2.0519    -0.5690 C.ar    
  12 C12            2.7138    -1.8521    -2.9472 C.2     
  13 O13            1.6820    -2.4718    -3.1215 O.2     
  14 C14            3.6964    -3.0794    -4.8087 C.3     
  15 N15            3.7802    -2.0824    -3.7385 N.am    
  16 C16           -0.9091    -1.3882     1.1247 C.2     
  17 O17           -1.3068    -0.9898     2.2025 O.2     
  18 C18            6.5091     2.9658     0.0255 C.ar    
  19 C19            6.1987     3.4953     1.2653 C.ar    
  20 C20            5.0398     3.1128     1.9169 C.ar    
  21 C21            4.1832     2.2037     1.3307 C.ar    
  22 N22           -1.1936    -2.6430     0.7233 N.am    
  23 C23           -2.0718    -3.4900     1.5342 C.3     
  24 C24            3.9133    -1.2044    -6.4458 C.3     
  25 C25            3.0924    -2.4362    -6.0587 C.3     
  26 C26            3.1106    -3.4436    -7.2101 C.3     
  27 C27            5.0771    -3.5935    -5.1256 C.2     
  28 N28            5.2271    -4.7553    -5.7920 N.am    
  29 C29            1.6494    -2.0174    -5.7702 C.3     
  30 O30            6.0533    -2.9617    -4.7808 O.2     
  31 C31            6.5652    -5.2127    -6.1747 C.3     
  32 C32           -2.2298    -4.8541     0.8594 C.3     
  33 C33           -3.1470    -5.7388     1.7062 C.3     
  34 H34           -0.3036     1.4775    -0.1094 H       
  35 H35           -0.4987     1.0634     1.6113 H       
  36 H36            0.4320    -2.1586    -0.9238 H       
  37 H37           -0.1815    -0.7143    -1.7765 H       
  38 H38            1.7519     2.1280     0.9420 H       
  39 H39            1.8429     0.6095     1.8680 H       
  40 H40            5.9070     1.6389    -1.5367 H       
  41 H41            3.0657    -3.9075    -4.4853 H       
  42 H42            4.6031    -1.5881    -3.5995 H       
  43 H43            7.4155     3.2681    -0.4780 H       
  44 H44            6.8641     4.2101     1.7266 H       
  45 H45            4.8031     3.5298     2.8847 H       
  46 H46            3.2789     1.9059     1.8404 H       
  47 H47           -0.8169    -2.9852    -0.1024 H       
  48 H48           -1.6357    -3.6228     2.5243 H       
  49 H49           -3.0487    -3.0158     1.6281 H       
  50 H50            4.9413    -1.5028    -6.6513 H       
  51 H51            3.4830    -0.7462    -7.3363 H       
  52 H52            3.9003    -0.4867    -5.6255 H       
  53 H53            4.1395    -3.7336    -7.4230 H       
  54 H54            2.5350    -4.3259    -6.9301 H       
  55 H55            2.6702    -2.9891    -8.0976 H       
  56 H56            4.4491    -5.2886    -6.0183 H       
  57 H57            1.2191    -1.5592    -6.6607 H       
  58 H58            1.0646    -2.8950    -5.4945 H       
  59 H59            1.6365    -1.2997    -4.9500 H       
  60 H60            7.0293    -4.4731    -6.8271 H       
  61 H61            7.1748    -5.3416    -5.2803 H       
  62 H62            6.4872    -6.1638    -6.7014 H       
  63 H63           -2.6659    -4.7213    -0.1307 H       
  64 H64           -1.2529    -5.3284     0.7655 H       
  65 H65           -2.7109    -5.8715     2.6963 H       
  66 H66           -4.1239    -5.2645     1.8001 H       
  67 H67           -3.2596    -6.7105     1.2255 H       
@<TRIPOS>BOND
   1    1    2 1
   2    1    6 1
   3    1   34 1
   4    1   35 1
   5    2    3 1
   6    2   16 am
   7    3    4 1
   8    3   36 1
   9    3   37 1
  10    4    5 1
  11    4    7 2
  12    5    6 1
  13    5    9 1
  14    6   38 1
  15    6   39 1
  16    7    8 1
  17    7   12 1
  18    8    9 2
  19    9   10 1
  20   10   11 ar
  21   10   21 ar
  22   11   18 ar
  23   11   40 1
  24   12   13 2
  25   12   15 am
  26   14   15 1
  27   14   27 1
  28   14   25 1
  29   14   41 1
  30   15   42 1
  31   16   17 2
  32   16   22 am
  33   18   19 ar
  34   18   43 1
  35   19   20 ar
  36   19   44 1
  37   20   21 ar
  38   20   45 1
  39   21   46 1
  40   22   23 1
  41   22   47 1
  42   23   32 1
  43   23   48 1
  44   23   49 1
  45   24   25 1
  46   24   50 1
  47   24   51 1
  48   24   52 1
  49   25   29 1
  50   25   26 1
  51   26   53 1
  52   26   54 1
  53   26   55 1
  54   27   28 am
  55   27   30 2
  56   28   31 1
  57   28   56 1
  58   29   57 1
  59   29   58 1
  60   29   59 1
  61   31   60 1
  62   31   61 1
  63   31   62 1
  64   32   33 1
  65   32   63 1
  66   32   64 1
  67   33   65 1
  68   33   66 1
  69   33   67 1

#	End of record

