#	Name: ASD01910055
#	Creating user name:	WinNT
#	Creation time:	15. 06. 2019 19:55

#	Modifying user name:	WinNT
#	Modification time:	15. 06. 2019 19:55

#	Program:	/corina/corina34_cracker 3.40 0067  02.08.2006

@<TRIPOS>MOLECULE
ASD01910055
  44   47    0    0    0
SMALL
NO_CHARGES


@<TRIPOS>ATOM
   1 C1            -0.2512     2.0821     1.4669 C.3     
   2 C2            -0.2578     0.6951     0.8166 C.3     
   3 N3             0.7078    -0.1611     1.5188 N.am    
   4 C4             2.0913     0.3100     1.6689 C.3     
   5 C5             2.0716     1.7013     2.3098 C.3     
   6 C6             1.1786     2.6276     1.4812 C.3     
   7 C7             0.3314    -1.3558     2.0163 C.2     
   8 C8            -1.0814    -1.7791     1.9320 C.ar    
   9 C9            -1.7601    -1.7167     0.7131 C.ar    
  10 C10           -3.0783    -2.1129     0.6401 C.ar    
  11 C11           -3.7304    -2.5727     1.7740 C.ar    
  12 C12           -3.0614    -2.6363     2.9868 C.ar    
  13 C13           -1.7413    -2.2485     3.0697 C.ar    
  14 C14            3.4720     2.2565     2.3500 C.2     
  15 N15            4.1401     2.6052     3.4212 N.2     
  16 C16            5.3398     3.0415     2.9751 C.2     
  17 N17            5.3297     2.9330     1.6718 N.2     
  18 O18            4.2679     2.4800     1.2996 O.3     
  19 C19            6.4579     3.5491     3.8081 C.ar    
  20 C20            7.6434     3.9673     3.2067 C.ar    
  21 C21            8.6803     4.4389     3.9849 C.ar    
  22 C22            8.5442     4.4972     5.3627 C.ar    
  23 C23            7.3671     4.0824     5.9647 C.ar    
  24 C24            6.3233     3.6144     5.1936 C.ar    
  25 F25            9.5622     4.9594     6.1211 F       
  26 O26            1.1546    -2.0851     2.5343 O.2     
  27 F27           -5.0225    -2.9598     1.6970 F       
  28 H28            1.6791     1.6292     3.3241 H       
  29 H29           -0.8916     2.7546     0.8962 H       
  30 H30           -0.6219     2.0063     2.4892 H       
  31 H31           -1.2546     0.2606     0.8927 H       
  32 H32            0.0260     0.7820    -0.2323 H       
  33 H33            2.6446    -0.3786     2.3075 H       
  34 H34            2.5667     0.3655     0.6896 H       
  35 H35            1.5575     2.6799     0.4605 H       
  36 H36            1.1824     3.6249     1.9212 H       
  37 H37           -1.2531    -1.3584    -0.1706 H       
  38 H38           -3.6042    -2.0647    -0.3019 H       
  39 H39           -3.5742    -2.9949     3.8671 H       
  40 H40           -1.2210    -2.2988     4.0148 H       
  41 H41            7.7504     3.9218     2.1330 H       
  42 H42            9.5996     4.7629     3.5197 H       
  43 H43            7.2652     4.1295     7.0389 H       
  44 H44            5.4062     3.2913     5.6637 H       
@<TRIPOS>BOND
   1    1    2 1
   2    1    6 1
   3    1   29 1
   4    1   30 1
   5    2    3 1
   6    2   31 1
   7    2   32 1
   8    3    4 1
   9    3    7 am
  10    4    5 1
  11    4   33 1
  12    4   34 1
  13    5    6 1
  14    5   28 1
  15    5   14 1
  16    6   35 1
  17    6   36 1
  18    7    8 1
  19    7   26 2
  20    8    9 ar
  21    8   13 ar
  22    9   10 ar
  23    9   37 1
  24   10   11 ar
  25   10   38 1
  26   11   12 ar
  27   11   27 1
  28   12   13 ar
  29   12   39 1
  30   13   40 1
  31   14   15 2
  32   14   18 1
  33   15   16 1
  34   16   17 2
  35   16   19 1
  36   17   18 1
  37   19   20 ar
  38   19   24 ar
  39   20   21 ar
  40   20   41 1
  41   21   22 ar
  42   21   42 1
  43   22   23 ar
  44   22   25 1
  45   23   24 ar
  46   23   43 1
  47   24   44 1

#	End of record

