#	Name: ASD02500131
#	Creating user name:	WinNT
#	Creation time:	15. 06. 2019 20:22

#	Modifying user name:	WinNT
#	Modification time:	15. 06. 2019 20:22

#	Program:	/corina/corina34_cracker 3.40 0067  02.08.2006

@<TRIPOS>MOLECULE
ASD02500131
  68   72    0    0    0
SMALL
NO_CHARGES


@<TRIPOS>ATOM
   1 N1             1.9453     3.9848    -1.2675 N.ar    
   2 C2             2.7524     3.6824    -0.2798 C.ar    
   3 C3             3.8737     2.8774    -0.4694 C.ar    
   4 C4             4.1545     2.3810    -1.7104 C.ar    
   5 C5             3.2854     2.7075    -2.7686 C.ar    
   6 C6             3.5096     2.2348    -4.0713 C.ar    
   7 C7             2.6458     2.5733    -5.0680 C.ar    
   8 C8             1.5416     3.3835    -4.8125 C.ar    
   9 C9             1.2941     3.8593    -3.5615 C.ar    
  10 C10            2.1629     3.5318    -2.5063 C.ar    
  11 S11           -0.1095     4.8827    -3.2663 S.o2    
  12 O12            0.3623     6.0127    -2.5454 O.2     
  13 O13           -0.8001     4.9834    -4.5041 O.2     
  14 N14           -1.1108     4.0567    -2.2380 N.am    
  15 C15           -1.6531     2.8366    -2.6264 C.ar    
  16 C16           -1.6181     1.7518    -1.7546 C.ar    
  17 C17           -2.1539     0.5431    -2.1360 C.ar    
  18 C18           -2.7337     0.4051    -3.4005 C.ar    
  19 C19           -2.7673     1.4963    -4.2737 C.ar    
  20 C20           -2.2349     2.7040    -3.8842 C.ar    
  21 C21           -3.3085    -0.8894    -3.8128 C.2     
  22 O22           -4.3653    -0.9217    -4.4134 O.2     
  23 N23           -2.6624    -2.0363    -3.5237 N.am    
  24 C24           -3.1781    -3.3265    -4.0026 C.3     
  25 C25           -2.0711    -4.0334    -4.7943 C.3     
  26 N26           -0.8379    -4.0162    -3.9951 N.am    
  27 C27           -0.3221    -2.7260    -3.5163 C.3     
  28 C28           -1.4262    -2.0186    -2.7292 C.3     
  29 C29           -0.1917    -5.1631    -3.7060 C.2     
  30 C30           -0.7657    -6.4578    -4.1202 C.ar    
  31 C31           -0.9999    -7.4596    -3.1705 C.ar    
  32 C32           -1.5415    -8.6765    -3.5726 C.ar    
  33 C33           -1.8458    -8.8917    -4.9062 C.ar    
  34 C34           -1.6140    -7.9006    -5.8454 C.ar    
  35 C35           -1.0835    -6.6882    -5.4615 C.ar    
  36 O36            0.8642    -5.1309    -3.1040 O.2     
  37 O37           -1.7715    -9.6546    -2.6561 O.3     
  38 C38           -2.3292   -10.8783    -3.1393 C.3     
  39 O39           -0.6998    -7.2448    -1.8641 O.3     
  40 C40           -1.7285    -6.6842    -1.0458 C.3     
  41 H41            2.5428     4.0679     0.7071 H       
  42 H42            4.5204     2.6463     0.3642 H       
  43 H43            5.0196     1.7558    -1.8754 H       
  44 H44            4.3625     1.6066    -4.2818 H       
  45 H45            2.8191     2.2092    -6.0699 H       
  46 H46            0.8715     3.6385    -5.6201 H       
  47 H47           -1.3191     4.4240    -1.3647 H       
  48 H48           -1.1697     1.8590    -0.7779 H       
  49 H49           -2.1261    -0.2982    -1.4594 H       
  50 H50           -3.2143     1.3927    -5.2514 H       
  51 H51           -2.2648     3.5487    -4.5565 H       
  52 H52           -3.4697    -3.9424    -3.1518 H       
  53 H53           -4.0400    -3.1590    -4.6485 H       
  54 H54           -2.3643    -5.0644    -4.9924 H       
  55 H55           -1.9040    -3.5107    -5.7361 H       
  56 H56            0.5397    -2.8936    -2.8703 H       
  57 H57           -0.0305    -2.1102    -4.3670 H       
  58 H58           -1.1312    -0.9874    -2.5345 H       
  59 H59           -1.5902    -2.5392    -1.7858 H       
  60 H60           -2.2658    -9.8374    -5.2156 H       
  61 H61           -1.8541    -8.0774    -6.8834 H       
  62 H62           -0.9095    -5.9175    -6.1978 H       
  63 H63           -3.2950   -10.6791    -3.6037 H       
  64 H64           -1.6562   -11.3187    -3.8750 H       
  65 H65           -2.4617   -11.5706    -2.3078 H       
  66 H66           -1.3581    -6.5646    -0.0277 H       
  67 H67           -2.0194    -5.7118    -1.4432 H       
  68 H68           -2.5926    -7.3485    -1.0424 H       
@<TRIPOS>BOND
   1    1    2 ar
   2    1   10 ar
   3    2    3 ar
   4    2   41 1
   5    3    4 ar
   6    3   42 1
   7    4    5 ar
   8    4   43 1
   9    5    6 ar
  10    5   10 ar
  11    6    7 ar
  12    6   44 1
  13    7    8 ar
  14    7   45 1
  15    8    9 ar
  16    8   46 1
  17    9   10 ar
  18    9   11 1
  19   11   12 2
  20   11   13 2
  21   11   14 am
  22   14   15 1
  23   14   47 1
  24   15   16 ar
  25   15   20 ar
  26   16   17 ar
  27   16   48 1
  28   17   18 ar
  29   17   49 1
  30   18   19 ar
  31   18   21 1
  32   19   20 ar
  33   19   50 1
  34   20   51 1
  35   21   22 2
  36   21   23 am
  37   23   24 1
  38   23   28 1
  39   24   25 1
  40   24   52 1
  41   24   53 1
  42   25   26 1
  43   25   54 1
  44   25   55 1
  45   26   27 1
  46   26   29 am
  47   27   28 1
  48   27   56 1
  49   27   57 1
  50   28   58 1
  51   28   59 1
  52   29   30 1
  53   29   36 2
  54   30   31 ar
  55   30   35 ar
  56   31   32 ar
  57   31   39 1
  58   32   33 ar
  59   32   37 1
  60   33   34 ar
  61   33   60 1
  62   34   35 ar
  63   34   61 1
  64   35   62 1
  65   37   38 1
  66   38   63 1
  67   38   64 1
  68   38   65 1
  69   39   40 1
  70   40   66 1
  71   40   67 1
  72   40   68 1

#	End of record

