#	Name: ASD01230799
#	Creating user name:	WinNT
#	Creation time:	15. 06. 2019 19:15

#	Modifying user name:	WinNT
#	Modification time:	15. 06. 2019 19:15

#	Program:	/corina/corina34_cracker 3.40 0067  02.08.2006

@<TRIPOS>MOLECULE
ASD01230799
  33   35    0    0    0
SMALL
NO_CHARGES


@<TRIPOS>ATOM
   1 C1            -0.0166     1.3736     0.0096 C.2     
   2 C2             0.0021    -0.0041     0.0020 C.2     
   3 C3            -1.2146    -0.7002     0.0078 C.2     
   4 C4            -2.3849    -0.0394     0.0095 C.2     
   5 N5            -2.4622     1.3312     0.0002 N.pl3   
   6 C6            -1.3174     2.0757     0.0320 C.2     
   7 C7            -3.8098     1.9045    -0.0505 C.3     
   8 C8            -3.8784     3.1900     0.7790 C.3     
   9 S9            -2.6219     4.3261     0.1118 S.o2    
  10 N10           -1.2619     3.3846     0.0823 N.am    
  11 C11            1.2499     2.1409     0.0016 C.ar    
  12 O12           -2.8862     4.6257    -1.2519 O.2     
  13 O13           -2.3215     5.3519     1.0482 O.2     
  14 C14            1.5811     2.9470    -1.0855 C.ar    
  15 N15            2.7073     3.6319    -1.0961 N.ar    
  16 C16            3.5616     3.5843    -0.0875 C.ar    
  17 C17            3.3016     2.8019     1.0332 C.ar    
  18 C18            2.1296     2.0715     1.0893 C.ar    
  19 O19            4.7078     4.3084    -0.1468 O.3     
  20 C20            4.9199     5.0923    -1.3227 C.3     
  21 Cl21           4.4331     2.7488     2.3487 Cl      
  22 H22            0.9399    -0.5395    -0.0085 H       
  23 H23           -1.2115    -1.7802     0.0105 H       
  24 H24           -3.3019    -0.6099     0.0181 H       
  25 H25           -4.0657     2.1304    -1.0856 H       
  26 H26           -4.5230     1.1820     0.3462 H       
  27 H27           -4.8684     3.6372     0.6898 H       
  28 H28           -3.6622     2.9695     1.8244 H       
  29 H29            0.9085     3.0111    -1.9280 H       
  30 H30            1.9017     1.4559     1.9469 H       
  31 H31            4.1110     5.8152    -1.4282 H       
  32 H32            5.8703     5.6198    -1.2411 H       
  33 H33            4.9403     4.4397    -2.1955 H       
@<TRIPOS>BOND
   1    1    2 2
   2    1   11 1
   3    1    6 1
   4    2    3 1
   5    2   22 1
   6    3    4 2
   7    3   23 1
   8    4    5 1
   9    4   24 1
  10    5    6 1
  11    5    7 1
  12    6   10 2
  13    7    8 1
  14    7   25 1
  15    7   26 1
  16    8    9 1
  17    8   27 1
  18    8   28 1
  19    9   10 am
  20    9   12 2
  21    9   13 2
  22   11   14 ar
  23   11   18 ar
  24   14   15 ar
  25   14   29 1
  26   15   16 ar
  27   16   17 ar
  28   16   19 1
  29   17   18 ar
  30   17   21 1
  31   18   30 1
  32   19   20 1
  33   20   31 1
  34   20   32 1
  35   20   33 1

#	End of record

