#	Name: ASD02198329
#	Creating user name:	WinNT
#	Creation time:	15. 06. 2019 20:19

#	Modifying user name:	WinNT
#	Modification time:	15. 06. 2019 20:19

#	Program:	/corina/corina34_cracker 3.40 0067  02.08.2006

@<TRIPOS>MOLECULE
ASD02198329
  38   40    0    0    0
SMALL
NO_CHARGES


@<TRIPOS>ATOM
   1 C1             0.4979     1.5502     0.0803 C.2     
   2 C2             0.6579     0.1779     0.1456 C.2     
   3 S3             2.0808     2.2856     0.3197 S.3     
   4 C4             2.7927     0.7407     0.4806 C.2     
   5 N5             1.8972    -0.1968     0.3600 N.2     
   6 N6            -0.3903    -0.7161    -0.0014 N.pl3   
   7 C7            -0.7107     2.2354    -0.1432 C.2     
   8 C8            -0.7531     3.7119    -0.0472 C.ar    
   9 O9            -1.7231     1.6129    -0.4158 O.2     
  10 N10            4.1326     0.5173     0.7073 N.pl3   
  11 C11           -1.6840     4.4361    -0.7931 C.ar    
  12 C12            0.1338     4.3850     0.7936 C.ar    
  13 C13            0.0893     5.7615     0.8785 C.ar    
  14 C14           -0.8325     6.4740     0.1325 C.ar    
  15 C15           -1.7183     5.8119    -0.6993 C.ar    
  16 C16            4.5948    -0.7810     0.9430 C.ar    
  17 C17            5.8974    -1.1233     0.6148 C.ar    
  18 C18            6.3538    -2.4204     0.8526 C.ar    
  19 C19            5.4951    -3.3645     1.4194 C.ar    
  20 C20            4.2000    -3.0133     1.7425 C.ar    
  21 C21            3.7497    -1.7272     1.5118 C.ar    
  22 F22            2.2118     6.8047     1.0789 F       
  23 F23            0.4478     7.6680     2.2461 F       
  24 C24            1.0464     6.4902     1.7861 C.3     
  25 F25            1.3683     5.6742     2.8760 F       
  26 C26            7.6978    -2.7821     0.5160 C.1     
  27 N27            8.7640    -3.0691     0.2490 N.1     
  28 H28           -1.2894    -0.3876    -0.1585 H       
  29 H29           -0.2252    -1.6704     0.0529 H       
  30 H30            4.7557     1.2607     0.7034 H       
  31 H31           -2.3759     3.9206    -1.4426 H       
  32 H32            0.8534     3.8298     1.3770 H       
  33 H33           -0.8638     7.5512     0.2030 H       
  34 H34           -2.4356     6.3739    -1.2791 H       
  35 H35            6.5566    -0.3888     0.1763 H       
  36 H36            5.8443    -4.3695     1.6048 H       
  37 H37            3.5375    -3.7450     2.1808 H       
  38 H38            2.7352    -1.4584     1.7670 H       
@<TRIPOS>BOND
   1    1    2 2
   2    1    3 1
   3    1    7 1
   4    2    6 1
   5    2    5 1
   6    3    4 1
   7    4    5 2
   8    4   10 1
   9    6   28 1
  10    6   29 1
  11    7    8 1
  12    7    9 2
  13    8   11 ar
  14    8   12 ar
  15   10   16 1
  16   10   30 1
  17   11   15 ar
  18   11   31 1
  19   12   13 ar
  20   12   32 1
  21   13   14 ar
  22   13   24 1
  23   14   15 ar
  24   14   33 1
  25   15   34 1
  26   16   17 ar
  27   16   21 ar
  28   17   18 ar
  29   17   35 1
  30   18   19 ar
  31   18   26 1
  32   19   20 ar
  33   19   36 1
  34   20   21 ar
  35   20   37 1
  36   21   38 1
  37   22   24 1
  38   23   24 1
  39   24   25 1
  40   26   27 3

#	End of record

