#	Name: ASD04910419
#	Creating user name:	WinNT
#	Creation time:	15. 06. 2019 20:55

#	Modifying user name:	WinNT
#	Modification time:	15. 06. 2019 20:55

#	Program:	/corina/corina34_cracker 3.40 0067  02.08.2006

@<TRIPOS>MOLECULE
ASD04910419
  61   63    0    0    0
SMALL
NO_CHARGES


@<TRIPOS>ATOM
   1 C1            -0.0184     1.5028     0.0103 C.2     
   2 C2             0.0021    -0.0041     0.0020 C.3     
   3 C3             1.4513    -0.4944    -0.0145 C.3     
   4 O4             1.0197     2.1211     0.0037 O.2     
   5 O5            -1.1898     2.1580     0.0194 O.3     
   6 C6             2.6473    -2.6171    -0.0373 C.2     
   7 C7             2.6674    -4.0954    -0.0454 C.ar    
   8 C8             3.8839    -4.7800    -0.0607 C.ar    
   9 C9             3.8956    -6.1592    -0.0677 C.ar    
  10 C10            2.7049    -6.8644    -0.0601 C.ar    
  11 C11            1.4960    -6.1921    -0.0450 C.ar    
  12 C12            1.4703    -4.8126    -0.0320 C.ar    
  13 O13            3.6916    -1.9951    -0.0439 O.2     
  14 N14            1.4712    -1.9592    -0.0225 N.am    
  15 C15            2.7254    -8.3712    -0.0689 C.3     
  16 C16            2.8720    -8.8876     1.3638 C.3     
  17 C17            3.0180   -10.4105     1.3446 C.3     
  18 C18            3.1646   -10.9269     2.7774 C.3     
  19 N19            1.4747    -8.8732    -0.6433 N.pl3   
  20 C20            2.5787   -10.9260    -1.2890 C.ar    
  21 C21            1.4366   -10.1383    -1.2380 C.ar    
  22 C22            0.2517   -10.6248    -1.7867 C.ar    
  23 C23            0.2609   -11.8821    -2.3644 C.ar    
  24 C24            1.4423   -12.6126    -2.3782 C.ar    
  25 N25            2.5495   -12.1197    -1.8478 N.ar    
  26 N26            1.4615   -13.8853    -2.9602 N.pl3   
  27 N27            0.3745   -14.5359    -3.5584 N.2     
  28 C28            0.7809   -15.7037    -3.9864 C.2     
  29 C29            2.1387   -15.8386    -3.6768 C.2     
  30 C30            2.5386   -14.7074    -3.0510 C.2     
  31 C31            3.0048   -17.0315    -3.9900 C.3     
  32 F32            2.2414   -18.0022    -4.6475 F       
  33 F33            4.0644   -16.6353    -4.8129 F       
  34 F34            3.5124   -17.5645    -2.8002 F       
  35 C35            5.2079    -6.8999    -0.0842 C.3     
  36 H36           -0.4983    -0.3791     0.8948 H       
  37 H37           -0.5153    -0.3696    -0.8850 H       
  38 H38            1.9516    -0.1193    -0.9073 H       
  39 H39            1.9686    -0.1289     0.8726 H       
  40 H40           -1.1523     3.1243     0.0245 H       
  41 H41            4.8138    -4.2308    -0.0674 H       
  42 H42            0.5702    -6.7484    -0.0391 H       
  43 H43            0.5258    -4.2890    -0.0160 H       
  44 H44            0.6378    -2.4556    -0.0172 H       
  45 H45            3.5662    -8.7197    -0.6686 H       
  46 H46            3.7561    -8.4436     1.8214 H       
  47 H47            1.9884    -8.6145     1.9407 H       
  48 H48            2.1339   -10.8545     0.8871 H       
  49 H49            3.9016   -10.6835     0.7678 H       
  50 H50            3.2686   -12.0118     2.7637 H       
  51 H51            4.0487   -10.4829     3.2349 H       
  52 H52            2.2810   -10.6538     3.3542 H       
  53 H53            0.6730    -8.3281    -0.6111 H       
  54 H54            3.5025   -10.5549    -0.8701 H       
  55 H55           -0.6525   -10.0346    -1.7614 H       
  56 H56           -0.6395   -12.2907    -2.7989 H       
  57 H57            0.1720   -16.4383    -4.4924 H       
  58 H58            3.5336   -14.4975    -2.6874 H       
  59 H59            5.5343    -7.0836     0.9394 H       
  60 H60            5.0819    -7.8510    -0.6017 H       
  61 H61            5.9567    -6.3008    -0.6024 H       
@<TRIPOS>BOND
   1    1    2 1
   2    1    4 2
   3    1    5 1
   4    2    3 1
   5    2   36 1
   6    2   37 1
   7    3   14 1
   8    3   38 1
   9    3   39 1
  10    5   40 1
  11    6    7 1
  12    6   13 2
  13    6   14 am
  14    7    8 ar
  15    7   12 ar
  16    8    9 ar
  17    8   41 1
  18    9   10 ar
  19    9   35 1
  20   10   11 ar
  21   10   15 1
  22   11   12 ar
  23   11   42 1
  24   12   43 1
  25   14   44 1
  26   15   16 1
  27   15   19 1
  28   15   45 1
  29   16   17 1
  30   16   46 1
  31   16   47 1
  32   17   18 1
  33   17   48 1
  34   17   49 1
  35   18   50 1
  36   18   51 1
  37   18   52 1
  38   19   21 1
  39   19   53 1
  40   20   21 ar
  41   20   25 ar
  42   20   54 1
  43   21   22 ar
  44   22   23 ar
  45   22   55 1
  46   23   24 ar
  47   23   56 1
  48   24   25 ar
  49   24   26 1
  50   26   27 1
  51   26   30 1
  52   27   28 2
  53   28   29 1
  54   28   57 1
  55   29   30 2
  56   29   31 1
  57   30   58 1
  58   31   32 1
  59   31   33 1
  60   31   34 1
  61   35   59 1
  62   35   60 1
  63   35   61 1

#	End of record

