#	Name: ASD01901526
#	Creating user name:	WinNT
#	Creation time:	15. 06. 2019 19:53

#	Modifying user name:	WinNT
#	Modification time:	15. 06. 2019 19:53

#	Program:	/corina/corina34_cracker 3.40 0067  02.08.2006

@<TRIPOS>MOLECULE
ASD01901526
  45   48    0    0    0
SMALL
NO_CHARGES


@<TRIPOS>ATOM
   1 C1            -0.0187     1.5258     0.0104 C.3     
   2 C2             0.0021    -0.0041     0.0020 C.3     
   3 H3             0.5111    -0.3627    -0.8926 H       
   4 C4            -1.4352    -0.5462     0.0380 C.3     
   5 C5            -1.4102    -2.0577     0.2664 C.3     
   6 C6            -0.7744    -2.3856     1.6209 C.3     
   7 C7             0.6854    -1.9224     1.6035 C.3     
   8 H8             1.2899    -2.5323     0.9321 H       
   9 N9             0.6881    -0.4993     1.1976 N.am    
  10 C10            1.3763     0.1672     2.1274 C.2     
  11 O11            1.7085     1.3316     2.0231 O.2     
  12 N12            1.6571    -0.6010     3.1909 N.am    
  13 C13            1.2587    -1.9006     3.0026 C.2     
  14 O14            1.3388    -2.8306     3.7764 O.2     
  15 C15            2.2905    -0.1374     4.3525 C.ar    
  16 C16            3.6783    -0.1713     4.4469 C.ar    
  17 F17            4.4130    -0.6508     3.4196 F       
  18 C18            4.3050     0.2847     5.5887 C.ar    
  19 C19            3.5435     0.7809     6.6505 C.ar    
  20 C20            2.1494     0.8131     6.5513 C.ar    
  21 C21            1.5306     0.3606     5.4051 C.ar    
  22 Cl22          -0.2002     0.4070     5.2785 Cl      
  23 C23            4.1897     1.2547     7.8374 C.1     
  24 C24            4.7195     1.6432     8.8103 C.1     
  25 C25            5.3657     2.1170     9.9972 C.ar    
  26 C26            6.7626     2.0945    10.1056 C.ar    
  27 C27            7.3369     2.5642    11.2734 C.ar    
  28 C28            6.5223     3.0365    12.2868 C.ar    
  29 N29            5.2092     3.0457    12.1579 N.ar    
  30 C30            4.6145     2.6152    11.0651 C.ar    
  31 H31            1.0039     1.9031     0.0027 H       
  32 H32           -0.5459     1.8868    -0.8726 H       
  33 H33           -0.5289     1.8773     0.9072 H       
  34 H34           -1.9838    -0.0660     0.8482 H       
  35 H35           -1.9279    -0.3308    -0.9102 H       
  36 H36           -2.4302    -2.4415     0.2455 H       
  37 H37           -0.8318    -2.5318    -0.5266 H       
  38 H38           -1.3134    -1.8661     2.4132 H       
  39 H39           -0.8146    -3.4612     1.7928 H       
  40 H40            5.3821     0.2579     5.6618 H       
  41 H41            1.5578     1.1955     7.3700 H       
  42 H42            7.3750     1.7199     9.2988 H       
  43 H43            8.4103     2.5619    11.3927 H       
  44 H44            6.9688     3.4036    13.1991 H       
  45 H45            3.5371     2.6433    10.9951 H       
@<TRIPOS>BOND
   1    1    2 1
   2    1   31 1
   3    1   32 1
   4    1   33 1
   5    2    3 1
   6    2    9 1
   7    2    4 1
   8    4    5 1
   9    4   34 1
  10    4   35 1
  11    5    6 1
  12    5   36 1
  13    5   37 1
  14    6    7 1
  15    6   38 1
  16    6   39 1
  17    7    8 1
  18    7   13 1
  19    7    9 1
  20    9   10 am
  21   10   11 2
  22   10   12 am
  23   12   13 am
  24   12   15 1
  25   13   14 2
  26   15   21 ar
  27   15   16 ar
  28   16   17 1
  29   16   18 ar
  30   18   19 ar
  31   18   40 1
  32   19   20 ar
  33   19   23 1
  34   20   21 ar
  35   20   41 1
  36   21   22 1
  37   23   24 3
  38   24   25 1
  39   25   30 ar
  40   25   26 ar
  41   26   27 ar
  42   26   42 1
  43   27   28 ar
  44   27   43 1
  45   28   29 ar
  46   28   44 1
  47   29   30 ar
  48   30   45 1

#	End of record

