#	Name: ASD01910199
#	Creating user name:	WinNT
#	Creation time:	15. 06. 2019 19:55

#	Modifying user name:	WinNT
#	Modification time:	15. 06. 2019 19:55

#	Program:	/corina/corina34_cracker 3.40 0067  02.08.2006

@<TRIPOS>MOLECULE
ASD01910199
  40   43    0    0    0
SMALL
NO_CHARGES


@<TRIPOS>ATOM
   1 C1            -0.0164     1.3749    -0.0315 C.ar    
   2 C2             0.0027    -0.0068    -0.0447 C.ar    
   3 C3             1.2075    -0.6930    -0.0583 C.ar    
   4 C4             2.3996     0.0125    -0.0592 C.ar    
   5 C5             2.3801     1.4224    -0.0461 C.ar    
   6 C6             1.1689     2.0944    -0.0321 C.ar    
   7 C7             3.8268    -0.3720    -0.0714 C.2     
   8 N8             4.5724     0.7477    -0.0657 N.am    
   9 C9             3.7961     1.8463    -0.0509 C.2     
  10 O10            4.1924     2.9942    -0.0432 O.2     
  11 O11            4.2546    -1.5085    -0.0844 O.2     
  12 C12            5.9740     0.7672    -0.0746 C.ar    
  13 C13            6.6851    -0.4261    -0.0903 C.ar    
  14 C14            8.0676    -0.4126    -0.0995 C.ar    
  15 C15            8.7504     0.7863    -0.0931 C.ar    
  16 C16            8.0449     1.9911    -0.0773 C.ar    
  17 C17            6.6502     1.9770    -0.0734 C.ar    
  18 C18            8.7736     3.2773    -0.0704 C.2     
  19 N19           10.1213     3.2883    -0.0794 N.am    
  20 C20           10.8099     4.5008    -0.1857 C.ar    
  21 C21           12.0158     4.6768     0.4804 C.ar    
  22 C22           12.6941     5.8754     0.3738 C.ar    
  23 C23           12.1738     6.9001    -0.3946 C.ar    
  24 C24           10.9722     6.7285    -1.0600 C.ar    
  25 C25           10.2921     5.5294    -0.9621 C.ar    
  26 O26            8.1573     4.3250    -0.0567 O.2     
  27 Cl27          10.3225     8.0180    -2.0238 Cl      
  28 H28           -0.9612     1.8981    -0.0251 H       
  29 H29           -0.9273    -0.5559    -0.0440 H       
  30 H30            1.2164    -1.7729    -0.0679 H       
  31 H31            1.1479     3.1742    -0.0224 H       
  32 H32            6.1561    -1.3677    -0.0950 H       
  33 H33            8.6149    -1.3436    -0.1114 H       
  34 H34            9.8304     0.7928    -0.1000 H       
  35 H35            6.0990     2.9057    -0.0615 H       
  36 H36           10.6136     2.4552    -0.0121 H       
  37 H37           12.4228     3.8772     1.0815 H       
  38 H38           13.6318     6.0123     0.8918 H       
  39 H39           12.7058     7.8365    -0.4756 H       
  40 H40            9.3546     5.3956    -1.4813 H       
@<TRIPOS>BOND
   1    1    2 ar
   2    1    6 ar
   3    1   28 1
   4    2    3 ar
   5    2   29 1
   6    3    4 ar
   7    3   30 1
   8    4    5 ar
   9    4    7 1
  10    5    6 ar
  11    5    9 1
  12    6   31 1
  13    7    8 am
  14    7   11 2
  15    8    9 am
  16    8   12 1
  17    9   10 2
  18   12   13 ar
  19   12   17 ar
  20   13   14 ar
  21   13   32 1
  22   14   15 ar
  23   14   33 1
  24   15   16 ar
  25   15   34 1
  26   16   17 ar
  27   16   18 1
  28   17   35 1
  29   18   19 am
  30   18   26 2
  31   19   20 1
  32   19   36 1
  33   20   21 ar
  34   20   25 ar
  35   21   22 ar
  36   21   37 1
  37   22   23 ar
  38   22   38 1
  39   23   24 ar
  40   23   39 1
  41   24   25 ar
  42   24   27 1
  43   25   40 1

#	End of record

