#	Name: ASD04590806
#	Creating user name:	WinNT
#	Creation time:	15. 06. 2019 20:51

#	Modifying user name:	WinNT
#	Modification time:	15. 06. 2019 20:51

#	Program:	/corina/corina34_cracker 3.40 0067  02.08.2006

@<TRIPOS>MOLECULE
ASD04590806
  65   70    0    0    0
SMALL
NO_CHARGES


@<TRIPOS>ATOM
   1 C1            -0.0156     1.3195     0.0021 C.ar    
   2 N2             0.0030    -0.0035     0.0021 N.ar    
   3 C3             1.1568    -0.6642    -0.0189 C.ar    
   4 C4             2.3553     0.0773    -0.0413 C.ar    
   5 C5             2.2854     1.4669    -0.0401 C.ar    
   6 N6             1.0955     2.0445    -0.0187 N.ar    
   7 N7             1.4734    -1.9997    -0.0244 N.pl3   
   8 C8             3.4500    -0.9013    -0.0612 C.ar    
   9 C9             2.8478    -2.1707    -0.0496 C.ar    
  10 C10            3.6686    -3.2943    -0.0640 C.ar    
  11 C11            4.8426    -0.8187    -0.0869 C.ar    
  12 C12            5.5767    -1.9848    -0.1000 C.ar    
  13 N13            4.9812    -3.1649    -0.0879 N.ar    
  14 N14           -1.2380     1.9706     0.0185 N.pl3   
  15 F15            3.1169    -4.5274    -0.0529 F       
  16 C16           -1.2868     3.3603     0.1316 C.ar    
  17 C17           -2.5090     4.0273     0.0364 C.ar    
  18 C18           -2.5070     5.4058     0.1549 C.ar    
  19 C19           -1.2826     6.0431     0.3621 C.ar    
  20 N20           -0.1725     5.3274     0.4391 N.ar    
  21 N21           -0.1754     4.0482     0.3347 N.ar    
  22 N22           -1.2295     7.4296     0.4871 N.3     
  23 C23            0.1501     7.8865     0.6983 C.3     
  24 C24            0.1536     9.3915     0.9757 C.3     
  25 C25           -0.4707    10.1262    -0.2139 C.3     
  26 C26           -1.8895     9.5977    -0.4426 C.3     
  27 C27           -1.8338     8.0867    -0.6789 C.3     
  28 N28           -0.5234    11.5663     0.0713 N.3     
  29 C29           -1.0076    12.3166    -1.0951 C.3     
  30 C30           -1.3518    11.8389     1.2535 C.3     
  31 C31            0.4957    -3.0906    -0.0056 C.3     
  32 C32           -0.3711    -2.9997     1.2626 C.3     
  33 C33           -1.8277    -2.8174     0.7886 C.3     
  34 C34           -1.8374    -3.4058    -0.6442 C.3     
  35 C35           -0.4645    -2.9603    -1.2059 C.3     
  36 H36            3.1859     2.0629    -0.0565 H       
  37 H37            5.3363     0.1419    -0.0967 H       
  38 H38            6.6553    -1.9337    -0.1199 H       
  39 H39           -2.0602     1.4603    -0.0486 H       
  40 H40           -3.4284     3.4840    -0.1251 H       
  41 H41           -3.4246     5.9715     0.0886 H       
  42 H42            0.5809     7.3593     1.5495 H       
  43 H43            0.7415     7.6802    -0.1937 H       
  44 H44           -0.4263     9.5971     1.8754 H       
  45 H45            1.1790     9.7331     1.1169 H       
  46 H46            0.1310     9.9524    -1.1059 H       
  47 H47           -2.5015     9.8065     0.4348 H       
  48 H48           -2.3238    10.0866    -1.3147 H       
  49 H49           -1.2330     7.8794    -1.5644 H       
  50 H50           -2.8438     7.7049    -0.8279 H       
  51 H51           -2.0092    11.9753    -1.3566 H       
  52 H52           -1.0368    13.3798    -0.8567 H       
  53 H53           -0.3360    12.1515    -1.9376 H       
  54 H54           -0.9304    11.3265     2.1184 H       
  55 H55           -1.3737    12.9123     1.4421 H       
  56 H56           -2.3659    11.4803     1.0771 H       
  57 H57            1.0085    -4.0518    -0.0392 H       
  58 H58           -0.2796    -3.9172     1.8439 H       
  59 H59           -0.0643    -2.1440     1.8640 H       
  60 H60           -2.5107    -3.3710     1.4330 H       
  61 H61           -2.0930    -1.7604     0.7687 H       
  62 H62           -1.9084    -4.4931    -0.6147 H       
  63 H63           -2.6514    -2.9803    -1.2310 H       
  64 H64           -0.5095    -1.9264    -1.5479 H       
  65 H65           -0.1525    -3.6182    -2.0171 H       
@<TRIPOS>BOND
   1    1    2 ar
   2    1    6 ar
   3    1   14 1
   4    2    3 ar
   5    3    4 ar
   6    3    7 1
   7    4    5 ar
   8    4    8 1
   9    5    6 ar
  10    5   36 1
  11    7    9 1
  12    7   31 1
  13    8    9 ar
  14    8   11 ar
  15    9   10 ar
  16   10   13 ar
  17   10   15 1
  18   11   12 ar
  19   11   37 1
  20   12   13 ar
  21   12   38 1
  22   14   16 1
  23   14   39 1
  24   16   17 ar
  25   16   21 ar
  26   17   18 ar
  27   17   40 1
  28   18   19 ar
  29   18   41 1
  30   19   20 ar
  31   19   22 1
  32   20   21 ar
  33   22   23 1
  34   22   27 1
  35   23   24 1
  36   23   42 1
  37   23   43 1
  38   24   25 1
  39   24   44 1
  40   24   45 1
  41   25   26 1
  42   25   28 1
  43   25   46 1
  44   26   27 1
  45   26   47 1
  46   26   48 1
  47   27   49 1
  48   27   50 1
  49   28   29 1
  50   28   30 1
  51   29   51 1
  52   29   52 1
  53   29   53 1
  54   30   54 1
  55   30   55 1
  56   30   56 1
  57   31   32 1
  58   31   35 1
  59   31   57 1
  60   32   33 1
  61   32   58 1
  62   32   59 1
  63   33   34 1
  64   33   60 1
  65   33   61 1
  66   34   35 1
  67   34   62 1
  68   34   63 1
  69   35   64 1
  70   35   65 1

#	End of record

