#	Name: ASD09610045
#	Creating user name:	WinNT
#	Creation time:	15. 06. 2019 21:22

#	Modifying user name:	WinNT
#	Modification time:	15. 06. 2019 21:22

#	Program:	/corina/corina34_cracker 3.40 0067  02.08.2006

@<TRIPOS>MOLECULE
ASD09610045
  40   43    0    0    0
SMALL
NO_CHARGES


@<TRIPOS>ATOM
   1 N1             2.2062     1.2873    -0.7711 N.ar    
   2 C2             2.1714    -0.0204    -0.7583 C.ar    
   3 C3             1.2094    -0.7232    -0.0129 C.ar    
   4 C4             0.2712    -0.0183     0.7298 C.ar    
   5 C5             0.3279     1.3859     0.7014 C.ar    
   6 C6            -0.5872     2.1665     1.4275 C.ar    
   7 C7            -0.5020     3.5246     1.3769 C.ar    
   8 C8             0.4813     4.1504     0.6141 C.ar    
   9 C9             1.3838     3.4246    -0.1020 C.ar    
  10 C10            1.3293     2.0209    -0.0760 C.ar    
  11 C11            1.1959    -2.2037    -0.0198 C.2     
  12 N12            2.3089    -2.8653    -0.1315 N.2     
  13 C13            2.3372    -4.3224    -0.2161 C.3     
  14 C14            1.2743    -4.9509     0.6825 C.3     
  15 C15           -0.0566    -4.2895     0.4357 C.ar    
  16 C16           -1.2350    -4.9992     0.5386 C.ar    
  17 C17           -2.4459    -4.3605     0.3172 C.ar    
  18 C18           -2.4785    -3.0157    -0.0053 C.ar    
  19 C19           -1.3036    -2.2980    -0.1156 C.ar    
  20 C20           -0.0849    -2.9351     0.1068 C.ar    
  21 C21            2.0827    -4.7453    -1.6643 C.3     
  22 C22            3.7174    -4.8226     0.2151 C.3     
  23 F23           -1.2095    -6.3127     0.8536 F       
  24 F24            1.1744    -6.3173     0.3993 F       
  25 F25            1.6376    -4.7799     2.0226 F       
  26 H26            2.8989    -0.5729    -1.3343 H       
  27 H27           -0.4792    -0.5333     1.3112 H       
  28 H28           -1.3540     1.6922     2.0220 H       
  29 H29           -1.2060     4.1242     1.9350 H       
  30 H30            0.5285     5.2291     0.5900 H       
  31 H31            2.1391     3.9265    -0.6886 H       
  32 H32           -3.3685    -4.9162     0.3967 H       
  33 H33           -3.4262    -2.5252    -0.1718 H       
  34 H34           -1.3302    -1.2483    -0.3683 H       
  35 H35            2.8570    -4.3257    -2.3067 H       
  36 H36            2.1026    -5.8328    -1.7341 H       
  37 H37            1.1073    -4.3784    -1.9839 H       
  38 H38            3.9124    -4.5112     1.2413 H       
  39 H39            3.7449    -5.9106     0.1541 H       
  40 H40            4.4780    -4.4025    -0.4429 H       
@<TRIPOS>BOND
   1    1    2 ar
   2    1   10 ar
   3    2    3 ar
   4    2   26 1
   5    3    4 ar
   6    3   11 1
   7    4    5 ar
   8    4   27 1
   9    5    6 ar
  10    5   10 ar
  11    6    7 ar
  12    6   28 1
  13    7    8 ar
  14    7   29 1
  15    8    9 ar
  16    8   30 1
  17    9   10 ar
  18    9   31 1
  19   11   12 2
  20   11   20 1
  21   12   13 1
  22   13   14 1
  23   13   21 1
  24   13   22 1
  25   14   15 1
  26   14   24 1
  27   14   25 1
  28   15   16 ar
  29   15   20 ar
  30   16   17 ar
  31   16   23 1
  32   17   18 ar
  33   17   32 1
  34   18   19 ar
  35   18   33 1
  36   19   20 ar
  37   19   34 1
  38   21   35 1
  39   21   36 1
  40   21   37 1
  41   22   38 1
  42   22   39 1
  43   22   40 1

#	End of record

