#	Name: ASD01150733
#	Creating user name:	WinNT
#	Creation time:	15. 06. 2019 19:04

#	Modifying user name:	WinNT
#	Modification time:	15. 06. 2019 19:04

#	Program:	/corina/corina34_cracker 3.40 0067  02.08.2006

@<TRIPOS>MOLECULE
ASD01150733
  44   46    0    0    0
SMALL
NO_CHARGES


@<TRIPOS>ATOM
   1 C1             0.0131     1.5493     0.0080 C.2     
   2 C2             0.7388     1.2283    -1.2732 C.3     
   3 C3             2.1101     0.6332    -0.9474 C.3     
   4 C4             2.7955     0.1924    -2.2423 C.3     
   5 O5             0.4959     1.2314     1.0745 O.2     
   6 C6             2.9705     1.6875    -0.2481 C.3     
   7 N7            -3.6313     2.1347    -0.2516 N.ar    
   8 C8            -2.4711     1.5338    -0.2107 C.ar    
   9 C9            -1.2739     2.2516    -0.0343 C.ar    
  10 C10           -1.3262     3.6508     0.1015 C.ar    
  11 C11           -2.5993     4.2698     0.0526 C.ar    
  12 C12           -2.7364     5.6588     0.1790 C.ar    
  13 C13           -3.9778     6.2217     0.1262 C.ar    
  14 C14           -5.1111     5.4316    -0.0520 C.ar    
  15 C15           -5.0114     4.0788    -0.1780 C.ar    
  16 C16           -3.7499     3.4636    -0.1286 C.ar    
  17 C17           -0.0957     4.4471     0.2892 C.ar    
  18 C18            0.3044     5.3609    -0.6883 C.ar    
  19 C19            1.4542     6.1009    -0.5066 C.ar    
  20 C20            2.2106     5.9395     0.6409 C.ar    
  21 C21            1.8201     5.0358     1.6134 C.ar    
  22 C22            0.6695     4.2935     1.4474 C.ar    
  23 C23           -2.4144     0.0349    -0.3561 C.3     
  24 Br24          -4.1624     8.0959     0.2974 Br      
  25 H25            0.1577     0.5081    -1.8492 H       
  26 H26            0.8677     2.1403    -1.8561 H       
  27 H27            1.9857    -0.2280    -0.2908 H       
  28 H28            2.9199     1.0536    -2.8988 H       
  29 H29            3.7725    -0.2316    -2.0101 H       
  30 H30            2.1826    -0.5587    -2.7404 H       
  31 H31            2.4822     2.0015     0.6744 H       
  32 H32            3.9475     1.2635    -0.0160 H       
  33 H33            3.0949     2.5487    -0.9047 H       
  34 H34           -1.8640     6.2800     0.3178 H       
  35 H35           -6.0841     5.8988    -0.0904 H       
  36 H36           -5.9002     3.4809    -0.3152 H       
  37 H37           -0.2848     5.4875    -1.5844 H       
  38 H38            1.7649     6.8076    -1.2618 H       
  39 H39            3.1102     6.5212     0.7778 H       
  40 H40            2.4153     4.9146     2.5064 H       
  41 H41            0.3632     3.5921     2.2094 H       
  42 H42           -2.3988    -0.2272    -1.4140 H       
  43 H43           -1.5124    -0.3430     0.1252 H       
  44 H44           -3.2911    -0.4093     0.1154 H       
@<TRIPOS>BOND
   1    1    2 1
   2    1    5 2
   3    1    9 1
   4    2    3 1
   5    2   25 1
   6    2   26 1
   7    3    4 1
   8    3    6 1
   9    3   27 1
  10    4   28 1
  11    4   29 1
  12    4   30 1
  13    6   31 1
  14    6   32 1
  15    6   33 1
  16    7    8 ar
  17    7   16 ar
  18    8    9 ar
  19    8   23 1
  20    9   10 ar
  21   10   11 ar
  22   10   17 1
  23   11   12 ar
  24   11   16 ar
  25   12   13 ar
  26   12   34 1
  27   13   14 ar
  28   13   24 1
  29   14   15 ar
  30   14   35 1
  31   15   16 ar
  32   15   36 1
  33   17   18 ar
  34   17   22 ar
  35   18   19 ar
  36   18   37 1
  37   19   20 ar
  38   19   38 1
  39   20   21 ar
  40   20   39 1
  41   21   22 ar
  42   21   40 1
  43   22   41 1
  44   23   42 1
  45   23   43 1
  46   23   44 1

#	End of record

