#	Name: ASD02030369
#	Creating user name:	WinNT
#	Creation time:	15. 06. 2019 20:15

#	Modifying user name:	WinNT
#	Modification time:	15. 06. 2019 20:15

#	Program:	/corina/corina34_cracker 3.40 0067  02.08.2006

@<TRIPOS>MOLECULE
ASD02030369
  55   57    0    0    0
SMALL
NO_CHARGES


@<TRIPOS>ATOM
   1 N1             0.0043     1.4011     0.1568 N.am    
   2 C2             0.0172    -0.0653     0.0601 C.3     
   3 C3             0.8262    -0.4676    -1.1792 C.3     
   4 N4             2.1074     0.2520    -1.1576 N.am    
   5 C5             2.0945     1.7184    -1.0609 C.3     
   6 C6             1.2855     2.1208     0.1784 C.3     
   7 C7            -1.1617     2.0742     0.2189 C.2     
   8 O8            -2.2148     1.4686     0.1952 O.2     
   9 O9            -1.1595     3.4177     0.3073 O.3     
  10 C10            3.2733    -0.4207    -1.2248 C.2     
  11 O11            3.2770    -1.6358    -1.1870 O.2     
  12 N12            6.6200     0.7405    -1.4253 N.pl3   
  13 N13            5.7539    -0.2022    -1.2784 N.2     
  14 C14            4.5477     0.3189    -1.3446 C.2     
  15 N15            4.6784     1.6437    -1.5415 N.2     
  16 C16            5.9597     1.9050    -1.5914 C.2     
  17 C17            8.0125     0.5834    -1.4091 C.ar    
  18 C18            8.5686    -0.6754    -1.2227 C.ar    
  19 C19           10.7617     0.2732    -1.3776 C.ar    
  20 C20            8.8388     1.6851    -1.5851 C.ar    
  21 C21            9.9411    -0.8270    -1.2077 C.ar    
  22 C22           10.2110     1.5269    -1.5691 C.ar    
  23 C23           10.5453    -2.1927    -1.0055 C.3     
  24 C24            0.6677    -0.6568     1.3123 C.3     
  25 C25           -2.4521     4.0762     0.3704 C.3     
  26 C26           -3.2154     3.5845     1.6018 C.3     
  27 C27           -2.2492     5.5896     0.4669 C.3     
  28 C28           -3.2535     3.7485    -0.8910 C.3     
  29 H29           -1.0040    -0.4347    -0.0339 H       
  30 H30            1.0098    -1.5419    -1.1633 H       
  31 H31            0.2725    -0.2019    -2.0797 H       
  32 H32            3.1157     2.0878    -0.9669 H       
  33 H33            1.6311     2.1398    -1.9530 H       
  34 H34            1.1019     3.1951     0.1625 H       
  35 H35            1.8392     1.8551     1.0789 H       
  36 H36            6.4074     2.8768    -1.7384 H       
  37 H37            7.9283    -1.5348    -1.0892 H       
  38 H38           11.8348     0.1522    -1.3648 H       
  39 H39            8.4093     2.6646    -1.7347 H       
  40 H40           10.8544     2.3843    -1.7012 H       
  41 H41           10.6852    -2.6750    -1.9729 H       
  42 H42           11.5092    -2.0932    -0.5063 H       
  43 H43            9.8786    -2.7976    -0.3909 H       
  44 H44            0.0997    -0.3569     2.1929 H       
  45 H45            0.6761    -1.7442     1.2382 H       
  46 H46            1.6908    -0.2905     1.3977 H       
  47 H47           -2.6444     3.8179     2.5004 H       
  48 H48           -4.1857     4.0788     1.6492 H       
  49 H49           -3.3599     2.5063     1.5331 H       
  50 H50           -1.7054     5.9400    -0.4104 H       
  51 H51           -3.2195     6.0840     0.5142 H       
  52 H52           -1.6782     5.8231     1.3655 H       
  53 H53           -3.3981     2.6703    -0.9597 H       
  54 H54           -4.2238     4.2428    -0.8436 H       
  55 H55           -2.7097     4.0988    -1.7683 H       
@<TRIPOS>BOND
   1    1    2 1
   2    1    6 1
   3    1    7 am
   4    2    3 1
   5    2   24 1
   6    2   29 1
   7    3    4 1
   8    3   30 1
   9    3   31 1
  10    4    5 1
  11    4   10 am
  12    5    6 1
  13    5   32 1
  14    5   33 1
  15    6   34 1
  16    6   35 1
  17    7    8 2
  18    7    9 1
  19    9   25 1
  20   10   11 2
  21   10   14 1
  22   12   13 1
  23   12   16 1
  24   12   17 1
  25   13   14 2
  26   14   15 1
  27   15   16 2
  28   16   36 1
  29   17   18 ar
  30   17   20 ar
  31   18   21 ar
  32   18   37 1
  33   19   21 ar
  34   19   22 ar
  35   19   38 1
  36   20   22 ar
  37   20   39 1
  38   21   23 1
  39   22   40 1
  40   23   41 1
  41   23   42 1
  42   23   43 1
  43   24   44 1
  44   24   45 1
  45   24   46 1
  46   25   26 1
  47   25   28 1
  48   25   27 1
  49   26   47 1
  50   26   48 1
  51   26   49 1
  52   27   50 1
  53   27   51 1
  54   27   52 1
  55   28   53 1
  56   28   54 1
  57   28   55 1

#	End of record

