#	Name: ASD05430186
#	Creating user name:	WinNT
#	Creation time:	15. 06. 2019 20:59

#	Modifying user name:	WinNT
#	Modification time:	15. 06. 2019 20:59

#	Program:	/corina/corina34_cracker 3.40 0067  02.08.2006

@<TRIPOS>MOLECULE
ASD05430186
  65   71    0    0    0
SMALL
NO_CHARGES


@<TRIPOS>ATOM
   1 C1            -0.0168     1.3891     0.0097 C.ar    
   2 C2             0.0021    -0.0041     0.0020 C.ar    
   3 C3             1.2129    -0.6803    -0.0132 C.ar    
   4 C4             2.3976     0.0290    -0.0207 C.ar    
   5 C5             2.3769     1.4103    -0.0131 C.ar    
   6 C6             1.1672     2.0911     0.0021 C.ar    
   7 C7             5.3013     3.4254     1.3910 C.3     
   8 C8             4.0594     2.5417     1.4147 C.3     
   9 C9             3.6721     2.1807    -0.0208 C.3     
  10 C10            6.1949     3.2043     2.6011 C.3     
  11 C11            5.4697     2.6704     3.8377 C.3     
  12 N12            4.8576     1.3907     3.4681 N.pl3   
  13 C13            4.3116     1.2767     2.1919 C.2     
  14 N14            4.0565     0.1200     1.6928 N.2     
  15 C15            3.3984     0.1678     4.9711 C.ar    
  16 C16            3.2220    -0.1400     6.3072 C.ar    
  17 N17           -1.2025    -0.7221     0.0101 N.pl3   
  18 C18           -2.2474    -0.5367     0.8580 C.2     
  19 C19           -1.5503    -1.7399    -0.8400 C.2     
  20 C20           -2.7845    -2.1422    -0.4823 C.2     
  21 N21           -3.1854    -1.3921     0.5549 N.2     
  22 C22           -3.5799    -3.2422    -1.1370 C.3     
  23 C23            4.7888     0.2664     4.3983 C.3     
  24 C24            5.1241    -1.0210     3.6344 C.3     
  25 N25            4.3558    -1.0555     2.3877 N.pl3   
  26 C26            1.9474    -0.2311     6.8335 C.ar    
  27 C27            0.8468    -0.0139     6.0219 C.ar    
  28 C28            1.0247     0.2943     4.6838 C.ar    
  29 C29            2.3001     0.3797     4.1586 C.ar    
  30 F30           -0.3997    -0.1032     6.5352 F       
  31 C31            7.4853     2.4322     2.2797 C.3     
  32 O32            8.1408     3.4079     3.1154 O.3     
  33 C33            7.1127     4.3987     2.9122 C.3     
  34 C34            0.4629     3.4218     0.0160 C.3     
  35 C35           -0.8467     2.6452     0.0190 C.3     
  36 H36            1.2292    -1.7602    -0.0188 H       
  37 H37            3.3410    -0.4965    -0.0321 H       
  38 H38            5.8711     3.2089     0.4874 H       
  39 H39            4.9906     4.4700     1.3680 H       
  40 H40            3.2394     3.0891     1.8796 H       
  41 H41            4.4565     1.5683    -0.4656 H       
  42 H42            3.5487     3.0931    -0.6042 H       
  43 H43            6.1821     2.5199     4.6489 H       
  44 H44            4.6977     3.3748     4.1474 H       
  45 H45            4.0806    -0.3097     6.9400 H       
  46 H46           -2.2939     0.1955     1.6505 H       
  47 H47           -0.9498    -2.1416    -1.6428 H       
  48 H48           -3.3609    -4.1904    -0.6461 H       
  49 H49           -4.6440    -3.0238    -1.0474 H       
  50 H50           -3.3099    -3.3078    -2.1910 H       
  51 H51            5.5094     0.4125     5.2030 H       
  52 H52            6.1898    -1.0422     3.4065 H       
  53 H53            4.8645    -1.8853     4.2457 H       
  54 H54            4.0501    -1.9074     2.0387 H       
  55 H55            1.8098    -0.4720     7.8772 H       
  56 H56            0.1669     0.4639     4.0499 H       
  57 H57            2.4391     0.6201     3.1150 H       
  58 H58            7.5061     1.4201     2.6836 H       
  59 H59            7.7790     2.4809     1.2311 H       
  60 H60            7.2919     5.0518     2.0581 H       
  61 H61            6.8385     4.9420     3.8166 H       
  62 H62            0.6348     3.9969     0.9259 H       
  63 H63            0.6174     4.0067    -0.8907 H       
  64 H64           -1.4397     2.7865    -0.8845 H       
  65 H65           -1.4280     2.7738     0.9321 H       
@<TRIPOS>BOND
   1    1    2 ar
   2    1    6 ar
   3    1   35 1
   4    2    3 ar
   5    2   17 1
   6    3    4 ar
   7    3   36 1
   8    4    5 ar
   9    4   37 1
  10    5    6 ar
  11    5    9 1
  12    6   34 1
  13    7    8 1
  14    7   10 1
  15    7   38 1
  16    7   39 1
  17    8    9 1
  18    8   13 1
  19    8   40 1
  20    9   41 1
  21    9   42 1
  22   10   11 1
  23   10   31 1
  24   10   33 1
  25   11   12 1
  26   11   43 1
  27   11   44 1
  28   12   13 1
  29   12   23 1
  30   13   14 2
  31   14   25 1
  32   15   16 ar
  33   15   23 1
  34   15   29 ar
  35   16   26 ar
  36   16   45 1
  37   17   18 1
  38   17   19 1
  39   18   21 2
  40   18   46 1
  41   19   20 2
  42   19   47 1
  43   20   21 1
  44   20   22 1
  45   22   48 1
  46   22   49 1
  47   22   50 1
  48   23   24 1
  49   23   51 1
  50   24   25 1
  51   24   52 1
  52   24   53 1
  53   25   54 1
  54   26   27 ar
  55   26   55 1
  56   27   28 ar
  57   27   30 1
  58   28   29 ar
  59   28   56 1
  60   29   57 1
  61   31   32 1
  62   31   58 1
  63   31   59 1
  64   32   33 1
  65   33   60 1
  66   33   61 1
  67   34   35 1
  68   34   62 1
  69   34   63 1
  70   35   64 1
  71   35   65 1

#	End of record

