#	Name: ASD03470006
#	Creating user name:	WinNT
#	Creation time:	15. 06. 2019 20:42

#	Modifying user name:	WinNT
#	Modification time:	15. 06. 2019 20:42

#	Program:	/corina/corina34_cracker 3.40 0067  02.08.2006

@<TRIPOS>MOLECULE
ASD03470006
  93   92    0    0    0
SMALL
NO_CHARGES


@<TRIPOS>ATOM
   1 N1            -1.3557    -7.6954    -8.5847 N.3     
   2 C2            -1.3943    -7.3026    -7.1697 C.3     
   3 C3            -2.7946    -7.4723    -6.6392 C.2     
   4 O4            -3.5777    -8.1973    -7.2156 O.2     
   5 C5            -0.4351    -8.1856    -6.3690 C.3     
   6 O6             0.9068    -7.9383    -6.7935 O.3     
   7 N7            -3.1768    -6.8184    -5.5244 N.am    
   8 C8            -4.5673    -6.8961    -5.0700 C.3     
   9 C9            -4.7662    -8.1611    -4.2754 C.2     
  10 O10           -3.8378    -8.9228    -4.1055 O.2     
  11 C11           -4.8846    -5.6857    -4.1896 C.3     
  12 C12           -4.8363    -4.4315    -5.0236 C.2     
  13 O13           -4.9698    -3.2308    -4.4385 O.3     
  14 O14           -4.6775    -4.5066    -6.2190 O.2     
  15 N15           -5.9758    -8.4461    -3.7537 N.am    
  16 C16           -6.1691    -9.6758    -2.9813 C.3     
  17 C17           -7.3237    -9.4951    -2.0298 C.2     
  18 O18           -7.9258    -8.4427    -1.9999 O.2     
  19 C19           -6.4699   -10.8345    -3.9341 C.3     
  20 C20           -5.2488   -11.0989    -4.8171 C.3     
  21 C21           -5.5496   -12.2576    -5.7698 C.3     
  22 C22           -4.3284   -12.5220    -6.6528 C.3     
  23 N23           -4.6172   -13.6346    -7.5676 N.3     
  24 N24           -7.6872   -10.5030    -1.2122 N.am    
  25 C25           -8.8605   -10.3575    -0.3470 C.3     
  26 C26           -9.5969   -11.6703    -0.2743 C.2     
  27 O27           -9.1698   -12.6388    -0.8663 O.2     
  28 C28           -8.4113    -9.9462     1.0565 C.3     
  29 C29           -7.3772   -10.9475     1.5750 C.3     
  30 C30           -7.7876    -8.5501     1.0038 C.3     
  31 C31           -8.0832   -12.2382     1.9953 C.3     
  32 N32          -10.7301   -11.7681     0.4488 N.am    
  33 C33          -11.4941   -13.0181     0.4476 C.3     
  34 C34          -11.8423   -13.3953     1.8644 C.2     
  35 O35          -11.4873   -12.6895     2.7846 O.2     
  36 C36          -12.7794   -12.8295    -0.3606 C.3     
  37 C37          -12.4335   -12.3818    -1.7574 C.2     
  38 O38          -11.2767   -12.3025    -2.0972 O.2     
  39 O39          -13.4104   -12.0712    -2.6239 O.3     
  40 N40          -12.5483   -14.5170     2.1090 N.am    
  41 C41          -12.8869   -14.8837     3.4864 C.3     
  42 C42          -14.1492   -14.1720     3.8999 C.2     
  43 O43          -14.7084   -13.4345     3.1241 O.2     
  44 C44          -13.1023   -16.3960     3.5733 C.3     
  45 C45          -11.8059   -17.1058     3.2790 C.2     
  46 N46          -11.7554   -18.4524     3.2983 N.am    
  47 O47          -10.8079   -16.4651     3.0247 O.2     
  48 H48           -0.4427    -7.5299    -8.9811 H       
  49 H49           -1.6308    -8.6593    -8.7000 H       
  50 H50           -1.0934    -6.2593    -7.0738 H       
  51 H51           -0.5289    -7.9548    -5.3078 H       
  52 H52           -0.6816    -9.2342    -6.5358 H       
  53 H53            1.5702    -8.4651    -6.3272 H       
  54 H54           -2.5311    -6.2964    -5.0229 H       
  55 H55           -5.2321    -6.9013    -5.9338 H       
  56 H56           -5.8804    -5.7991    -3.7611 H       
  57 H57           -4.1496    -5.6172    -3.3875 H       
  58 H58           -4.9321    -2.4551    -5.0146 H       
  59 H59           -6.7183    -7.8369    -3.8896 H       
  60 H60           -5.2635    -9.8960    -2.4160 H       
  61 H61           -6.7011   -11.7294    -3.3562 H       
  62 H62           -7.3231   -10.5768    -4.5616 H       
  63 H63           -5.0176   -10.2040    -5.3949 H       
  64 H64           -4.3956   -11.3567    -4.1895 H       
  65 H65           -5.7807   -13.1525    -5.1920 H       
  66 H66           -6.4027   -11.9999    -6.3974 H       
  67 H67           -4.0972   -11.6272    -7.2307 H       
  68 H68           -3.4752   -12.7798    -6.0253 H       
  69 H69           -5.4433   -13.4469    -8.1157 H       
  70 H70           -3.8254   -13.8288    -8.1620 H       
  71 H71           -7.1720   -11.3247    -1.1966 H       
  72 H72           -9.5208    -9.5927    -0.7559 H       
  73 H73           -9.2724    -9.9344     1.7247 H       
  74 H74           -6.6573   -11.1673     0.7866 H       
  75 H75           -6.8575   -10.5216     2.4332 H       
  76 H76           -8.5360    -7.8300     0.6730 H       
  77 H77           -7.4310    -8.2737     1.9960 H       
  78 H78           -6.9513    -8.5520     0.3046 H       
  79 H79           -8.9118   -11.9987     2.6617 H       
  80 H80           -8.4642   -12.7485     1.1107 H       
  81 H81           -7.3765   -12.8869     2.5128 H       
  82 H82          -11.0398   -11.0109     0.9699 H       
  83 H83          -10.8949   -13.8098    -0.0023 H       
  84 H84          -13.3222   -13.7737    -0.4056 H       
  85 H85          -13.4026   -12.0747     0.1190 H       
  86 H86          -13.1394   -11.7892    -3.5083 H       
  87 H87          -12.8323   -15.0816     1.3731 H       
  88 H88          -12.0724   -14.5940     4.1502 H       
  89 H89          -14.5538   -14.3214     4.8900 H       
  90 H90          -13.4403   -16.6578     4.5759 H       
  91 H91          -13.8553   -16.6982     2.8455 H       
  92 H92          -12.5535   -18.9648     3.5016 H       
  93 H93          -10.9209   -18.9093     3.1088 H       
@<TRIPOS>BOND
   1    1    2 1
   2    1   48 1
   3    1   49 1
   4    2    3 1
   5    2    5 1
   6    2   50 1
   7    3    7 am
   8    3    4 2
   9    5    6 1
  10    5   51 1
  11    5   52 1
  12    6   53 1
  13    7    8 1
  14    7   54 1
  15    8    9 1
  16    8   11 1
  17    8   55 1
  18    9   15 am
  19    9   10 2
  20   11   12 1
  21   11   56 1
  22   11   57 1
  23   12   13 1
  24   12   14 2
  25   13   58 1
  26   15   16 1
  27   15   59 1
  28   16   19 1
  29   16   17 1
  30   16   60 1
  31   17   24 am
  32   17   18 2
  33   19   20 1
  34   19   61 1
  35   19   62 1
  36   20   21 1
  37   20   63 1
  38   20   64 1
  39   21   22 1
  40   21   65 1
  41   21   66 1
  42   22   23 1
  43   22   67 1
  44   22   68 1
  45   23   69 1
  46   23   70 1
  47   24   25 1
  48   24   71 1
  49   25   26 1
  50   25   28 1
  51   25   72 1
  52   26   27 2
  53   26   32 am
  54   28   30 1
  55   28   29 1
  56   28   73 1
  57   29   31 1
  58   29   74 1
  59   29   75 1
  60   30   76 1
  61   30   77 1
  62   30   78 1
  63   31   79 1
  64   31   80 1
  65   31   81 1
  66   32   33 1
  67   32   82 1
  68   33   34 1
  69   33   36 1
  70   33   83 1
  71   34   35 2
  72   34   40 am
  73   36   37 1
  74   36   84 1
  75   36   85 1
  76   37   38 2
  77   37   39 1
  78   39   86 1
  79   40   41 1
  80   40   87 1
  81   41   42 1
  82   41   44 1
  83   41   88 1
  84   42   43 2
  85   42   89 1
  86   44   45 1
  87   44   90 1
  88   44   91 1
  89   45   47 2
  90   45   46 am
  91   46   92 1
  92   46   93 1

#	End of record

