#	Name: ASD05720213
#	Creating user name:	WinNT
#	Creation time:	15. 06. 2019 21:02

#	Modifying user name:	WinNT
#	Modification time:	15. 06. 2019 21:02

#	Program:	/corina/corina34_cracker 3.40 0067  02.08.2006

@<TRIPOS>MOLECULE
ASD05720213
  30   31    0    0    0
SMALL
NO_CHARGES


@<TRIPOS>ATOM
   1 C1            -0.0143     1.2034     0.0087 C.2     
   2 C2             1.2804     1.9746     0.0004 C.3     
   3 C3             1.3376     2.8619    -1.2447 C.3     
   4 C4             1.1316     2.0023    -2.4935 C.3     
   5 O5             0.0021    -0.0041     0.0020 O.2     
   6 C6             0.2361     3.9210    -1.1672 C.3     
   7 N7             2.4067     1.0378    -0.0153 N.pl3   
   8 C8             2.7723     0.3442     3.4749 C.2     
   9 N9             2.3229     0.8481     2.3164 N.2     
  10 C10            2.8834     0.5085     1.1717 C.2     
  11 C11            3.9683    -0.3943     1.1554 C.2     
  12 C12            4.4243    -0.9045     2.3205 C.2     
  13 N13            3.8242    -0.5349     3.4926 N.pl3   
  14 N14            4.0638    -0.8836     4.8268 N.2     
  15 C15            3.2032    -0.2512     5.5919 C.2     
  16 C16            2.3803     0.5313     4.7939 C.2     
  17 Br17           0.9770     1.6479     5.3939 Br      
  18 H18           -0.9568     1.7306     0.0250 H       
  19 H19            1.3381     2.5972     0.8933 H       
  20 H20            2.3098     3.3520    -1.2972 H       
  21 H21            1.9163     1.2478    -2.5487 H       
  22 H22            0.1594     1.5122    -2.4409 H       
  23 H23            1.1723     2.6344    -3.3805 H       
  24 H24            0.3829     4.5334    -0.2775 H       
  25 H25            0.2768     4.5532    -2.0542 H       
  26 H26           -0.7361     3.4309    -1.1146 H       
  27 H27            2.8184     0.7885    -0.8575 H       
  28 H28            4.4295    -0.6750     0.2200 H       
  29 H29            5.2532    -1.5968     2.3261 H       
  30 H30            3.1475    -0.3253     6.6679 H       
@<TRIPOS>BOND
   1    1    5 2
   2    1    2 1
   3    1   18 1
   4    2    3 1
   5    2    7 1
   6    2   19 1
   7    3    4 1
   8    3    6 1
   9    3   20 1
  10    4   21 1
  11    4   22 1
  12    4   23 1
  13    6   24 1
  14    6   25 1
  15    6   26 1
  16    7   10 1
  17    7   27 1
  18    8    9 1
  19    8   13 1
  20    8   16 2
  21    9   10 2
  22   10   11 1
  23   11   12 2
  24   11   28 1
  25   12   13 1
  26   12   29 1
  27   13   14 1
  28   14   15 2
  29   15   16 1
  30   15   30 1
  31   16   17 1

#	End of record

