#	Name: ASD03240082
#	Creating user name:	WinNT
#	Creation time:	15. 06. 2019 20:34

#	Modifying user name:	WinNT
#	Modification time:	15. 06. 2019 20:34

#	Program:	/corina/corina34_cracker 3.40 0067  02.08.2006

@<TRIPOS>MOLECULE
ASD03240082
  69   75    0    0    0
SMALL
NO_CHARGES


@<TRIPOS>ATOM
   1 C1            -0.0171     1.4134     0.0098 C.ar    
   2 C2             0.0021    -0.0041     0.0020 C.ar    
   3 C3             1.1906     2.1219     0.0021 C.ar    
   4 C4             2.3726     1.3938    -0.0132 C.ar    
   5 C5             2.3163    -0.0169    -0.0202 C.ar    
   6 N6             1.1624    -0.6585    -0.0131 N.ar    
   7 C7             3.5779    -0.7931    -0.0370 C.ar    
   8 C8             3.6809     2.0906    -0.0224 C.ar    
   9 C9             3.9251     3.1084    -0.9433 C.ar    
  10 C10            5.1448     3.7539    -0.9469 C.ar    
  11 C11            6.1241     3.3929    -0.0390 C.ar    
  12 C12            5.8875     2.3838     0.8772 C.ar    
  13 C13            4.6697     1.7348     0.8936 C.ar    
  14 C14            3.6632    -2.0053     0.6474 C.ar    
  15 C15            4.8411    -2.7238     0.6281 C.ar    
  16 C16            5.9359    -2.2440    -0.0683 C.ar    
  17 C17            5.8575    -1.0421    -0.7488 C.ar    
  18 C18            4.6832    -0.3176    -0.7421 C.ar    
  19 C19            7.2193    -3.0337    -0.0854 C.3     
  20 N20            7.2088    -3.9607    -1.2249 N.3     
  21 C21            8.5288    -4.5752    -1.4157 C.3     
  22 C22            8.5205    -5.4189    -2.6925 C.3     
  23 C23            7.4447    -6.5021    -2.5756 C.3     
  24 C24            6.0873    -5.8379    -2.3291 C.3     
  25 C25            6.1662    -4.9820    -1.0628 C.3     
  26 N26            7.3924    -7.2763    -3.8182 N.am    
  27 C27            7.6142    -8.6465    -3.9349 C.ar    
  28 C28            7.4660    -8.9656    -5.2862 C.ar    
  29 N29            7.1589    -7.7794    -5.9486 N.am    
  30 C30            7.1162    -6.7856    -5.0412 C.2     
  31 C31            7.9255    -9.6413    -3.0206 C.ar    
  32 C32            8.0877   -10.9437    -3.4505 C.ar    
  33 C33            7.9408   -11.2601    -4.7902 C.ar    
  34 C34            7.6308   -10.2760    -5.7083 C.ar    
  35 O35            6.8733    -5.6195    -5.2900 O.2     
  36 N36           -1.1703    -0.6572     0.0107 N.ar    
  37 C37           -2.3037     0.0036     0.0260 C.ar    
  38 N38           -2.3692     1.3247     0.0332 N.ar    
  39 C39           -1.2711     2.0703     0.0312 C.ar    
  40 N40           -1.3495     3.4459     0.0388 N.pl3   
  41 H41            1.2024     3.2018     0.0075 H       
  42 H42            3.1614     3.3908    -1.6528 H       
  43 H43            5.3353     4.5422    -1.6601 H       
  44 H44            7.0773     3.9006    -0.0457 H       
  45 H45            6.6559     2.1059     1.5834 H       
  46 H46            4.4859     0.9473     1.6096 H       
  47 H47            2.8093    -2.3806     1.1917 H       
  48 H48            4.9085    -3.6624     1.1581 H       
  49 H49            6.7157    -0.6725    -1.2905 H       
  50 H50            4.6232     0.6206    -1.2737 H       
  51 H51            8.0644    -2.3517    -0.1797 H       
  52 H52            7.3104    -3.5991     0.8421 H       
  53 H53            9.2841    -3.7939    -1.5015 H       
  54 H54            8.7602    -5.2114    -0.5614 H       
  55 H55            8.3029    -4.7807    -3.5489 H       
  56 H56            9.4957    -5.8873    -2.8254 H       
  57 H57            7.6830    -7.1638    -1.7428 H       
  58 H58            5.8314    -5.2063    -3.1798 H       
  59 H59            5.3241    -6.6057    -2.2024 H       
  60 H60            6.4086    -5.6164    -0.2102 H       
  61 H61            5.2054    -4.4963    -0.8924 H       
  62 H62            6.9992    -7.6860    -6.9008 H       
  63 H63            8.0412    -9.3982    -1.9747 H       
  64 H64            8.3305   -11.7186    -2.7385 H       
  65 H65            8.0692   -12.2809    -5.1188 H       
  66 H66            7.5167   -10.5267    -6.7526 H       
  67 H67           -3.2265    -0.5575     0.0325 H       
  68 H68           -2.2158     3.8822     0.0458 H       
  69 H69           -0.5384     3.9779     0.0372 H       
@<TRIPOS>BOND
   1    1    2 ar
   2    1    3 ar
   3    1   39 ar
   4    2   36 ar
   5    2    6 ar
   6    3    4 ar
   7    3   41 1
   8    4    5 ar
   9    4    8 1
  10    5    6 ar
  11    5    7 1
  12    7   14 ar
  13    7   18 ar
  14    8    9 ar
  15    8   13 ar
  16    9   10 ar
  17    9   42 1
  18   10   11 ar
  19   10   43 1
  20   11   12 ar
  21   11   44 1
  22   12   13 ar
  23   12   45 1
  24   13   46 1
  25   14   15 ar
  26   14   47 1
  27   15   16 ar
  28   15   48 1
  29   16   17 ar
  30   16   19 1
  31   17   18 ar
  32   17   49 1
  33   18   50 1
  34   19   20 1
  35   19   51 1
  36   19   52 1
  37   20   21 1
  38   20   25 1
  39   21   22 1
  40   21   53 1
  41   21   54 1
  42   22   23 1
  43   22   55 1
  44   22   56 1
  45   23   24 1
  46   23   26 1
  47   23   57 1
  48   24   25 1
  49   24   58 1
  50   24   59 1
  51   25   60 1
  52   25   61 1
  53   26   27 1
  54   26   30 am
  55   27   28 ar
  56   27   31 ar
  57   28   29 1
  58   28   34 ar
  59   29   30 am
  60   29   62 1
  61   30   35 2
  62   31   32 ar
  63   31   63 1
  64   32   33 ar
  65   32   64 1
  66   33   34 ar
  67   33   65 1
  68   34   66 1
  69   36   37 ar
  70   37   38 ar
  71   37   67 1
  72   38   39 ar
  73   39   40 1
  74   40   68 1
  75   40   69 1

#	End of record

