#	Name: ASD01903307
#	Creating user name:	WinNT
#	Creation time:	15. 06. 2019 19:54

#	Modifying user name:	WinNT
#	Modification time:	15. 06. 2019 19:54

#	Program:	/corina/corina34_cracker 3.40 0067  02.08.2006

@<TRIPOS>MOLECULE
ASD01903307
  33   36    0    0    0
SMALL
NO_CHARGES


@<TRIPOS>ATOM
   1 N1            -0.0111     0.9658     0.0074 N.pl3   
   2 H2             0.0454    -0.0025     0.0035 H       
   3 C3             1.1476     1.7282    -0.0089 C.2     
   4 C4            -1.2545     1.5902     0.0234 C.ar    
   5 N5            -1.3255     2.9084     0.1244 N.ar    
   6 C6            -2.4841     3.5396     0.1427 C.ar    
   7 C7            -3.6720     2.8415     0.0570 C.ar    
   8 C8            -3.6413     1.4573    -0.0503 C.ar    
   9 C9            -2.4118     0.8241    -0.0727 C.ar    
  10 S10            2.7863     1.0910     0.0955 S.3     
  11 C11            3.4308     2.7215     0.0072 C.2     
  12 C12            2.3850     3.5906    -0.1140 C.2     
  13 N13            1.1928     3.0211    -0.1089 N.2     
  14 C14            4.8746     3.1457     0.0746 C.3     
  15 C15            5.1251     4.4082    -0.7519 C.3     
  16 C16            4.0155     5.4054    -0.5557 C.2     
  17 C17            2.7192     5.0378    -0.2784 C.2     
  18 N18            4.0398     6.7441    -0.6079 N.pl3   
  19 N19            2.7348     7.2156    -0.3910 N.2     
  20 C20            1.9435     6.1855    -0.1962 C.2     
  21 C21            5.2481     3.4199     1.5327 C.3     
  22 H22           -2.5034     4.6162     0.2263 H       
  23 H23           -4.6157     3.3666     0.0735 H       
  24 H24           -4.5567     0.8883    -0.1184 H       
  25 H25           -2.3513    -0.2510    -0.1555 H       
  26 H26            5.5012     2.3396    -0.3072 H       
  27 H27            6.0693     4.8571    -0.4435 H       
  28 H28            5.1841     4.1403    -1.8068 H       
  29 H29            4.8236     7.2929    -0.7674 H       
  30 H30            0.8811     6.2246    -0.0061 H       
  31 H31            5.1042     2.5138     2.1212 H       
  32 H32            6.2923     3.7275     1.5887 H       
  33 H33            4.6138     4.2138     1.9271 H       
@<TRIPOS>BOND
   1    1    2 1
   2    1    3 1
   3    1    4 1
   4    3   10 1
   5    3   13 2
   6    4    5 ar
   7    4    9 ar
   8    5    6 ar
   9    6    7 ar
  10    6   22 1
  11    7    8 ar
  12    7   23 1
  13    8    9 ar
  14    8   24 1
  15    9   25 1
  16   10   11 1
  17   11   12 2
  18   11   14 1
  19   12   13 1
  20   12   17 1
  21   14   15 1
  22   14   21 1
  23   14   26 1
  24   15   16 1
  25   15   27 1
  26   15   28 1
  27   16   17 2
  28   16   18 1
  29   17   20 1
  30   18   19 1
  31   18   29 1
  32   19   20 2
  33   20   30 1
  34   21   31 1
  35   21   32 1
  36   21   33 1

#	End of record

