#	Name: ASD08150305
#	Creating user name:	WinNT
#	Creation time:	15. 06. 2019 21:15

#	Modifying user name:	WinNT
#	Modification time:	15. 06. 2019 21:15

#	Program:	/corina/corina34_cracker 3.40 0067  02.08.2006

@<TRIPOS>MOLECULE
ASD08150305
  56   61    0    0    0
SMALL
NO_CHARGES


@<TRIPOS>ATOM
   1 N1            -0.0541     0.9927    -0.4831 N.2     
   2 C2            -0.5467    -0.2082    -0.4491 C.2     
   3 N3             0.1793    -1.3044    -0.0992 N.am    
   4 C4             1.4846    -1.1868     0.2385 C.2     
   5 C5             2.0726     0.1603     0.2095 C.ar    
   6 C6             3.4069     0.3890     0.5400 C.ar    
   7 C7             3.9066     1.6721     0.4965 C.ar    
   8 C8             3.0925     2.7350     0.1273 C.ar    
   9 C9             1.7716     2.5306    -0.2025 C.ar    
  10 C10            1.2417     1.2391    -0.1664 C.ar    
  11 O11            2.1460    -2.1587     0.5544 O.2     
  12 C12           -0.4297    -2.5656    -0.0880 C.ar    
  13 C13           -1.1413    -2.9847     1.0284 C.ar    
  14 C14           -1.7411    -4.2288     1.0362 C.ar    
  15 C15           -1.6335    -5.0568    -0.0661 C.ar    
  16 C16           -0.9252    -4.6425    -1.1792 C.ar    
  17 C17           -0.3280    -3.3972    -1.1954 C.ar    
  18 C18            4.2966    -0.7587     0.9426 C.3     
  19 C19           -1.9962    -0.3973    -0.8154 C.3     
  20 C20           -2.5841     0.9244    -1.2381 C.ar    
  21 C21           -2.5379     1.3073    -2.5644 C.ar    
  22 C22           -3.0800     2.5256    -2.9531 C.ar    
  23 C23           -3.6670     3.3551    -2.0057 C.ar    
  24 C24           -3.7097     2.9661    -0.6815 C.ar    
  25 C25           -3.1740     1.7498    -0.2987 C.ar    
  26 N26           -3.0346     2.9164    -4.2942 N.pl3   
  27 N27           -3.0965     4.0043    -7.1873 N.pl3   
  28 C28           -3.5980     4.6916    -8.2380 C.2     
  29 N29           -4.7251     5.2577    -7.9067 N.2     
  30 C30           -5.0197     4.9712    -6.6247 C.ar    
  31 N31           -6.0260     5.2852    -5.8021 N.ar    
  32 C32           -6.0395     4.8426    -4.5616 C.ar    
  33 N33           -5.0779     4.0791    -4.0698 N.ar    
  34 C34           -4.0382     3.7171    -4.8172 C.ar    
  35 C35           -3.9798     4.1614    -6.1392 C.ar    
  36 F36           -7.0736     5.1822    -3.7613 F       
  37 H37            4.9402     1.8530     0.7520 H       
  38 H38            3.5007     3.7345     0.0989 H       
  39 H39            1.1481     3.3651    -0.4873 H       
  40 H40           -1.2253    -2.3387     1.8898 H       
  41 H41           -2.2943    -4.5555     1.9043 H       
  42 H42           -2.1034    -6.0291    -0.0576 H       
  43 H43           -0.8425    -5.2917    -2.0383 H       
  44 H44            0.2213    -3.0724    -2.0667 H       
  45 H45            4.6875    -1.2461     0.0494 H       
  46 H46            5.1248    -0.3830     1.5435 H       
  47 H47            3.7210    -1.4773     1.5262 H       
  48 H48           -2.0733    -1.1088    -1.6376 H       
  49 H49           -2.5423    -0.7785     0.0475 H       
  50 H50           -2.0805     0.6603    -3.2983 H       
  51 H51           -4.0891     4.3032    -2.3045 H       
  52 H52           -4.1659     3.6105     0.0555 H       
  53 H53           -3.2127     1.4459     0.7369 H       
  54 H54           -2.3009     2.6274    -4.8591 H       
  55 H55           -2.2722     3.4932    -7.1740 H       
  56 H56           -3.1326     4.7620    -9.2100 H       
@<TRIPOS>BOND
   1    1    2 2
   2    1   10 1
   3    2    3 1
   4    2   19 1
   5    3    4 am
   6    3   12 1
   7    4    5 1
   8    4   11 2
   9    5    6 ar
  10    5   10 ar
  11    6    7 ar
  12    6   18 1
  13    7    8 ar
  14    7   37 1
  15    8    9 ar
  16    8   38 1
  17    9   10 ar
  18    9   39 1
  19   12   13 ar
  20   12   17 ar
  21   13   14 ar
  22   13   40 1
  23   14   15 ar
  24   14   41 1
  25   15   16 ar
  26   15   42 1
  27   16   17 ar
  28   16   43 1
  29   17   44 1
  30   18   45 1
  31   18   46 1
  32   18   47 1
  33   19   20 1
  34   19   48 1
  35   19   49 1
  36   20   21 ar
  37   20   25 ar
  38   21   22 ar
  39   21   50 1
  40   22   23 ar
  41   22   26 1
  42   23   24 ar
  43   23   51 1
  44   24   25 ar
  45   24   52 1
  46   25   53 1
  47   26   34 1
  48   26   54 1
  49   27   28 1
  50   27   35 1
  51   27   55 1
  52   28   29 2
  53   28   56 1
  54   29   30 1
  55   30   31 ar
  56   30   35 ar
  57   31   32 ar
  58   32   33 ar
  59   32   36 1
  60   33   34 ar
  61   34   35 ar

#	End of record

