#	Name: ASD04170008
#	Creating user name:	WinNT
#	Creation time:	15. 06. 2019 20:48

#	Modifying user name:	WinNT
#	Modification time:	15. 06. 2019 20:48

#	Program:	/corina/corina34_cracker 3.40 0067  02.08.2006

@<TRIPOS>MOLECULE
ASD04170008
  31   32    0    0    0
SMALL
NO_CHARGES


@<TRIPOS>ATOM
   1 C1            -0.0178     1.4608     0.0101 C.3     
   2 N2             0.0021    -0.0041     0.0020 N.pl3   
   3 C3             0.0243    -0.7615     1.2631 C.3     
   4 C4             1.0247    -1.9140     1.0888 C.3     
   5 C5             0.5578    -2.7905    -0.0752 C.3     
   6 N6             0.2599    -1.9739    -1.2463 N.2     
   7 C7            -0.0055    -0.7030    -1.1904 C.2     
   8 C8            -0.3110     0.0124    -2.4312 C.2     
   9 C9            -0.3137    -0.6495    -3.6101 C.2     
  10 C10           -0.6185     0.0645    -4.8485 C.2     
  11 S11           -0.9998     1.7766    -4.9717 S.3     
  12 C12           -1.1823     1.6627    -6.6642 C.2     
  13 C13           -0.9665     0.4126    -7.0867 C.2     
  14 C14           -0.6472    -0.4908    -6.0988 C.2     
  15 C15           -0.3669    -1.9472    -6.3659 C.3     
  16 H16            1.0048     1.8381     0.0023 H       
  17 H17           -0.5450     1.8219    -0.8730 H       
  18 H18           -0.5280     1.8123     0.9069 H       
  19 H19            0.3442    -0.1134     2.0790 H       
  20 H20           -0.9679    -1.1608     1.4731 H       
  21 H21            2.0134    -1.5108     0.8699 H       
  22 H22            1.0621    -2.5077     2.0021 H       
  23 H23            1.3429    -3.5040    -0.3251 H       
  24 H24           -0.3394    -3.3337     0.2215 H       
  25 H25           -0.5340     1.0688    -2.4045 H       
  26 H26           -0.0906    -1.7059    -3.6367 H       
  27 H27           -1.4384     2.4905    -7.3088 H       
  28 H28           -1.0339     0.1330    -8.1277 H       
  29 H29            0.6977    -2.0833    -6.5564 H       
  30 H30           -0.6593    -2.5386    -5.4982 H       
  31 H31           -0.9363    -2.2731    -7.2363 H       
@<TRIPOS>BOND
   1    1    2 1
   2    1   16 1
   3    1   17 1
   4    1   18 1
   5    2    3 1
   6    2    7 1
   7    3    4 1
   8    3   19 1
   9    3   20 1
  10    4    5 1
  11    4   21 1
  12    4   22 1
  13    5    6 1
  14    5   23 1
  15    5   24 1
  16    6    7 2
  17    7    8 1
  18    8    9 2
  19    8   25 1
  20    9   10 1
  21    9   26 1
  22   10   11 1
  23   10   14 2
  24   11   12 1
  25   12   13 2
  26   12   27 1
  27   13   14 1
  28   13   28 1
  29   14   15 1
  30   15   29 1
  31   15   30 1
  32   15   31 1

#	End of record

