#	Name: ASD05872003
#	Creating user name:	WinNT
#	Creation time:	15. 06. 2019 21:04

#	Modifying user name:	WinNT
#	Modification time:	15. 06. 2019 21:04

#	Program:	/corina/corina34_cracker 3.40 0067  02.08.2006

@<TRIPOS>MOLECULE
ASD05872003
  77   80    0    0    0
SMALL
NO_CHARGES


@<TRIPOS>ATOM
   1 C1            -0.0168     1.3909     0.0097 C.ar    
   2 C2             0.0021    -0.0041     0.0020 C.ar    
   3 C3            -1.1845    -0.7121     0.0091 C.ar    
   4 C4            -2.3952    -0.0265     0.0243 C.ar    
   5 C5            -2.4171     1.3754     0.0325 C.ar    
   6 C6            -1.2170     2.0760     0.0306 C.ar    
   7 C7            -3.8128    -0.4423     0.0360 C.2     
   8 C8            -4.5353     0.7114     0.0498 C.2     
   9 O9            -3.7097     1.7642     0.0476 O.3     
  10 C10           -6.0401     0.7908     0.0647 C.3     
  11 O11           -6.5028     0.8080     1.4166 O.3     
  12 C12           -7.8479     0.8780     1.6082 C.ar    
  13 C13           -8.6982     0.9288     0.5208 C.ar    
  14 C14          -10.0732     1.0004     0.7246 C.ar    
  15 C15          -10.5979     1.0211     2.0242 C.ar    
  16 C16           -9.7318     0.9695     3.1102 C.ar    
  17 C17           -8.3679     0.8928     2.9032 C.ar    
  18 C18          -11.2442     1.0666    -0.1739 C.2     
  19 C19          -12.3324     1.1195     0.6423 C.2     
  20 O20          -11.9421     1.0922     1.9217 O.3     
  21 C21          -13.7629     1.1975     0.1746 C.3     
  22 C22           -6.4274    -3.7964    -0.3033 C.3     
  23 C23           -4.0919    -4.6835    -0.3325 C.3     
  24 C24           -5.3217    -4.3322    -2.4788 C.3     
  25 C25          -12.4506     1.4974    -4.2433 C.3     
  26 C26           -9.9556     1.3668    -4.2298 C.3     
  27 C27          -11.0896     3.5905    -4.3378 C.3     
  28 O28           -7.5252     0.8421     3.9695 O.3     
  29 C29           -8.1200     0.8722     5.2685 C.3     
  30 O30            1.1896    -0.6677    -0.0129 O.3     
  31 S31            1.7432    -0.9772     1.3707 S.o2    
  32 O32            3.1393    -1.3444     1.1913 O.co2   
  33 O33            1.5947     0.2341     2.1624 O.co2   
  34 O34            0.9533    -2.0770     1.9021 O.co2   
  35 C35           -4.3345    -1.8156     0.0327 C.2     
  36 O36           -4.5397    -2.3905     1.0841 O.2     
  37 O37           -4.5856    -2.4384    -1.1364 O.3     
  38 C38           -5.0997    -3.7944    -1.0637 C.3     
  39 C39          -11.2358     1.0743    -1.6429 C.2     
  40 O40          -11.2874     0.0261    -2.2566 O.2     
  41 O41          -11.1710     2.2438    -2.3105 O.3     
  42 C42          -11.1668     2.1756    -3.7609 C.3     
  43 O43            1.1546     2.0819     0.0022 O.3     
  44 C44            1.0667     3.5081     0.0107 C.3     
  45 H45           -1.1722    -1.7920     0.0025 H       
  46 H46           -1.2222     3.1560     0.0372 H       
  47 H47           -6.3609     1.7017    -0.4407 H       
  48 H48           -6.4549    -0.0757    -0.4503 H       
  49 H49           -8.2982     0.9134    -0.4823 H       
  50 H50          -10.1253     0.9852     4.1159 H       
  51 H51          -14.1619     0.1901     0.0562 H       
  52 H52          -14.3568     1.7393     0.9108 H       
  53 H53          -13.8047     1.7196    -0.7813 H       
  54 H54           -6.2693    -3.4133     0.7048 H       
  55 H55           -7.1454    -3.1630    -0.8243 H       
  56 H56           -6.8133    -4.8143    -0.2488 H       
  57 H57           -4.4778    -5.7014    -0.2779 H       
  58 H58           -3.1460    -4.6821    -0.8742 H       
  59 H59           -3.9338    -4.3003     0.6756 H       
  60 H60           -6.0397    -3.6988    -2.9997 H       
  61 H61           -4.3758    -4.3308    -3.0205 H       
  62 H62           -5.7076    -5.3501    -2.4242 H       
  63 H63          -12.5056     0.4894    -3.8322 H       
  64 H64          -13.3135     2.0736    -3.9092 H       
  65 H65          -12.4474     1.4462    -5.3321 H       
  66 H66           -9.9524     1.3156    -5.3186 H       
  67 H67           -9.0410     1.8500    -3.8861 H       
  68 H68          -10.0106     0.3588    -3.8188 H       
  69 H69          -11.9525     4.1667    -4.0037 H       
  70 H70          -10.1750     4.0736    -3.9941 H       
  71 H71          -11.0864     3.5393    -5.4266 H       
  72 H72           -7.3387     0.8258     6.0270 H       
  73 H73           -8.6872     1.7954     5.3871 H       
  74 H74           -8.7879     0.0183     5.3821 H       
  75 H75            2.0700     3.9341     0.0034 H       
  76 H76            0.5230     3.8439    -0.8723 H       
  77 H77            0.5400     3.8343     0.9075 H       
@<TRIPOS>BOND
   1    1    2 ar
   2    1   43 1
   3    1    6 ar
   4    2    3 ar
   5    2   30 1
   6    3    4 ar
   7    3   45 1
   8    4    5 ar
   9    4    7 1
  10    5    6 ar
  11    5    9 1
  12    6   46 1
  13    7    8 2
  14    7   35 1
  15    8    9 1
  16    8   10 1
  17   10   11 1
  18   10   47 1
  19   10   48 1
  20   11   12 1
  21   12   13 ar
  22   12   17 ar
  23   13   14 ar
  24   13   49 1
  25   14   15 ar
  26   14   18 1
  27   15   16 ar
  28   15   20 1
  29   16   17 ar
  30   16   50 1
  31   17   28 1
  32   18   19 2
  33   18   39 1
  34   19   20 1
  35   19   21 1
  36   21   51 1
  37   21   52 1
  38   21   53 1
  39   22   38 1
  40   22   54 1
  41   22   55 1
  42   22   56 1
  43   23   38 1
  44   23   57 1
  45   23   58 1
  46   23   59 1
  47   24   38 1
  48   24   60 1
  49   24   61 1
  50   24   62 1
  51   25   42 1
  52   25   63 1
  53   25   64 1
  54   25   65 1
  55   26   42 1
  56   26   66 1
  57   26   67 1
  58   26   68 1
  59   27   42 1
  60   27   69 1
  61   27   70 1
  62   27   71 1
  63   28   29 1
  64   29   72 1
  65   29   73 1
  66   29   74 1
  67   30   31 1
  68   31   32 ar
  69   31   33 ar
  70   31   34 ar
  71   35   36 2
  72   35   37 1
  73   37   38 1
  74   39   40 2
  75   39   41 1
  76   41   42 1
  77   43   44 1
  78   44   75 1
  79   44   76 1
  80   44   77 1

#	End of record

