#	Name: ASD01884938
#	Creating user name:	WinNT
#	Creation time:	15. 06. 2019 19:49

#	Modifying user name:	WinNT
#	Modification time:	15. 06. 2019 19:49

#	Program:	/corina/corina34_cracker 3.40 0067  02.08.2006

@<TRIPOS>MOLECULE
ASD01884938
  46   50    0    0    0
SMALL
NO_CHARGES


@<TRIPOS>ATOM
   1 C1            -0.0147     1.3765     0.0042 C.ar    
   2 C2             0.0297     0.0155    -0.2159 C.ar    
   3 C3            -1.1190    -0.6604    -0.6284 C.ar    
   4 C4            -2.3085     0.0430    -0.8167 C.ar    
   5 C5            -2.3461     1.4037    -0.5949 C.ar    
   6 C6            -1.2033     2.0729    -0.1795 C.ar    
   7 C7            -1.0753    -2.1220    -0.8663 C.2     
   8 C8            -1.8107    -2.9816    -0.0704 C.2     
   9 C9            -0.2846    -2.6526    -1.9147 C.2     
  10 C10           -0.2465    -3.9808    -2.1295 C.2     
  11 N11           -0.9654    -4.8376    -1.3460 N.pl3   
  12 C12           -1.7487    -4.3639    -0.3216 C.2     
  13 Cl13          -2.7949    -2.3636     1.2193 Cl      
  14 C14           -1.1145    -6.1909    -1.3324 C.2     
  15 N15           -1.9322    -6.4875    -0.3554 N.2     
  16 N16           -2.3138    -5.4172     0.2482 N.2     
  17 C17           -0.4577    -7.1689    -2.2722 C.3     
  18 O18           -1.2442     3.4135     0.0385 O.3     
  19 C19            0.4539    -8.2340    -1.6594 C.3     
  20 C20           -0.9185    -8.6266    -2.2101 C.3     
  21 C21           -2.5205     4.0484    -0.0617 C.3     
  22 C22           -2.5226     5.3299     0.7775 C.3     
  23 C23           -2.8004     4.4084    -1.5240 C.3     
  24 C24           -4.1326     5.1577    -1.6109 C.3     
  25 O25           -4.0778     6.3217    -0.7839 O.3     
  26 C26           -3.8655     6.0436     0.6017 C.3     
  27 Cl27           1.4136     2.2189     0.5180 Cl      
  28 H28            0.9526    -0.5262    -0.0695 H       
  29 H29           -3.1993    -0.4774    -1.1363 H       
  30 H30           -3.2671     1.9486    -0.7410 H       
  31 H31            0.2896    -1.9890    -2.5442 H       
  32 H32            0.3601    -4.3738    -2.9320 H       
  33 H33           -0.1800    -6.7696    -3.2476 H       
  34 H34            1.3310    -8.5357    -2.2319 H       
  35 H35            0.5785    -8.2274    -0.5765 H       
  36 H36           -1.6968    -8.8782    -1.4897 H       
  37 H37           -0.9442    -9.1865    -3.1450 H       
  38 H38           -3.2937     3.3723     0.3033 H       
  39 H39           -2.3790     5.0775     1.8281 H       
  40 H40           -1.7163     5.9839     0.4456 H       
  41 H41           -1.9997     5.0438    -1.9024 H       
  42 H42           -2.8556     3.4970    -2.1193 H       
  43 H43           -4.3164     5.4539    -2.6437 H       
  44 H44           -4.9383     4.5074    -1.2703 H       
  45 H45           -4.6677     5.4049     0.9713 H       
  46 H46           -3.8568     6.9780     1.1628 H       
@<TRIPOS>BOND
   1    1    2 ar
   2    1   27 1
   3    1    6 ar
   4    2    3 ar
   5    2   28 1
   6    3    4 ar
   7    3    7 1
   8    4    5 ar
   9    4   29 1
  10    5    6 ar
  11    5   30 1
  12    6   18 1
  13    7    8 2
  14    7    9 1
  15    8   13 1
  16    8   12 1
  17    9   10 2
  18    9   31 1
  19   10   11 1
  20   10   32 1
  21   11   12 1
  22   11   14 1
  23   12   16 2
  24   14   15 2
  25   14   17 1
  26   15   16 1
  27   17   19 1
  28   17   20 1
  29   17   33 1
  30   18   21 1
  31   19   20 1
  32   19   34 1
  33   19   35 1
  34   20   36 1
  35   20   37 1
  36   21   22 1
  37   21   23 1
  38   21   38 1
  39   22   26 1
  40   22   39 1
  41   22   40 1
  42   23   24 1
  43   23   41 1
  44   23   42 1
  45   24   25 1
  46   24   43 1
  47   24   44 1
  48   25   26 1
  49   26   45 1
  50   26   46 1

#	End of record

