#	Name: ASD06170076
#	Creating user name:	WinNT
#	Creation time:	15. 06. 2019 21:05

#	Modifying user name:	WinNT
#	Modification time:	15. 06. 2019 21:05

#	Program:	/corina/corina34_cracker 3.40 0067  02.08.2006

@<TRIPOS>MOLECULE
ASD06170076
  66   70    0    0    0
SMALL
NO_CHARGES


@<TRIPOS>ATOM
   1 N1             0.2676     1.5833    -0.5649 N.pl3   
   2 N2             0.0630     0.2737    -0.1204 N.am    
   3 C3             1.2507    -0.2413     0.2602 C.2     
   4 C4             2.2535     0.8126     0.0385 C.2     
   5 C5             1.5724     1.9017    -0.4693 C.2     
   6 C6             3.6941     0.7240     0.3051 C.2     
   7 O7             4.4151     1.6768     0.0750 O.2     
   8 N8             4.2183    -0.4127     0.8047 N.am    
   9 C9            -1.1668    -0.3911    -0.0767 C.ar    
  10 C10           -2.0115    -0.3650    -1.1789 C.ar    
  11 C11           -3.2250    -1.0228    -1.1327 C.ar    
  12 C12           -3.5995    -1.7066     0.0094 C.ar    
  13 C13           -2.7609    -1.7341     1.1087 C.ar    
  14 C14           -1.5434    -1.0835     1.0668 C.ar    
  15 O15            1.4527    -1.3577     0.7002 O.2     
  16 C16            2.1864     3.2235    -0.8526 C.3     
  17 C17            5.6010    -0.5465     0.9308 C.ar    
  18 C18            6.4003     0.5902     0.9783 C.ar    
  19 C19            7.7702     0.4461     1.1035 C.ar    
  20 C20            8.2980    -0.8407     1.1776 C.ar    
  21 C21            7.4400    -1.9274     1.1238 C.ar    
  22 N22            6.1371    -1.7537     1.0094 N.ar    
  23 O23            9.6390    -1.0283     1.3007 O.3     
  24 N24           11.3079    -0.5215     5.0380 N.ar    
  25 C25           10.0305    -0.2875     4.8482 C.ar    
  26 C26            9.4337    -0.4470     3.6042 C.ar    
  27 C27           10.1947    -0.8637     2.5261 C.ar    
  28 C28           11.5692    -1.1128     2.7419 C.ar    
  29 C29           12.4041    -1.5376     1.6980 C.ar    
  30 C30           13.7236    -1.7692     1.9375 C.ar    
  31 C31           14.2609    -1.5887     3.2153 C.ar    
  32 C32           13.4674    -1.1731     4.2605 C.ar    
  33 C33           12.1029    -0.9267     4.0405 C.ar    
  34 O34           15.5812    -1.8266     3.4281 O.3     
  35 C35           16.3523    -2.2561     2.3043 C.3     
  36 C36           -0.7813     2.4748    -1.0663 C.3     
  37 C37           -1.2571     3.3890     0.0645 C.3     
  38 C38           -2.3524     4.3201    -0.4592 C.3     
  39 O39           -1.7774     2.5947     1.1323 O.3     
  40 H40            3.6341    -1.1377     1.0765 H       
  41 H41           -1.7199     0.1695    -2.0709 H       
  42 H42           -3.8823    -1.0028    -1.9894 H       
  43 H43           -4.5491    -2.2199     0.0432 H       
  44 H44           -3.0566    -2.2685     1.9994 H       
  45 H45           -0.8868    -1.1095     1.9239 H       
  46 H46            2.1795     3.8909     0.0091 H       
  47 H47            3.2136     3.0653    -1.1813 H       
  48 H48            1.6104     3.6704    -1.6629 H       
  49 H49            5.9572     1.5732     0.9178 H       
  50 H50            8.4156     1.3112     1.1426 H       
  51 H51            7.8421    -2.9282     1.1803 H       
  52 H52            9.4266     0.0378     5.6825 H       
  53 H53            8.3798    -0.2471     3.4789 H       
  54 H54           12.0006    -1.6810     0.7065 H       
  55 H55           14.3629    -2.0965     1.1310 H       
  56 H56           13.8922    -1.0366     5.2440 H       
  57 H57           15.9446    -3.1909     1.9197 H       
  58 H58           16.3138    -1.4950     1.5249 H       
  59 H59           17.3869    -2.4100     2.6110 H       
  60 H60           -0.3844     3.0807    -1.8808 H       
  61 H61           -1.6196     1.8808    -1.4304 H       
  62 H62           -0.4188     3.9830     0.4286 H       
  63 H63           -3.1907     3.7262    -0.8233 H       
  64 H64           -2.6914     4.9714     0.3464 H       
  65 H65           -1.9555     4.9260    -1.2737 H       
  66 H66           -2.5275     2.0391     0.8798 H       
@<TRIPOS>BOND
   1    1    2 1
   2    1    5 1
   3    1   36 1
   4    2    3 am
   5    2    9 1
   6    3    4 1
   7    3   15 2
   8    4    5 2
   9    4    6 1
  10    5   16 1
  11    6    7 2
  12    6    8 am
  13    8   17 1
  14    8   40 1
  15    9   10 ar
  16    9   14 ar
  17   10   11 ar
  18   10   41 1
  19   11   12 ar
  20   11   42 1
  21   12   13 ar
  22   12   43 1
  23   13   14 ar
  24   13   44 1
  25   14   45 1
  26   16   46 1
  27   16   47 1
  28   16   48 1
  29   17   18 ar
  30   17   22 ar
  31   18   19 ar
  32   18   49 1
  33   19   20 ar
  34   19   50 1
  35   20   21 ar
  36   20   23 1
  37   21   22 ar
  38   21   51 1
  39   23   27 1
  40   24   25 ar
  41   24   33 ar
  42   25   26 ar
  43   25   52 1
  44   26   27 ar
  45   26   53 1
  46   27   28 ar
  47   28   29 ar
  48   28   33 ar
  49   29   30 ar
  50   29   54 1
  51   30   31 ar
  52   30   55 1
  53   31   32 ar
  54   31   34 1
  55   32   33 ar
  56   32   56 1
  57   34   35 1
  58   35   57 1
  59   35   58 1
  60   35   59 1
  61   36   37 1
  62   36   60 1
  63   36   61 1
  64   37   38 1
  65   37   39 1
  66   37   62 1
  67   38   63 1
  68   38   64 1
  69   38   65 1
  70   39   66 1

#	End of record

