#	Name: ASD03090836
#	Creating user name:	WinNT
#	Creation time:	15. 06. 2019 20:29

#	Modifying user name:	WinNT
#	Modification time:	15. 06. 2019 20:29

#	Program:	/corina/corina34_cracker 3.40 0067  02.08.2006

@<TRIPOS>MOLECULE
ASD03090836
  39   41    0    0    0
SMALL
NO_CHARGES


@<TRIPOS>ATOM
   1 N1            -0.0175     1.3432    -0.0860 N.am    
   2 C2             0.0012    -0.0044    -0.0679 C.2     
   3 O3             1.0649    -0.5993    -0.0775 O.2     
   4 N4            -1.1464    -0.6880    -0.0394 N.2     
   5 S5             0.2595    -3.0387    -0.0302 S.3     
   6 C6            -1.1280    -2.0187    -0.0215 C.2     
   7 N7            -2.1987    -2.8518     0.0077 N.pl3   
   8 C8            -1.9391    -4.1884     0.0221 C.2     
   9 C9            -0.6633    -4.5510     0.0062 C.2     
  10 O10           -7.3741    -0.8848     0.0781 O.3     
  11 C11           -8.4123    -1.7492    -0.3960 C.3     
  12 C12           -8.2087    -3.1342     0.2329 C.3     
  13 O13           -6.9212    -3.6205    -0.1616 O.3     
  14 C14           -5.8806    -2.7488    -0.0610 C.ar    
  15 C15           -6.1064    -1.3819     0.0568 C.ar    
  16 C16           -4.5831    -3.2357    -0.0763 C.ar    
  17 C17           -3.5113    -2.3592     0.0230 C.ar    
  18 C18           -3.7397    -0.9950     0.1377 C.ar    
  19 C19           -5.0330    -0.5092     0.1545 C.ar    
  20 F20           -8.2679    -3.0328     1.6270 F       
  21 F21           -9.2025    -4.0087    -0.2198 F       
  22 F22           -9.6595    -1.2390    -0.0199 F       
  23 F23           -8.3434    -1.8491    -1.7897 F       
  24 C24           -0.1141    -5.9542     0.0171 C.3     
  25 C25            1.2409     2.0928    -0.1173 C.3     
  26 C26           -1.2961     2.0582    -0.0806 C.3     
  27 H27           -2.7344    -4.9188     0.0454 H       
  28 H28           -4.4058    -4.2972    -0.1662 H       
  29 H29           -2.9060    -0.3127     0.2139 H       
  30 H30           -5.2085     0.5527     0.2435 H       
  31 H31            0.9752    -5.9182    -0.0005 H       
  32 H32           -0.4460    -6.4673     0.9197 H       
  33 H33           -0.4741    -6.4922    -0.8598 H       
  34 H34            1.5358     2.2646    -1.1525 H       
  35 H35            1.1060     3.0502     0.3858 H       
  36 H36            2.0170     1.5211     0.3915 H       
  37 H37           -1.6010     2.2495     0.9483 H       
  38 H38           -1.1850     3.0052    -0.6087 H       
  39 H39           -2.0536     1.4519    -0.5772 H       
@<TRIPOS>BOND
   1    1    2 am
   2    1   25 1
   3    1   26 1
   4    2    3 2
   5    2    4 1
   6    4    6 2
   7    5    6 1
   8    5    9 1
   9    6    7 1
  10    7    8 1
  11    7   17 1
  12    8    9 2
  13    8   27 1
  14    9   24 1
  15   10   11 1
  16   10   15 1
  17   11   12 1
  18   11   22 1
  19   11   23 1
  20   12   13 1
  21   12   20 1
  22   12   21 1
  23   13   14 1
  24   14   15 ar
  25   14   16 ar
  26   15   19 ar
  27   16   17 ar
  28   16   28 1
  29   17   18 ar
  30   18   19 ar
  31   18   29 1
  32   19   30 1
  33   24   31 1
  34   24   32 1
  35   24   33 1
  36   25   34 1
  37   25   35 1
  38   25   36 1
  39   26   37 1
  40   26   38 1
  41   26   39 1

#	End of record

