#	Name: ASD01901562
#	Creating user name:	WinNT
#	Creation time:	15. 06. 2019 19:54

#	Modifying user name:	WinNT
#	Modification time:	15. 06. 2019 19:54

#	Program:	/corina/corina34_cracker 3.40 0067  02.08.2006

@<TRIPOS>MOLECULE
ASD01901562
  38   42    0    0    0
SMALL
NO_CHARGES


@<TRIPOS>ATOM
   1 H1             0.3085    -1.1729     0.5236 H       
   2 C2             0.2000    -0.1116     0.3002 C.3     
   3 H3             1.1863     0.3455     0.2200 H       
   4 H4            -0.3338     0.0085    -0.6425 H       
   5 N5            -0.5538     0.5391     1.3747 N.pl3   
   6 N6            -1.9453     0.6843     1.4313 N.2     
   7 C7            -2.2790     1.3096     2.5225 C.2     
   8 C8            -3.6846     1.6546     2.9425 C.3     
   9 C9            -4.8033     1.4216     1.9250 C.3     
  10 C10           -4.6675     0.4984     3.1375 C.3     
  11 C11           -1.1022     1.6118     3.2502 C.ar    
  12 C12           -0.8618     2.2599     4.4689 C.ar    
  13 C13            0.4150     2.4037     4.9226 C.ar    
  14 C14            1.4920     1.9104     4.1836 C.ar    
  15 N15            2.7935     2.0673     4.6648 N.pl3   
  16 C16            3.8621     2.1704     3.7695 C.2     
  17 N17            3.7740     2.2388     2.4678 N.2     
  18 N18            5.0502     2.3342     1.9046 N.pl3   
  19 H19            5.2417     2.3973     0.9558 H       
  20 C20            5.9864     2.3253     2.9023 C.ar    
  21 N21            7.3125     2.3906     2.9154 N.ar    
  22 C22            7.9595     2.3585     4.0637 C.ar    
  23 C23            7.2662     2.2562     5.2637 C.ar    
  24 N24            5.9505     2.1902     5.2709 N.ar    
  25 C25            5.2825     2.2278     4.1211 C.ar    
  26 C26            1.2779     1.2667     2.9778 C.ar    
  27 C27           -0.0199     1.1070     2.5035 C.ar    
  28 H28           -3.7793     2.5132     3.6072 H       
  29 H29           -5.6341     2.1271     1.9201 H       
  30 H30           -4.5226     1.0188     0.9518 H       
  31 H31           -4.2975    -0.5117     2.9621 H       
  32 H32           -5.4091     0.5966     3.9304 H       
  33 H33           -1.6878     2.6454     5.0481 H       
  34 H34            0.5957     2.9042     5.8624 H       
  35 H35            2.9561     2.1047     5.6204 H       
  36 H36            9.0381     2.4118     4.0717 H       
  37 H37            7.8097     2.2302     6.1966 H       
  38 H38            2.1140     0.8867     2.4096 H       
@<TRIPOS>BOND
   1    1    2 1
   2    2    3 1
   3    2    4 1
   4    2    5 1
   5    5   27 1
   6    5    6 1
   7    6    7 2
   8    7    8 1
   9    7   11 1
  10    8   10 1
  11    8    9 1
  12    8   28 1
  13    9   10 1
  14    9   29 1
  15    9   30 1
  16   10   31 1
  17   10   32 1
  18   11   27 ar
  19   11   12 ar
  20   12   13 ar
  21   12   33 1
  22   13   14 ar
  23   13   34 1
  24   14   15 1
  25   14   26 ar
  26   15   16 1
  27   15   35 1
  28   16   25 1
  29   16   17 2
  30   17   18 1
  31   18   19 1
  32   18   20 1
  33   20   25 ar
  34   20   21 ar
  35   21   22 ar
  36   22   23 ar
  37   22   36 1
  38   23   24 ar
  39   23   37 1
  40   24   25 ar
  41   26   27 ar
  42   26   38 1

#	End of record

