#	Name: ASD01948147
#	Creating user name:	WinNT
#	Creation time:	15. 06. 2019 20:13

#	Modifying user name:	WinNT
#	Modification time:	15. 06. 2019 20:13

#	Program:	/corina/corina34_cracker 3.40 0067  02.08.2006

@<TRIPOS>MOLECULE
ASD01948147
  39   41    0    0    0
SMALL
NO_CHARGES


@<TRIPOS>ATOM
   1 C1             1.8005     1.4194    -1.0461 C.ar    
   2 C2             1.5988     0.0463    -1.1432 C.ar    
   3 C3             1.7726    -0.5930    -2.3629 C.ar    
   4 C4             2.1450     0.1352    -3.4766 C.ar    
   5 C5             2.3454     1.5000    -3.3780 C.ar    
   6 C6             2.1675     2.1428    -2.1656 C.ar    
   7 N7             1.2222    -0.6887    -0.0137 N.pl3   
   8 C8             3.6318    -2.2833    -0.4396 C.2     
   9 C9             2.3519    -2.8733    -0.2911 C.2     
  10 C10            1.1518    -2.0667    -0.0783 C.2     
  11 N11            4.6885    -3.1042    -0.6378 N.am    
  12 F12            1.6326     2.0458     0.1391 F       
  13 C13            2.2382    -4.2694    -0.3501 C.2     
  14 N14            1.0116    -4.8554    -0.2085 N.am    
  15 C15           -0.0978    -4.1235    -0.0125 C.2     
  16 C16           -0.0593    -2.7274     0.0571 C.2     
  17 C17            4.5115    -4.4453    -0.6900 C.2     
  18 N18            3.3414    -5.0049    -0.5450 N.2     
  19 O19            3.7752    -1.0742    -0.3952 O.2     
  20 C20            0.9042    -6.3151    -0.2718 C.3     
  21 O21           -1.1703    -4.6935     0.1074 O.2     
  22 I22            2.9114     2.5981    -5.0700 I       
  23 C23            6.0308    -2.5392    -0.7966 C.3     
  24 C24            6.7014    -2.4249     0.5738 C.3     
  25 O25            6.9030    -3.7316     1.1160 O.3     
  26 Cl26          -1.5208    -1.8261     0.3125 Cl      
  27 H27            1.6171    -1.6588    -2.4413 H       
  28 H28            2.2801    -0.3623    -4.4256 H       
  29 H29            2.3244     3.2087    -2.0918 H       
  30 H30            1.0105    -0.2305     0.8146 H       
  31 H31            5.3729    -5.0768    -0.8501 H       
  32 H32            1.0210    -6.7317     0.7286 H       
  33 H33           -0.0730    -6.5906    -0.6683 H       
  34 H34            1.6847    -6.7089    -0.9228 H       
  35 H35            6.6249    -3.1893    -1.4388 H       
  36 H36            5.9575    -1.5502    -1.2489 H       
  37 H37            7.6634    -1.9236     0.4669 H       
  38 H38            6.0636    -1.8481     1.2435 H       
  39 H39            7.3251    -3.7357     1.9860 H       
@<TRIPOS>BOND
   1    1    2 ar
   2    1   12 1
   3    1    6 ar
   4    2    3 ar
   5    2    7 1
   6    3    4 ar
   7    3   27 1
   8    4    5 ar
   9    4   28 1
  10    5    6 ar
  11    5   22 1
  12    6   29 1
  13    7   10 1
  14    7   30 1
  15    8    9 1
  16    8   19 2
  17    8   11 am
  18    9   10 1
  19    9   13 2
  20   10   16 2
  21   11   17 1
  22   11   23 1
  23   13   14 1
  24   13   18 1
  25   14   15 am
  26   14   20 1
  27   15   16 1
  28   15   21 2
  29   16   26 1
  30   17   18 2
  31   17   31 1
  32   20   32 1
  33   20   33 1
  34   20   34 1
  35   23   24 1
  36   23   35 1
  37   23   36 1
  38   24   25 1
  39   24   37 1
  40   24   38 1
  41   25   39 1

#	End of record

