#	Name: ASD02039084
#	Creating user name:	WinNT
#	Creation time:	15. 06. 2019 20:17

#	Modifying user name:	WinNT
#	Modification time:	15. 06. 2019 20:17

#	Program:	/corina/corina34_cracker 3.40 0067  02.08.2006

@<TRIPOS>MOLECULE
ASD02039084
  43   46    0    0    0
SMALL
NO_CHARGES


@<TRIPOS>ATOM
   1 N1             0.0235     1.2846    -0.3609 N.2     
   2 N2             0.0399    -0.0019    -0.3621 N.2     
   3 C3             1.2244     1.7332    -0.0876 C.2     
   4 O4             2.0204     0.6620     0.0883 O.3     
   5 C5             1.2410    -0.4221    -0.0920 C.2     
   6 N6             1.6034     3.0605     0.0028 N.pl3   
   7 C7             0.6393     4.0715    -0.0882 C.ar    
   8 C8             1.6807    -1.8604     0.0029 C.3     
   9 O9             2.1177    -2.3106    -1.2810 O.3     
  10 C10            2.5503    -3.5965    -1.3698 C.ar    
  11 C11            2.9858    -4.0925    -2.5824 C.ar    
  12 C12            2.5575    -4.4050    -0.2359 C.ar    
  13 C13            2.9933    -5.7099    -0.3070 C.ar    
  14 C14            3.4311    -6.2311    -1.5196 C.ar    
  15 C15            3.4300    -5.4159    -2.6673 C.ar    
  16 C16           -0.6626     3.8293     0.3297 C.ar    
  17 C17            0.9860     5.3187    -0.5911 C.ar    
  18 C18            0.0351     6.3166    -0.6801 C.ar    
  19 C19           -1.2662     6.0743    -0.2675 C.ar    
  20 C20           -1.6138     4.8288     0.2398 C.ar    
  21 N21            3.8710    -7.5361    -1.6116 N.am    
  22 C22            4.2944    -8.0424    -2.7828 C.2     
  23 C23            4.3085    -7.2681    -3.9627 C.2     
  24 C24            3.8932    -5.9776    -3.9377 C.2     
  25 O25            4.6760    -9.1992    -2.8268 O.2     
  26 F26           -2.8820     4.5928     0.6413 F       
  27 O27           -2.2016     7.0582    -0.3549 O.3     
  28 C28           -1.7732     8.3158    -0.8811 C.3     
  29 F29           -0.7547     8.8359    -0.0752 F       
  30 F30           -1.2927     8.1373    -2.1828 F       
  31 H31            2.5372     3.2907     0.1292 H       
  32 H32            2.5012    -1.9432     0.7156 H       
  33 H33            0.8448    -2.4745     0.3381 H       
  34 H34            2.9830    -3.4628    -3.4598 H       
  35 H35            2.2185    -4.0051     0.7082 H       
  36 H36            2.9952    -6.3278     0.5788 H       
  37 H37           -0.9321     2.8608     0.7244 H       
  38 H38            1.9995     5.5085    -0.9124 H       
  39 H39            0.3055     7.2864    -1.0710 H       
  40 H40            3.8751    -8.0960    -0.8195 H       
  41 H41            4.6549    -7.7040    -4.8881 H       
  42 H42            3.9005    -5.3782    -4.8360 H       
  43 H43           -2.6143     9.0089    -0.8961 H       
@<TRIPOS>BOND
   1    1    2 1
   2    1    3 2
   3    2    5 2
   4    3    4 1
   5    3    6 1
   6    4    5 1
   7    5    8 1
   8    6    7 1
   9    6   31 1
  10    7   16 ar
  11    7   17 ar
  12    8    9 1
  13    8   32 1
  14    8   33 1
  15    9   10 1
  16   10   11 ar
  17   10   12 ar
  18   11   15 ar
  19   11   34 1
  20   12   13 ar
  21   12   35 1
  22   13   14 ar
  23   13   36 1
  24   14   15 ar
  25   14   21 1
  26   15   24 1
  27   16   20 ar
  28   16   37 1
  29   17   18 ar
  30   17   38 1
  31   18   19 ar
  32   18   39 1
  33   19   20 ar
  34   19   27 1
  35   20   26 1
  36   21   22 am
  37   21   40 1
  38   22   23 1
  39   22   25 2
  40   23   24 2
  41   23   41 1
  42   24   42 1
  43   27   28 1
  44   28   29 1
  45   28   30 1
  46   28   43 1

#	End of record

