#	Name: ASD02560507
#	Creating user name:	WinNT
#	Creation time:	15. 06. 2019 20:25

#	Modifying user name:	WinNT
#	Modification time:	15. 06. 2019 20:25

#	Program:	/corina/corina34_cracker 3.40 0067  02.08.2006

@<TRIPOS>MOLECULE
ASD02560507
  42   44    0    0    0
SMALL
NO_CHARGES


@<TRIPOS>ATOM
   1 C1             0.1326     1.3900     1.0933 C.2     
   2 C2             0.1537    -0.0162     1.0821 C.2     
   3 C3             1.2831    -0.6783     0.7605 C.2     
   4 N4             2.4240     0.0062     0.4407 N.pl3   
   5 C5             2.4332     1.3821     0.4428 C.2     
   6 C6             1.2576     2.0850     0.7775 C.2     
   7 C7             3.6803    -0.4019     0.0839 C.2     
   8 C8             4.4199     0.7170    -0.1216 C.2     
   9 N9             3.6465     1.7858     0.1008 N.2     
  10 C10            5.8698     0.7503    -0.5313 C.3     
  11 N11            4.1201    -1.7252    -0.0446 N.3     
  12 C12            2.9997    -2.6669     0.0813 C.3     
  13 C13            6.0060     1.4864    -1.8656 C.3     
  14 C14            3.3327    -3.9823    -0.6444 C.3     
  15 C15            6.6855     1.4788     0.5386 C.3     
  16 C16            3.2994    -5.0953     0.4233 C.3     
  17 C17            2.3870    -4.5255     1.5376 C.3     
  18 C18            2.7758    -3.0265     1.5647 C.3     
  19 C19            1.2481     3.5920     0.7848 C.3     
  20 H20           -0.7756     1.9161     1.3476 H       
  21 H21           -0.7398    -0.5687     1.3328 H       
  22 H22            1.2876    -1.7583     0.7556 H       
  23 H23            6.2403    -0.2691    -0.6392 H       
  24 H24            4.6099    -1.8604    -0.9164 H       
  25 H25            2.0944    -2.2279    -0.3380 H       
  26 H26            5.6354     2.5058    -1.7577 H       
  27 H27            7.0546     1.5104    -2.1620 H       
  28 H28            5.4248     0.9674    -2.6279 H       
  29 H29            2.5884    -4.1821    -1.4153 H       
  30 H30            4.3256    -3.9219    -1.0901 H       
  31 H31            6.3149     2.4982     0.6466 H       
  32 H32            6.5884     0.9543     1.4893 H       
  33 H33            7.7341     1.5028     0.2423 H       
  34 H34            2.8714    -6.0083     0.0094 H       
  35 H35            4.3012    -5.2834     0.8095 H       
  36 H36            1.3358    -4.6473     1.2761 H       
  37 H37            2.6052    -4.9985     2.4951 H       
  38 H38            3.6930    -2.8805     2.1352 H       
  39 H39            1.9657    -2.4297     1.9838 H       
  40 H40            0.9660     3.9583    -0.2023 H       
  41 H41            0.5294     3.9472     1.5233 H       
  42 H42            2.2421     3.9604     1.0387 H       
@<TRIPOS>BOND
   1    1    2 1
   2    1    6 2
   3    1   20 1
   4    2    3 2
   5    2   21 1
   6    3    4 1
   7    3   22 1
   8    4    5 1
   9    4    7 1
  10    5    6 1
  11    5    9 2
  12    6   19 1
  13    7    8 2
  14    7   11 1
  15    8    9 1
  16    8   10 1
  17   10   13 1
  18   10   15 1
  19   10   23 1
  20   11   12 1
  21   11   24 1
  22   12   14 1
  23   12   18 1
  24   12   25 1
  25   13   26 1
  26   13   27 1
  27   13   28 1
  28   14   16 1
  29   14   29 1
  30   14   30 1
  31   15   31 1
  32   15   32 1
  33   15   33 1
  34   16   17 1
  35   16   34 1
  36   16   35 1
  37   17   18 1
  38   17   36 1
  39   17   37 1
  40   18   38 1
  41   18   39 1
  42   19   40 1
  43   19   41 1
  44   19   42 1

#	End of record

