#	Name: ASD03091020
#	Creating user name:	WinNT
#	Creation time:	15. 06. 2019 20:29

#	Modifying user name:	WinNT
#	Modification time:	15. 06. 2019 20:29

#	Program:	/corina/corina34_cracker 3.40 0067  02.08.2006

@<TRIPOS>MOLECULE
ASD03091020
  42   45    0    0    0
SMALL
NO_CHARGES


@<TRIPOS>ATOM
   1 N1            -1.8617    -2.0933     1.7841 N.am    
   2 C2            -0.9100    -1.7120     0.8809 C.2     
   3 C3            -1.1102    -0.7182     0.0009 C.2     
   4 C4            -2.3907    -0.0077    -0.0037 C.ar    
   5 C5            -3.3786    -0.3994     0.9290 C.ar    
   6 C6            -3.0702    -1.5000     1.8490 C.2     
   7 O7            -3.8939    -1.8681     2.6672 O.2     
   8 C8            -2.6530     1.0334    -0.8961 C.ar    
   9 C9            -3.8625     1.6667    -0.8622 C.ar    
  10 C10           -4.8427     1.2868     0.0552 C.ar    
  11 C11           -4.6081     0.2576     0.9503 C.ar    
  12 N12           -6.0722     1.9510     0.0701 N.3     
  13 C13           -6.2988     2.6221     1.3755 C.3     
  14 C14           -7.1980     0.9894    -0.0456 C.3     
  15 C15           -8.4213     1.7497     0.5075 C.3     
  16 C16           -7.8257     2.8312     1.4488 C.3     
  17 C17           -9.2136     0.8081     1.4381 C.3     
  18 N18           -9.5421     1.6389     2.6245 N.3     
  19 C19           -8.3143     2.4408     2.8592 C.3     
  20 C20           -9.8512     0.7966     3.7877 C.3     
  21 C21           -1.5606    -3.1883     2.7095 C.3     
  22 H22            0.0383    -2.2288     0.8750 H       
  23 H23           -0.3333    -0.4448    -0.6977 H       
  24 H24           -1.9020     1.3371    -1.6104 H       
  25 H25           -4.0625     2.4718    -1.5537 H       
  26 H26           -5.3696    -0.0333     1.6587 H       
  27 H27           -5.9631     1.9847     2.1935 H       
  28 H28           -5.7823     3.5816     1.4039 H       
  29 H29           -7.3596     0.7176    -1.0887 H       
  30 H30           -7.0010     0.1002     0.5532 H       
  31 H31           -9.0362     2.1782    -0.2839 H       
  32 H32           -8.1204     3.8410     1.1634 H       
  33 H33          -10.1260     0.4688     0.9476 H       
  34 H34           -8.5988    -0.0436     1.7293 H       
  35 H35           -7.5608     1.8409     3.3696 H       
  36 H36           -8.5486     3.3327     3.4403 H       
  37 H37           -8.9885     0.1741     4.0250 H       
  38 H38          -10.0882     1.4302     4.6423 H       
  39 H39          -10.7063     0.1605     3.5588 H       
  40 H40           -0.5519    -3.5561     2.5213 H       
  41 H41           -1.6299    -2.8265     3.7354 H       
  42 H42           -2.2759    -3.9972     2.5604 H       
@<TRIPOS>BOND
   1    1    2 1
   2    1   21 1
   3    1    6 am
   4    2    3 2
   5    2   22 1
   6    3    4 1
   7    3   23 1
   8    4    5 ar
   9    4    8 ar
  10    5    6 1
  11    5   11 ar
  12    6    7 2
  13    8    9 ar
  14    8   24 1
  15    9   10 ar
  16    9   25 1
  17   10   11 ar
  18   10   12 1
  19   11   26 1
  20   12   14 1
  21   12   13 1
  22   13   16 1
  23   13   27 1
  24   13   28 1
  25   14   15 1
  26   14   29 1
  27   14   30 1
  28   15   16 1
  29   15   17 1
  30   15   31 1
  31   16   19 1
  32   16   32 1
  33   17   18 1
  34   17   33 1
  35   17   34 1
  36   18   19 1
  37   18   20 1
  38   19   35 1
  39   19   36 1
  40   20   37 1
  41   20   38 1
  42   20   39 1
  43   21   40 1
  44   21   41 1
  45   21   42 1

#	End of record

