#	Name: ASD02398021
#	Creating user name:	WinNT
#	Creation time:	15. 06. 2019 20:20

#	Modifying user name:	WinNT
#	Modification time:	15. 06. 2019 20:20

#	Program:	/corina/corina34_cracker 3.40 0067  02.08.2006

@<TRIPOS>MOLECULE
ASD02398021
  60   63    0    0    0
SMALL
NO_CHARGES


@<TRIPOS>ATOM
   1 C1            -0.0169     1.3942     0.0097 C.ar    
   2 C2             0.0021    -0.0041     0.0020 C.ar    
   3 C3            -1.1981    -0.7105     0.0102 C.ar    
   4 C4            -2.3984    -0.0288     0.0258 C.ar    
   5 C5            -2.4141     1.3545     0.0333 C.ar    
   6 C6            -1.2286     2.0654     0.0307 C.ar    
   7 C7            -3.6965    -0.7944     0.0341 C.3     
   8 C8            -4.1153    -1.0577     1.4576 C.2     
   9 O9            -3.4300    -0.6641     2.3716 O.2     
  10 O10           -5.2496    -1.7295     1.7101 O.3     
  11 C11            1.2946    -0.7315    -0.0152 C.ar    
  12 C12            2.1654    -0.6364     1.0690 C.ar    
  13 C13            1.6403    -1.5171    -1.1130 C.ar    
  14 C14            2.8442    -2.1923    -1.1234 C.ar    
  15 C15            3.7067    -2.0901    -0.0471 C.ar    
  16 C16            3.3663    -1.3157     1.0477 C.ar    
  17 C17            1.7962     0.2071     2.2620 C.3     
  18 N18            0.8700    -0.5376     3.1188 N.am    
  19 C19            1.2211    -1.3463     4.1279 C.2     
  20 O20            0.1830    -1.9088     4.7567 O.3     
  21 C21           -1.0590    -1.4621     4.1395 C.3     
  22 C22           -0.5971    -0.5144     3.0156 C.3     
  23 O23            2.3768    -1.5504     4.4428 O.2     
  24 C24           -1.1369     0.8982     3.2480 C.3     
  25 C25           -1.9067    -0.7166     5.1378 C.ar    
  26 C26           -3.2792    -0.8812     5.1385 C.ar    
  27 C27           -1.3113     0.1273     6.0566 C.ar    
  28 C28           -2.0890     0.8111     6.9724 C.ar    
  29 C29           -3.4620     0.6512     6.9691 C.ar    
  30 C30           -4.0569    -0.1974     6.0542 C.ar    
  31 O31            1.1487     2.0917     0.0023 O.3     
  32 C32            1.0517     3.5174     0.0109 C.3     
  33 C33            5.0194    -2.8300    -0.0641 C.3     
  34 F34            5.1371    -3.5433    -1.2618 F       
  35 F35            6.0722    -1.9143     0.0386 F       
  36 F36            5.0677    -3.7191     1.0149 F       
  37 H37           -1.1897    -1.7904     0.0039 H       
  38 H38           -3.3568     1.8813     0.0456 H       
  39 H39           -1.2472     3.1452     0.0366 H       
  40 H40           -4.4665    -0.2095    -0.4689 H       
  41 H41           -3.5624    -1.7426    -0.4865 H       
  42 H42           -5.4767    -1.8741     2.6389 H       
  43 H43            0.9674    -1.5979    -1.9538 H       
  44 H44            3.1131    -2.8017    -1.9735 H       
  45 H45            4.0436    -1.2395     1.8855 H       
  46 H46            2.6960     0.4519     2.8263 H       
  47 H47            1.3184     1.1263     1.9232 H       
  48 H48           -1.6075    -2.3093     3.7280 H       
  49 H49           -0.9136    -0.8911     2.0430 H       
  50 H50           -0.7687     1.2755     4.2020 H       
  51 H51           -0.8001     1.5527     2.4441 H       
  52 H52           -2.2265     0.8728     3.2634 H       
  53 H53           -3.7440    -1.5436     4.4233 H       
  54 H54           -0.2386     0.2522     6.0592 H       
  55 H55           -1.6237     1.4699     7.6907 H       
  56 H56           -4.0696     1.1852     7.6848 H       
  57 H57           -5.1296    -0.3223     6.0516 H       
  58 H58            2.0522     3.9498     0.0037 H       
  59 H59            0.5059     3.8497    -0.8721 H       
  60 H60            0.5228     3.8402     0.9077 H       
@<TRIPOS>BOND
   1    1    2 ar
   2    1   31 1
   3    1    6 ar
   4    2    3 ar
   5    2   11 1
   6    3    4 ar
   7    3   37 1
   8    4    5 ar
   9    4    7 1
  10    5    6 ar
  11    5   38 1
  12    6   39 1
  13    7    8 1
  14    7   40 1
  15    7   41 1
  16    8    9 2
  17    8   10 1
  18   10   42 1
  19   11   12 ar
  20   11   13 ar
  21   12   17 1
  22   12   16 ar
  23   13   14 ar
  24   13   43 1
  25   14   15 ar
  26   14   44 1
  27   15   16 ar
  28   15   33 1
  29   16   45 1
  30   17   18 1
  31   17   46 1
  32   17   47 1
  33   18   19 am
  34   18   22 1
  35   19   20 1
  36   19   23 2
  37   20   21 1
  38   21   22 1
  39   21   25 1
  40   21   48 1
  41   22   24 1
  42   22   49 1
  43   24   50 1
  44   24   51 1
  45   24   52 1
  46   25   26 ar
  47   25   27 ar
  48   26   30 ar
  49   26   53 1
  50   27   28 ar
  51   27   54 1
  52   28   29 ar
  53   28   55 1
  54   29   30 ar
  55   29   56 1
  56   30   57 1
  57   31   32 1
  58   32   58 1
  59   32   59 1
  60   32   60 1
  61   33   34 1
  62   33   35 1
  63   33   36 1

#	End of record

