#	Name: ASD09890070
#	Creating user name:	WinNT
#	Creation time:	15. 06. 2019 21:24

#	Modifying user name:	WinNT
#	Modification time:	15. 06. 2019 21:24

#	Program:	/corina/corina34_cracker 3.40 0067  02.08.2006

@<TRIPOS>MOLECULE
ASD09890070
  42   45    0    0    0
SMALL
NO_CHARGES


@<TRIPOS>ATOM
   1 C1            -0.0176     1.3671     0.0631 C.2     
   2 N2            -0.0054    -0.0002     0.0334 N.pl3   
   3 C3            -1.2996    -0.4352     0.1154 C.2     
   4 N4            -2.0760     0.6192     0.1923 N.2     
   5 N5            -1.2621     1.7591     0.1648 N.2     
   6 S6            -1.8302    -2.1154     0.1174 S.3     
   7 C7            -3.6340    -1.9736     0.2474 C.3     
   8 C8             1.1337    -0.8132    -0.0643 C.ar    
   9 C9             2.0772    -0.8326     0.9587 C.ar    
  10 C10            3.1854    -1.6521     0.8167 C.ar    
  11 C11            3.3170    -2.4173    -0.3268 C.ar    
  12 N12            2.4047    -2.3756    -1.2784 N.ar    
  13 C13            1.3333    -1.6144    -1.1803 C.ar    
  14 C14           -4.2814    -3.3651     0.1374 C.3     
  15 C15           -5.0400    -3.6041     1.4592 C.3     
  16 C16           -5.3176    -2.1797     2.0007 C.3     
  17 C17           -4.0217    -1.4154     1.6323 C.3     
  18 O18            1.0702     2.1752     0.0035 O.3     
  19 C19            0.8650     3.5150    -0.0919 C.ar    
  20 C20           -0.4174     4.0099    -0.2838 C.ar    
  21 C21            1.9363     4.3908     0.0081 C.ar    
  22 C22            1.7246     5.7535    -0.0889 C.ar    
  23 C23            0.4458     6.2434    -0.2854 C.ar    
  24 C24           -0.6238     5.3722    -0.3800 C.ar    
  25 Br25           3.1838     6.9485     0.0478 Br      
  26 H26           -4.0146    -1.3215    -0.5387 H       
  27 H27            1.9488    -0.2237     1.8414 H       
  28 H28            3.9379    -1.6922     1.5903 H       
  29 H29            4.1787    -3.0578    -0.4429 H       
  30 H30            0.6078    -1.6070    -1.9803 H       
  31 H31           -4.9769    -3.3881    -0.7016 H       
  32 H32           -3.5118    -4.1257     0.0058 H       
  33 H33           -5.9761    -4.1302     1.2722 H       
  34 H34           -4.4198    -4.1641     2.1591 H       
  35 H35           -6.1810    -1.7386     1.5026 H       
  36 H36           -5.4613    -2.1983     3.0810 H       
  37 H37           -3.2370    -1.6220     2.3602 H       
  38 H38           -4.2146    -0.3444     1.5716 H       
  39 H39           -1.2534     3.3302    -0.3581 H       
  40 H40            2.9345     4.0084     0.1618 H       
  41 H41            0.2821     7.3083    -0.3606 H       
  42 H42           -1.6211     5.7572    -0.5338 H       
@<TRIPOS>BOND
   1    1    2 1
   2    1   18 1
   3    1    5 2
   4    2    3 1
   5    2    8 1
   6    3    4 2
   7    3    6 1
   8    4    5 1
   9    6    7 1
  10    7   14 1
  11    7   17 1
  12    7   26 1
  13    8    9 ar
  14    8   13 ar
  15    9   10 ar
  16    9   27 1
  17   10   11 ar
  18   10   28 1
  19   11   12 ar
  20   11   29 1
  21   12   13 ar
  22   13   30 1
  23   14   15 1
  24   14   31 1
  25   14   32 1
  26   15   16 1
  27   15   33 1
  28   15   34 1
  29   16   17 1
  30   16   35 1
  31   16   36 1
  32   17   37 1
  33   17   38 1
  34   18   19 1
  35   19   20 ar
  36   19   21 ar
  37   20   24 ar
  38   20   39 1
  39   21   22 ar
  40   21   40 1
  41   22   23 ar
  42   22   25 1
  43   23   24 ar
  44   23   41 1
  45   24   42 1

#	End of record

