#	Name: ASD08070688
#	Creating user name:	WinNT
#	Creation time:	15. 06. 2019 21:15

#	Modifying user name:	WinNT
#	Modification time:	15. 06. 2019 21:15

#	Program:	/corina/corina34_cracker 3.40 0067  02.08.2006

@<TRIPOS>MOLECULE
ASD08070688
  40   40    0    0    0
SMALL
NO_CHARGES


@<TRIPOS>ATOM
   1 C1            -0.0184     1.5028     0.0103 C.2     
   2 C2             0.0021    -0.0041     0.0020 C.3     
   3 C3            -0.7241    -0.5171    -1.2431 C.3     
   4 C4            -0.8126    -2.0436    -1.1892 C.3     
   5 C5            -1.6900    -2.4622    -0.0077 C.3     
   6 O6             1.0197     2.1211     0.0037 O.2     
   7 O7            -1.1898     2.1580     0.0194 O.3     
   8 C8            -1.4263    -2.5652    -2.4901 C.3     
   9 C9             1.6937    -1.6942     0.4701 C.2     
  10 O10            0.8155    -2.4064     0.9201 O.2     
  11 N11            1.3897    -0.4735    -0.0138 N.am    
  12 O12            4.1465    -1.4784    -0.0131 O.3     
  13 C13            5.2526    -2.2190     0.1344 C.2     
  14 C14            4.9141    -3.3978     0.7017 C.2     
  15 C15            3.5263    -3.3723     0.9105 C.2     
  16 C16            3.0828    -2.1642     0.4543 C.2     
  17 C17            5.8505    -4.5275     1.0452 C.3     
  18 C18            6.6453    -1.8058    -0.2664 C.3     
  19 C19           -1.1335     3.6089     0.0270 C.3     
  20 H20           -0.4983    -0.3791     0.8948 H       
  21 H21           -1.7288    -0.0959    -1.2772 H       
  22 H22           -0.1736    -0.2164    -2.1345 H       
  23 H23            0.1866    -2.4614    -1.0657 H       
  24 H24           -2.6891    -2.0444    -0.1312 H       
  25 H25           -1.7530    -3.5497     0.0307 H       
  26 H26           -1.2528    -2.0906     0.9191 H       
  27 H27           -0.8012    -2.2670    -3.3318 H       
  28 H28           -1.4893    -3.6527    -2.4517 H       
  29 H29           -2.4254    -2.1474    -2.6135 H       
  30 H30            2.0897     0.0941    -0.3724 H       
  31 H31            2.9257    -4.1564     1.3474 H       
  32 H32            6.2243    -4.3937     2.0603 H       
  33 H33            5.3168    -5.4754     0.9766 H       
  34 H34            6.6876    -4.5305     0.3472 H       
  35 H35            6.6175    -0.8051    -0.6976 H       
  36 H36            7.2910    -1.8051     0.6118 H       
  37 H37            7.0349    -2.5082    -1.0033 H       
  38 H38           -0.6017     3.9472     0.9164 H       
  39 H39           -0.6102     3.9569    -0.8636 H       
  40 H40           -2.1463     4.0118     0.0340 H       
@<TRIPOS>BOND
   1    1    2 1
   2    1    6 2
   3    1    7 1
   4    2    3 1
   5    2   11 1
   6    2   20 1
   7    3    4 1
   8    3   21 1
   9    3   22 1
  10    4    5 1
  11    4    8 1
  12    4   23 1
  13    5   24 1
  14    5   25 1
  15    5   26 1
  16    7   19 1
  17    8   27 1
  18    8   28 1
  19    8   29 1
  20    9   10 2
  21    9   11 am
  22    9   16 1
  23   11   30 1
  24   12   13 1
  25   12   16 1
  26   13   14 2
  27   13   18 1
  28   14   15 1
  29   14   17 1
  30   15   16 2
  31   15   31 1
  32   17   32 1
  33   17   33 1
  34   17   34 1
  35   18   35 1
  36   18   36 1
  37   18   37 1
  38   19   38 1
  39   19   39 1
  40   19   40 1

#	End of record

