#	Name: ASD01940459
#	Creating user name:	WinNT
#	Creation time:	15. 06. 2019 20:12

#	Modifying user name:	WinNT
#	Modification time:	15. 06. 2019 20:12

#	Program:	/corina/corina34_cracker 3.40 0067  02.08.2006

@<TRIPOS>MOLECULE
ASD01940459
  46   49    0    0    0
SMALL
NO_CHARGES


@<TRIPOS>ATOM
   1 N1             1.4265     2.4672    -2.4553 N.am    
   2 N2             1.9217     1.4197    -3.2411 N.2     
   3 C3             2.7218     0.6783    -2.5309 C.2     
   4 C4             2.7903     1.2140    -1.2230 C.ar    
   5 C5             3.4825     0.8370    -0.0582 C.ar    
   6 C6             3.3309     1.6010     1.1052 C.ar    
   7 C7             2.4944     2.7301     1.1010 C.ar    
   8 C8             1.8251     3.0937    -0.0255 C.ar    
   9 C9             1.9596     2.3487    -1.2007 C.ar    
  10 C10            4.0468     1.2216     2.3316 C.2     
  11 O11            4.6996     0.1966     2.3620 O.2     
  12 O12            3.9794     2.0104     3.4228 O.3     
  13 S13            0.3819     3.6493    -2.9591 S.o2    
  14 O14            0.5766     4.7548    -2.0877 O.2     
  15 O15            0.5256     3.7371    -4.3701 O.2     
  16 C16           -3.8173     2.1421    -2.1933 C.ar    
  17 C17           -1.2526     3.0626    -2.6610 C.ar    
  18 C18           -3.1517     2.8597    -1.2171 C.ar    
  19 C19           -3.2005     1.8848    -3.4034 C.ar    
  20 C20           -1.8694     3.3199    -1.4509 C.ar    
  21 C21           -1.9182     2.3451    -3.6372 C.ar    
  22 C22           -5.2129     1.6350    -1.9360 C.3     
  23 N23            4.3037    -0.2767    -0.0618 N.pl3   
  24 C24            3.8080    -1.5126     0.3669 C.ar    
  25 C25            4.5920    -2.6563     0.2516 C.ar    
  26 C26            4.0986    -3.8756     0.6768 C.ar    
  27 C27            2.8270    -3.9583     1.2163 C.ar    
  28 C28            2.0462    -2.8227     1.3318 C.ar    
  29 C29            2.5351    -1.5999     0.9136 C.ar    
  30 I30            2.0827    -5.8082     1.8590 I       
  31 F31            5.8333    -2.5753    -0.2756 F       
  32 H32            3.2456    -0.1988    -2.8812 H       
  33 H33            2.3816     3.3150     2.0019 H       
  34 H34            1.1854     3.9637    -0.0122 H       
  35 H35            4.4668     1.7194     4.2056 H       
  36 H36           -3.6337     3.0610    -0.2718 H       
  37 H37           -3.7204     1.3239    -4.1659 H       
  38 H38           -1.3495     3.8808    -0.6883 H       
  39 H39           -1.4365     2.1444    -4.5828 H       
  40 H40           -5.9365     2.3863    -2.2522 H       
  41 H41           -5.3747     0.7154    -2.4983 H       
  42 H42           -5.3368     1.4365    -0.8714 H       
  43 H43            5.2230    -0.2004    -0.3616 H       
  44 H44            4.7058    -4.7642     0.5877 H       
  45 H45            1.0542    -2.8911     1.7533 H       
  46 H46            1.9259    -0.7132     1.0085 H       
@<TRIPOS>BOND
   1    1    2 1
   2    1    9 1
   3    1   13 am
   4    2    3 2
   5    3    4 1
   6    3   32 1
   7    4    5 ar
   8    4    9 ar
   9    5    6 ar
  10    5   23 1
  11    6    7 ar
  12    6   10 1
  13    7    8 ar
  14    7   33 1
  15    8    9 ar
  16    8   34 1
  17   10   11 2
  18   10   12 1
  19   12   35 1
  20   13   14 2
  21   13   15 2
  22   13   17 1
  23   16   18 ar
  24   16   19 ar
  25   16   22 1
  26   17   20 ar
  27   17   21 ar
  28   18   20 ar
  29   18   36 1
  30   19   21 ar
  31   19   37 1
  32   20   38 1
  33   21   39 1
  34   22   40 1
  35   22   41 1
  36   22   42 1
  37   23   24 1
  38   23   43 1
  39   24   25 ar
  40   24   29 ar
  41   25   26 ar
  42   25   31 1
  43   26   27 ar
  44   26   44 1
  45   27   28 ar
  46   27   30 1
  47   28   29 ar
  48   28   45 1
  49   29   46 1

#	End of record

