#	Name: ASD01140482
#	Creating user name:	WinNT
#	Creation time:	15. 06. 2019 19:00

#	Modifying user name:	WinNT
#	Modification time:	15. 06. 2019 19:00

#	Program:	/corina/corina34_cracker 3.40 0067  02.08.2006

@<TRIPOS>MOLECULE
ASD01140482
  39   43    0    0    0
SMALL
NO_CHARGES


@<TRIPOS>ATOM
   1 C1            -0.0159     1.3211     0.0093 C.ar    
   2 N2             0.0021    -0.0041     0.0020 N.ar    
   3 C3             1.1416    -0.6713    -0.0124 C.ar    
   4 N4             2.3060    -0.0653    -0.0203 N.ar    
   5 C5             1.2146     2.0244     0.0013 C.ar    
   6 C6             1.4821     3.4569     0.0057 C.2     
   7 C7             2.3897     1.2719    -0.0139 C.ar    
   8 S8             3.7840     2.3416    -0.0209 S.3     
   9 C9             2.7753     3.7754    -0.0055 C.2     
  10 C10            0.4047     4.4749     0.0208 C.ar    
  11 C11            0.4376     5.5143     0.9495 C.ar    
  12 C12           -0.5676     6.4594     0.9597 C.ar    
  13 C13           -1.6086     6.3766     0.0494 C.ar    
  14 C14           -1.6457     5.3456    -0.8754 C.ar    
  15 C15           -0.6418     4.3993    -0.8974 C.ar    
  16 S16           -1.5458     2.1950     0.0213 S.3     
  17 C17           -2.6722     0.8401     0.0194 C.2     
  18 N18           -4.4716    -0.4164     0.0211 N.2     
  19 N19           -3.4194    -1.1610     0.0159 N.2     
  20 N20           -2.3588    -0.4372     0.0167 N.2     
  21 N21           -4.0266     0.9172     0.0262 N.pl3   
  22 C22           -4.8136     2.0777     0.0363 C.ar    
  23 C23           -6.0218     2.1046    -0.6470 C.ar    
  24 C24           -6.7949     3.2492    -0.6353 C.ar    
  25 C25           -6.3664     4.3675     0.0561 C.ar    
  26 C26           -5.1635     4.3436     0.7376 C.ar    
  27 C27           -4.3888     3.2001     0.7343 C.ar    
  28 F28           -2.5911     7.3038     0.0638 F       
  29 H29            1.1146    -1.7510    -0.0176 H       
  30 H30            3.1539     4.7868    -0.0043 H       
  31 H31            1.2484     5.5793     1.6600 H       
  32 H32           -0.5429     7.2649     1.6788 H       
  33 H33           -2.4594     5.2849    -1.5828 H       
  34 H34           -0.6690     3.5987    -1.6217 H       
  35 H35           -6.3568     1.2316    -1.1874 H       
  36 H36           -7.7347     3.2709    -1.1669 H       
  37 H37           -6.9724     5.2614     0.0635 H       
  38 H38           -4.8313     5.2187     1.2764 H       
  39 H39           -3.4517     3.1805     1.2707 H       
@<TRIPOS>BOND
   1    1    2 ar
   2    1    5 ar
   3    1   16 1
   4    2    3 ar
   5    3    4 ar
   6    3   29 1
   7    4    7 ar
   8    5    7 ar
   9    5    6 1
  10    6    9 2
  11    6   10 1
  12    7    8 1
  13    8    9 1
  14    9   30 1
  15   10   11 ar
  16   10   15 ar
  17   11   12 ar
  18   11   31 1
  19   12   13 ar
  20   12   32 1
  21   13   14 ar
  22   13   28 1
  23   14   15 ar
  24   14   33 1
  25   15   34 1
  26   16   17 1
  27   17   21 1
  28   17   20 2
  29   18   19 2
  30   18   21 1
  31   19   20 1
  32   21   22 1
  33   22   23 ar
  34   22   27 ar
  35   23   24 ar
  36   23   35 1
  37   24   25 ar
  38   24   36 1
  39   25   26 ar
  40   25   37 1
  41   26   27 ar
  42   26   38 1
  43   27   39 1

#	End of record

