#	Name: ASD00840923
#	Creating user name:	WinNT
#	Creation time:	15. 06. 2019 18:40

#	Modifying user name:	WinNT
#	Modification time:	15. 06. 2019 18:40

#	Program:	/corina/corina34_cracker 3.40 0067  02.08.2006

@<TRIPOS>MOLECULE
ASD00840923
 100  105    0    0    0
SMALL
NO_CHARGES


@<TRIPOS>ATOM
   1 F1             6.0041    -1.9453    -2.0997 F       
   2 N2             0.9758     1.4238    -0.8201 N.ar    
   3 C3             1.2528     0.1335    -0.9061 C.ar    
   4 C4             1.1969    -0.6789     0.2194 C.ar    
   5 C5             0.8468    -0.1205     1.4361 C.ar    
   6 C6             0.5635     1.2377     1.4842 C.ar    
   7 C7             0.6390     1.9848     0.3258 C.ar    
   8 C8             1.5129    -2.1489     0.1165 C.3     
   9 C9             1.2571    -2.8401     1.4388 C.2     
  10 C10            0.6861    -2.7969    -0.9959 C.3     
  11 C11           -0.7757    -2.5117    -0.7663 C.2     
  12 N12           -1.7033    -3.0467    -1.5848 N.am    
  13 O13           -1.1176    -1.8009     0.1550 O.2     
  14 C14           -3.1208    -2.6858    -1.4470 C.3     
  15 C15           -3.9451    -3.9694    -1.3075 C.3     
  16 C16           -3.6442    -4.8951    -2.4885 C.3     
  17 C17           -2.1606    -5.2704    -2.4795 C.3     
  18 C18           -1.3153    -3.9972    -2.6359 C.3     
  19 N19           -4.4578    -6.1129    -2.3754 N.3     
  20 C20           -4.2840    -6.9737    -3.5538 C.3     
  21 C21           -5.0837    -8.2644    -3.3618 C.3     
  22 N22           -6.5012    -7.9339    -3.1591 N.3     
  23 C23           -6.6750    -7.0732    -1.9807 C.3     
  24 C24           -5.8753    -5.7824    -2.1727 C.3     
  25 C25           -7.3148    -9.1518    -3.0460 C.3     
  26 O26            0.1935    -2.9189     2.0165 O.2     
  27 N27            2.4293    -3.3503     1.8520 N.am    
  28 C28            2.9899    -2.3571    -0.1278 C.ar    
  29 C29            3.4666    -3.0846     0.9555 C.ar    
  30 C30            3.8323    -1.9754    -1.1478 C.ar    
  31 C31            5.1741    -2.3174    -1.1007 C.ar    
  32 C32            5.6619    -3.0435    -0.0247 C.ar    
  33 C33            4.8163    -3.4263     0.9987 C.ar    
  34 F34            6.9700    -3.3780     0.0232 F       
  35 C35            2.3464    -5.8970     2.8924 C.ar    
  36 C36            1.0916    -6.3220     2.4801 C.ar    
  37 C37            3.3816    -6.8053     3.0075 C.ar    
  38 C38            3.1701    -8.1382     2.7121 C.ar    
  39 C39            1.9167    -8.5683     2.2994 C.ar    
  40 C40            0.8767    -7.6593     2.1835 C.ar    
  41 O41            1.7092    -9.8797     2.0094 O.3     
  42 O42            0.0739    -5.4284     2.3675 O.3     
  43 C43            2.8258   -10.7601     2.1513 C.3     
  44 C44           -1.1908    -5.9363     1.9377 C.3     
  45 C45           -2.2040    -4.7918     1.8712 C.3     
  46 C46           -8.7276    -8.7808    -2.5909 C.3     
  47 C47           -9.5750   -10.0493    -2.4731 C.3     
  48 S48            2.6221    -4.1965     3.2624 S.o2    
  49 O49            3.9935    -4.0800     3.6160 O.2     
  50 O50            1.5618    -3.7952     4.1192 O.2     
  51 O51            1.5943    -0.4020    -2.1050 O.3     
  52 C52            2.0554    -0.2792    -4.4742 C.3     
  53 C53            1.5252     0.4590    -3.2434 C.3     
  54 H54            0.7948    -0.7275     2.3279 H       
  55 H55            0.2868     1.7048     2.4178 H       
  56 H56            0.4199     3.0419     0.3579 H       
  57 H57            0.9893    -2.3874    -1.9595 H       
  58 H58            0.8514    -3.8743    -0.9908 H       
  59 H59           -3.2557    -2.0667    -0.5601 H       
  60 H60           -3.4458    -2.1371    -2.3310 H       
  61 H61           -3.6826    -4.4710    -0.3760 H       
  62 H62           -5.0065    -3.7213    -1.3009 H       
  63 H63           -3.8838    -4.3838    -3.4208 H       
  64 H64           -1.9148    -5.7597    -1.5370 H       
  65 H65           -1.9518    -5.9483    -3.3071 H       
  66 H66           -1.4943    -3.5581    -3.6173 H       
  67 H67           -0.2589    -4.2448    -2.5312 H       
  68 H68           -4.6429    -6.4521    -4.4412 H       
  69 H69           -3.2280    -7.2148    -3.6755 H       
  70 H70           -4.9796    -8.8918    -4.2471 H       
  71 H71           -4.7068    -8.7995    -2.4902 H       
  72 H72           -7.7310    -6.8321    -1.8590 H       
  73 H73           -6.3161    -7.5947    -1.0933 H       
  74 H74           -5.9794    -5.1550    -1.2874 H       
  75 H75           -6.2522    -5.2474    -3.0443 H       
  76 H76           -7.3638    -9.6473    -4.0157 H       
  77 H77           -6.8629    -9.8242    -2.3168 H       
  78 H78            3.4474    -1.4103    -1.9839 H       
  79 H79            5.2026    -3.9913     1.8340 H       
  80 H80            4.3576    -6.4725     3.3285 H       
  81 H81            3.9809    -8.8460     2.8022 H       
  82 H82           -0.0994    -7.9922     1.8628 H       
  83 H83            2.5245   -11.7743     1.8893 H       
  84 H84            3.6294   -10.4374     1.4894 H       
  85 H85            3.1753   -10.7401     3.1836 H       
  86 H86           -1.0853    -6.3860     0.9504 H       
  87 H87           -1.5391    -6.6894     2.6446 H       
  88 H88           -2.3096    -4.3422     2.8585 H       
  89 H89           -1.8557    -4.0388     1.1644 H       
  90 H90           -3.1687    -5.1792     1.5434 H       
  91 H91           -8.6786    -8.2853    -1.6212 H       
  92 H92           -9.1795    -8.1084    -3.3201 H       
  93 H93           -9.6241   -10.5448    -3.4427 H       
  94 H94           -9.1232   -10.7217    -1.7439 H       
  95 H95          -10.5816    -9.7850    -2.1488 H       
  96 H96            3.0603    -0.6495    -4.2709 H       
  97 H97            1.3990    -1.1181    -4.7054 H       
  98 H98            2.0847     0.4039    -5.3230 H       
  99 H99            0.4896     0.7530    -3.4143 H       
 100 H100           2.1304     1.3477    -3.0641 H       
@<TRIPOS>BOND
   1    1   31 1
   2    2    3 ar
   3    2    7 ar
   4    3    4 ar
   5    3   51 1
   6    4    5 ar
   7    4    8 1
   8    5    6 ar
   9    5   54 1
  10    6    7 ar
  11    6   55 1
  12    7   56 1
  13    8    9 1
  14    8   10 1
  15    8   28 1
  16    9   26 2
  17    9   27 am
  18   10   11 1
  19   10   57 1
  20   10   58 1
  21   11   12 am
  22   11   13 2
  23   12   14 1
  24   12   18 1
  25   14   15 1
  26   14   59 1
  27   14   60 1
  28   15   16 1
  29   15   61 1
  30   15   62 1
  31   16   17 1
  32   16   19 1
  33   16   63 1
  34   17   18 1
  35   17   64 1
  36   17   65 1
  37   18   66 1
  38   18   67 1
  39   19   20 1
  40   19   24 1
  41   20   21 1
  42   20   68 1
  43   20   69 1
  44   21   22 1
  45   21   70 1
  46   21   71 1
  47   22   23 1
  48   22   25 1
  49   23   24 1
  50   23   72 1
  51   23   73 1
  52   24   74 1
  53   24   75 1
  54   25   46 1
  55   25   76 1
  56   25   77 1
  57   27   48 am
  58   27   29 1
  59   28   29 ar
  60   28   30 ar
  61   29   33 ar
  62   30   31 ar
  63   30   78 1
  64   31   32 ar
  65   32   33 ar
  66   32   34 1
  67   33   79 1
  68   35   36 ar
  69   35   37 ar
  70   35   48 1
  71   36   42 1
  72   36   40 ar
  73   37   38 ar
  74   37   80 1
  75   38   39 ar
  76   38   81 1
  77   39   40 ar
  78   39   41 1
  79   40   82 1
  80   41   43 1
  81   42   44 1
  82   43   83 1
  83   43   84 1
  84   43   85 1
  85   44   45 1
  86   44   86 1
  87   44   87 1
  88   45   88 1
  89   45   89 1
  90   45   90 1
  91   46   47 1
  92   46   91 1
  93   46   92 1
  94   47   93 1
  95   47   94 1
  96   47   95 1
  97   48   49 2
  98   48   50 2
  99   51   53 1
 100   52   53 1
 101   52   96 1
 102   52   97 1
 103   52   98 1
 104   53   99 1
 105   53  100 1

#	End of record

