#	Name: ASD01911511
#	Creating user name:	WinNT
#	Creation time:	15. 06. 2019 19:57

#	Modifying user name:	WinNT
#	Modification time:	15. 06. 2019 19:57

#	Program:	/corina/corina34_cracker 3.40 0067  02.08.2006

@<TRIPOS>MOLECULE
ASD01911511
  31   32    0    0    0
SMALL
NO_CHARGES


@<TRIPOS>ATOM
   1 N1            -0.0162     1.3400     0.0094 N.am    
   2 C2             0.0021    -0.0041     0.0020 C.2     
   3 C3             1.4293    -0.5049    -0.0244 C.3     
   4 C4             2.2566     0.7297    -0.4513 C.3     
   5 C5             1.3438     1.8917    -0.0006 C.3     
   6 O6            -0.9823    -0.7121     0.0150 O.2     
   7 C7             3.5981     0.7707     0.2834 C.3     
   8 C8             2.4639     0.7525    -1.9670 C.3     
   9 O9             1.8276    -0.9492     1.2741 O.3     
  10 C10            1.5928    -2.3388     1.5103 C.3     
  11 C11           -1.1739     2.1084     0.0193 C.ar    
  12 N12           -2.3512     1.5025     0.0223 N.ar    
  13 C13           -3.4728     2.2036     0.0316 C.ar    
  14 C14           -3.4042     3.5885     0.0383 C.ar    
  15 C15           -2.1546     4.1897     0.0349 C.ar    
  16 N16           -1.0729     3.4285     0.0309 N.ar    
  17 I17           -5.1497     4.7470     0.0525 I       
  18 H18            1.5384    -1.3078    -0.7534 H       
  19 H19            1.4100     2.7191    -0.7070 H       
  20 H20            1.6231     2.2249     0.9989 H       
  21 H21            4.1673    -0.1293     0.0507 H       
  22 H22            4.1601     1.6486    -0.0351 H       
  23 H23            3.4224     0.8218     1.3579 H       
  24 H24            1.4954     0.7910    -2.4656 H       
  25 H25            3.0486     1.6308    -2.2406 H       
  26 H26            2.9954    -0.1480    -2.2746 H       
  27 H27            0.5280    -2.5494     1.4109 H       
  28 H28            2.1496    -2.9301     0.7833 H       
  29 H29            1.9218    -2.5969     2.5169 H       
  30 H30           -4.4301     1.7036     0.0336 H       
  31 H31           -2.0657     5.2660     0.0399 H       
@<TRIPOS>BOND
   1    1    2 am
   2    1    5 1
   3    1   11 1
   4    2    3 1
   5    2    6 2
   6    3    4 1
   7    3    9 1
   8    3   18 1
   9    4    5 1
  10    4    7 1
  11    4    8 1
  12    5   19 1
  13    5   20 1
  14    7   21 1
  15    7   22 1
  16    7   23 1
  17    8   24 1
  18    8   25 1
  19    8   26 1
  20    9   10 1
  21   10   27 1
  22   10   28 1
  23   10   29 1
  24   11   12 ar
  25   11   16 ar
  26   12   13 ar
  27   13   14 ar
  28   13   30 1
  29   14   15 ar
  30   14   17 1
  31   15   16 ar
  32   15   31 1

#	End of record

