#	Name: ASD08178066
#	Creating user name:	WinNT
#	Creation time:	15. 06. 2019 21:18

#	Modifying user name:	WinNT
#	Modification time:	15. 06. 2019 21:18

#	Program:	/corina/corina34_cracker 3.40 0067  02.08.2006

@<TRIPOS>MOLECULE
ASD08178066
  52   55    0    0    0
SMALL
NO_CHARGES


@<TRIPOS>ATOM
   1 N1             6.1053     1.4340    -1.2217 N.2     
   2 N2             6.5349     0.3066    -1.5934 N.2     
   3 C3             6.9798     2.3662    -0.9903 C.2     
   4 S4             8.5455     1.7344    -1.2804 S.3     
   5 C5             7.8192     0.1853    -1.7098 C.2     
   6 N6             6.6926     3.6624    -0.5762 N.am    
   7 C7             5.4135     4.0399    -0.3817 C.2     
   8 O8             4.5086     3.2812    -0.6582 O.2     
   9 C9             8.5598    -1.0561    -2.1355 C.3     
  10 C10            8.7255    -1.0547    -3.6565 C.3     
  11 C11            9.4775    -2.3151    -4.0888 C.3     
  12 C12            9.6431    -2.3137    -5.6098 C.3     
  13 C13           10.3838    -3.5552    -6.0356 C.2     
  14 N14            9.8504    -4.6925    -6.3513 N.2     
  15 S15           12.1324    -3.7182    -6.2008 S.3     
  16 C16           11.9156    -5.3483    -6.6811 C.2     
  17 N17           10.6446    -5.6162    -6.6830 N.2     
  18 N18           12.9316    -6.2362    -7.0178 N.am    
  19 C19           12.6304    -7.4987    -7.3810 C.2     
  20 O20           11.4835    -7.8889    -7.3236 O.2     
  21 C21           13.7187    -8.4254    -7.8583 C.3     
  22 C22            5.1077     5.4046     0.1795 C.3     
  23 C23            5.5687     5.6449     1.6185 C.3     
  24 C24           14.1376    -8.2538    -9.3198 C.3     
  25 F25           13.0013    -8.2707   -10.1357 F       
  26 F26            6.8771     5.1746     1.7737 F       
  27 F27            5.5293     7.0151     1.8982 F       
  28 F28            4.7211     4.9646     2.4995 F       
  29 C29            5.1543     6.5916    -0.7847 C.3     
  30 C30            3.8084     6.0774    -0.2677 C.3     
  31 F31           14.8040    -7.0333    -9.4737 F       
  32 F32           14.9906    -9.3003    -9.6864 F       
  33 C33           14.8042    -8.8170    -6.8536 C.3     
  34 C34           13.7478    -9.8400    -7.2760 C.3     
  35 H35            7.4129     4.2948    -0.4274 H       
  36 H36            9.5420    -1.0733    -1.6631 H       
  37 H37            7.9954    -1.9379    -1.8324 H       
  38 H38            7.7434    -1.0376    -4.1290 H       
  39 H39            9.2900    -0.1729    -3.9597 H       
  40 H40           10.4596    -2.3323    -3.6164 H       
  41 H41            8.9130    -3.1969    -3.7856 H       
  42 H42            8.6610    -2.2966    -6.0823 H       
  43 H43           10.2076    -1.4320    -5.9130 H       
  44 H44           13.8571    -5.9468    -6.9913 H       
  45 H45            5.5130     7.5438    -0.3938 H       
  46 H46            5.4061     6.3854    -1.8250 H       
  47 H47            3.1749     5.5331    -0.9680 H       
  48 H48            3.2821     6.6915     0.4631 H       
  49 H49           15.8166    -8.9528    -7.2339 H       
  50 H50           14.7311    -8.4043    -5.8474 H       
  51 H51           12.9797   -10.1003    -6.5477 H       
  52 H52           14.0652   -10.6487    -7.9343 H       
@<TRIPOS>BOND
   1    1    2 1
   2    1    3 2
   3    2    5 2
   4    3    4 1
   5    3    6 1
   6    4    5 1
   7    5    9 1
   8    6    7 am
   9    6   35 1
  10    7    8 2
  11    7   22 1
  12    9   10 1
  13    9   36 1
  14    9   37 1
  15   10   11 1
  16   10   38 1
  17   10   39 1
  18   11   12 1
  19   11   40 1
  20   11   41 1
  21   12   13 1
  22   12   42 1
  23   12   43 1
  24   13   14 2
  25   13   15 1
  26   14   17 1
  27   15   16 1
  28   16   17 2
  29   16   18 1
  30   18   19 am
  31   18   44 1
  32   19   20 2
  33   19   21 1
  34   21   33 1
  35   21   24 1
  36   21   34 1
  37   22   23 1
  38   22   29 1
  39   22   30 1
  40   23   26 1
  41   23   27 1
  42   23   28 1
  43   24   31 1
  44   24   32 1
  45   24   25 1
  46   29   30 1
  47   29   45 1
  48   29   46 1
  49   30   47 1
  50   30   48 1
  51   33   34 1
  52   33   49 1
  53   33   50 1
  54   34   51 1
  55   34   52 1

#	End of record

