#	Name: ASD03490069
#	Creating user name:	WinNT
#	Creation time:	15. 06. 2019 20:42

#	Modifying user name:	WinNT
#	Modification time:	15. 06. 2019 20:42

#	Program:	/corina/corina34_cracker 3.40 0067  02.08.2006

@<TRIPOS>MOLECULE
ASD03490069
  42   43    0    0    0
SMALL
NO_CHARGES


@<TRIPOS>ATOM
   1 O1            -0.0173     1.4248     0.0099 O.3     
   2 C2             0.0021    -0.0041     0.0020 C.3     
   3 C3            -1.4333    -0.5336     0.0129 C.3     
   4 C4            -1.4133    -2.0590     0.1302 C.3     
   5 O5            -2.0889    -0.1578    -1.2000 O.3     
   6 O6            -0.7451    -2.4429     1.3664 O.3     
   7 C7            -2.8478    -2.5888     0.1459 C.3     
   8 O8            -3.5156    -2.1510     1.3314 O.3     
   9 C9            -2.8879    -2.5966     2.5417 C.3     
  10 C10           -1.4348    -2.1680     2.4966 C.2     
  11 O11           -0.9148    -1.6051     3.4308 O.2     
  12 C12           -2.8424    -4.1161     0.0884 C.3     
  13 C13           -2.9379    -4.1292     2.5820 C.3     
  14 C14           -2.1960    -4.6767     1.3580 C.3     
  15 O15           -0.8249    -4.2776     1.4123 O.3     
  16 O16           -3.5516    -2.0246     3.6995 O.3     
  17 C17           -3.6612    -0.6874     3.7403 C.2     
  18 N18           -4.2196    -4.6051    -0.0144 N.am    
  19 C19           -4.4680    -5.8077    -0.5697 C.2     
  20 O20           -3.5515    -6.4852    -0.9844 O.2     
  21 C21           -5.8847    -6.3107    -0.6754 C.3     
  22 C22           -4.3380    -0.0222     4.9110 C.3     
  23 O23           -3.2172    -0.0171     2.8384 O.2     
  24 H24            0.8606     1.8301     0.0037 H       
  25 H25            0.5123    -0.3556    -0.8948 H       
  26 H26            0.5293    -0.3651     0.8851 H       
  27 H27           -1.9701    -0.1109     0.8621 H       
  28 H28           -0.8777    -2.4823    -0.7195 H       
  29 H29           -1.6646    -0.4999    -1.9987 H       
  30 H30           -3.3801    -2.2104    -0.7268 H       
  31 H31           -2.2754    -4.4444    -0.7828 H       
  32 H32           -2.4561    -4.4869     3.4919 H       
  33 H33           -3.9756    -4.4620     2.5597 H       
  34 H34           -2.2600    -5.7648     1.3497 H       
  35 H35           -0.3525    -4.5985     2.1927 H       
  36 H36           -4.9526    -4.0633     0.3172 H       
  37 H37           -6.5652    -5.5711    -0.2536 H       
  38 H38           -6.1337    -6.4777    -1.7234 H       
  39 H39           -5.9797    -7.2472    -0.1258 H       
  40 H40           -4.6707    -0.7821     5.6181 H       
  41 H41           -3.6348     0.6494     5.4036 H       
  42 H42           -5.1979     0.5471     4.5582 H       
@<TRIPOS>BOND
   1    1    2 1
   2    1   24 1
   3    2    3 1
   4    2   25 1
   5    2   26 1
   6    3    5 1
   7    3    4 1
   8    3   27 1
   9    4    6 1
  10    4    7 1
  11    4   28 1
  12    5   29 1
  13    6   10 1
  14    7    8 1
  15    7   12 1
  16    7   30 1
  17    8    9 1
  18    9   10 1
  19    9   13 1
  20    9   16 1
  21   10   11 2
  22   12   14 1
  23   12   18 1
  24   12   31 1
  25   13   14 1
  26   13   32 1
  27   13   33 1
  28   14   15 1
  29   14   34 1
  30   15   35 1
  31   16   17 1
  32   17   22 1
  33   17   23 2
  34   18   19 am
  35   18   36 1
  36   19   20 2
  37   19   21 1
  38   21   37 1
  39   21   38 1
  40   21   39 1
  41   22   40 1
  42   22   41 1
  43   22   42 1

#	End of record

