#	Name: ASD02500280
#	Creating user name:	WinNT
#	Creation time:	15. 06. 2019 20:22

#	Modifying user name:	WinNT
#	Modification time:	15. 06. 2019 20:22

#	Program:	/corina/corina34_cracker 3.40 0067  02.08.2006

@<TRIPOS>MOLECULE
ASD02500280
  66   70    0    0    0
SMALL
NO_CHARGES


@<TRIPOS>ATOM
   1 N1            -3.2608     5.4476    -0.8956 N.ar    
   2 C2            -4.3469     6.0922    -1.2464 C.ar    
   3 C3            -5.5333     5.9771    -0.5247 C.ar    
   4 C4            -5.5841     5.1756     0.5799 C.ar    
   5 C5            -4.4159     4.4845     0.9535 C.ar    
   6 C6            -4.3918     3.6431     2.0770 C.ar    
   7 C7            -3.2417     2.9923     2.4057 C.ar    
   8 C8            -2.0874     3.1505     1.6418 C.ar    
   9 C9            -2.0754     3.9584     0.5465 C.ar    
  10 C10           -3.2430     4.6471     0.1749 C.ar    
  11 S11           -0.6014     4.1409    -0.4016 S.o2    
  12 O12           -0.3882     5.5383    -0.5468 O.2     
  13 O13            0.3572     3.2642     0.1743 O.2     
  14 N14           -0.9184     3.5561    -1.9181 N.am    
  15 C15           -1.1408     2.1940    -2.1069 C.ar    
  16 C16           -0.7454     1.5816    -3.2980 C.ar    
  17 C17           -0.9653     0.2324    -3.4858 C.ar    
  18 C18           -1.5843    -0.5188    -2.4816 C.ar    
  19 C19           -1.9777     0.0993    -1.2920 C.ar    
  20 C20           -1.7508     1.4454    -1.1071 C.ar    
  21 C21           -1.8218    -1.9615    -2.6783 C.2     
  22 O22           -2.2255    -2.3706    -3.7498 O.2     
  23 N23           -1.5914    -2.8259    -1.6703 N.am    
  24 C24           -1.7298    -4.2739    -1.8803 C.3     
  25 C25           -0.4159    -4.9553    -1.4781 C.3     
  26 N26           -0.0212    -4.4669    -0.1494 N.am    
  27 C27            0.1172    -3.0189     0.0606 C.3     
  28 C28           -1.1912    -2.3378    -0.3431 C.3     
  29 C29            0.2093    -5.3313     0.8586 C.2     
  30 C30            0.7062    -4.8346     2.1593 C.ar    
  31 C31            1.8677    -4.0555     2.2272 C.ar    
  32 C32            2.2902    -3.6151     3.4689 C.ar    
  33 C33            1.5588    -3.9553     4.5929 C.ar    
  34 N34            0.4681    -4.6914     4.4987 N.ar    
  35 C35            0.0226    -5.1293     3.3393 C.ar    
  36 O36            0.0085    -6.5194     0.6982 O.2     
  37 C37           -1.2327    -5.9615     3.2875 C.3     
  38 F38           -0.9037    -7.3121     3.4449 F       
  39 F39           -2.0955    -5.5687     4.3163 F       
  40 F40           -1.8643    -5.7763     2.0530 F       
  41 O41           -0.1440     2.3150    -4.2730 O.3     
  42 C42            0.2340     1.6236    -5.4651 C.3     
  43 H43           -4.3215     6.7297    -2.1178 H       
  44 H44           -6.4117     6.5215    -0.8384 H       
  45 H45           -6.4951     5.0750     1.1512 H       
  46 H46           -5.2801     3.5130     2.6773 H       
  47 H47           -3.2240     2.3452     3.2702 H       
  48 H48           -1.1875     2.6240     1.9236 H       
  49 H49           -0.9492     4.1620    -2.6749 H       
  50 H50           -0.6604    -0.2425    -4.4066 H       
  51 H51           -2.4558    -0.4793    -0.5155 H       
  52 H52           -2.0515     1.9210    -0.1852 H       
  53 H53           -2.5438    -4.6567    -1.2647 H       
  54 H54           -1.9382    -4.4728    -2.9316 H       
  55 H55           -0.5597    -6.0352    -1.4431 H       
  56 H56            0.3601    -4.7104    -2.2033 H       
  57 H57            0.3256    -2.8200     1.1119 H       
  58 H58            0.9312    -2.6361    -0.5550 H       
  59 H59           -1.0439    -1.2584    -0.3794 H       
  60 H60           -1.9659    -2.5796     0.3845 H       
  61 H61            2.4197    -3.8051     1.3334 H       
  62 H62            3.1818    -3.0125     3.5598 H       
  63 H63            1.8863    -3.6129     5.5635 H       
  64 H64            0.7015     2.3230    -6.1581 H       
  65 H65            0.9402     0.8312    -5.2170 H       
  66 H66           -0.6513     1.1891    -5.9293 H       
@<TRIPOS>BOND
   1    1    2 ar
   2    1   10 ar
   3    2    3 ar
   4    2   43 1
   5    3    4 ar
   6    3   44 1
   7    4    5 ar
   8    4   45 1
   9    5    6 ar
  10    5   10 ar
  11    6    7 ar
  12    6   46 1
  13    7    8 ar
  14    7   47 1
  15    8    9 ar
  16    8   48 1
  17    9   10 ar
  18    9   11 1
  19   11   12 2
  20   11   13 2
  21   11   14 am
  22   14   15 1
  23   14   49 1
  24   15   16 ar
  25   15   20 ar
  26   16   17 ar
  27   16   41 1
  28   17   18 ar
  29   17   50 1
  30   18   19 ar
  31   18   21 1
  32   19   20 ar
  33   19   51 1
  34   20   52 1
  35   21   22 2
  36   21   23 am
  37   23   24 1
  38   23   28 1
  39   24   25 1
  40   24   53 1
  41   24   54 1
  42   25   26 1
  43   25   55 1
  44   25   56 1
  45   26   27 1
  46   26   29 am
  47   27   28 1
  48   27   57 1
  49   27   58 1
  50   28   59 1
  51   28   60 1
  52   29   30 1
  53   29   36 2
  54   30   31 ar
  55   30   35 ar
  56   31   32 ar
  57   31   61 1
  58   32   33 ar
  59   32   62 1
  60   33   34 ar
  61   33   63 1
  62   34   35 ar
  63   35   37 1
  64   37   38 1
  65   37   39 1
  66   37   40 1
  67   41   42 1
  68   42   64 1
  69   42   65 1
  70   42   66 1

#	End of record

