#	Name: ASD07300786
#	Creating user name:	WinNT
#	Creation time:	15. 06. 2019 21:10

#	Modifying user name:	WinNT
#	Modification time:	15. 06. 2019 21:10

#	Program:	/corina/corina34_cracker 3.40 0067  02.08.2006

@<TRIPOS>MOLECULE
ASD07300786
  53   56    0    0    0
SMALL
NO_CHARGES


@<TRIPOS>ATOM
   1 C1             0.0718     2.1453     0.3314 C.2     
   2 C2             0.0541     0.7306     0.4094 C.2     
   3 N3             1.2849     2.7864     0.2671 N.pl3   
   4 N4             1.1919     0.0654     0.4186 N.2     
   5 C5             2.3681     0.6991     0.3556 C.2     
   6 C6             2.4370     2.0426     0.2798 C.2     
   7 N7            -0.8819     3.0610     0.3093 N.2     
   8 C8            -0.3324     4.2704     0.2274 C.2     
   9 C9             1.0271     4.1269     0.2002 C.2     
  10 N10           -1.1519     0.0508     0.4761 N.pl3   
  11 C11           -2.4264     0.7781     0.5854 C.3     
  12 C12           -3.3814     0.2442    -0.4883 C.3     
  13 O13           -3.4527    -1.1802    -0.3886 O.3     
  14 C14           -2.2105    -1.8465    -0.6275 C.3     
  15 C15           -1.1960    -1.4195     0.4334 C.3     
  16 C16           -1.0816     5.5770     0.1773 C.3     
  17 N17            3.0785     7.0422    -0.4812 N.pl3   
  18 N18            3.8236     6.4184     0.5267 N.2     
  19 C19            3.2026     5.3273     0.8888 C.2     
  20 C20            2.0279     5.2149     0.1175 C.2     
  21 C21            1.9816     6.2927    -0.7205 C.2     
  22 C22            3.4261     8.2955    -1.1555 C.3     
  23 C23            4.1711     7.9856    -2.4554 C.3     
  24 C24            5.5109     7.3225    -2.1297 C.3     
  25 C25            2.1485     9.0750    -1.4732 C.3     
  26 O26            2.4918    10.3482    -2.0238 O.3     
  27 C27            1.3644    11.1603    -2.3574 C.3     
  28 H28            3.2811     0.1222     0.3653 H       
  29 H29            3.3980     2.5329     0.2296 H       
  30 H30           -2.8576     0.6166     1.5734 H       
  31 H31           -2.2559     1.8431     0.4283 H       
  32 H32           -4.3735     0.6698    -0.3373 H       
  33 H33           -3.0116     0.5220    -1.4752 H       
  34 H34           -2.3602    -2.9250    -0.5767 H       
  35 H35           -1.8364    -1.5762    -1.6150 H       
  36 H36           -0.2111    -1.8090     0.1756 H       
  37 H37           -1.5012    -1.8060     1.4058 H       
  38 H38           -1.2325     5.9484     1.1909 H       
  39 H39           -0.5053     6.3046    -0.3942 H       
  40 H40           -2.0488     5.4231    -0.3011 H       
  41 H41            3.5321     4.6322     1.6469 H       
  42 H42            1.2079     6.5066    -1.4429 H       
  43 H43            4.0641     8.8933    -0.5046 H       
  44 H44            3.5709     7.3113    -3.0663 H       
  45 H45            4.3476     8.9117    -3.0026 H       
  46 H46            6.0739     7.9576    -1.4458 H       
  47 H47            5.3328     6.3538    -1.6627 H       
  48 H48            6.0804     7.1836    -3.0487 H       
  49 H49            1.5518     8.5163    -2.1942 H       
  50 H50            1.5731     9.2179    -0.5585 H       
  51 H51            1.7090    12.1090    -2.7689 H       
  52 H52            0.7514    10.6448    -3.0968 H       
  53 H53            0.7727    11.3465    -1.4611 H       
@<TRIPOS>BOND
   1    1    2 1
   2    1    3 1
   3    1    7 2
   4    2    4 2
   5    2   10 1
   6    3    6 1
   7    3    9 1
   8    4    5 1
   9    5    6 2
  10    5   28 1
  11    6   29 1
  12    7    8 1
  13    8    9 2
  14    8   16 1
  15    9   20 1
  16   10   11 1
  17   10   15 1
  18   11   12 1
  19   11   30 1
  20   11   31 1
  21   12   13 1
  22   12   32 1
  23   12   33 1
  24   13   14 1
  25   14   15 1
  26   14   34 1
  27   14   35 1
  28   15   36 1
  29   15   37 1
  30   16   38 1
  31   16   39 1
  32   16   40 1
  33   17   18 1
  34   17   21 1
  35   17   22 1
  36   18   19 2
  37   19   20 1
  38   19   41 1
  39   20   21 2
  40   21   42 1
  41   22   23 1
  42   22   25 1
  43   22   43 1
  44   23   24 1
  45   23   44 1
  46   23   45 1
  47   24   46 1
  48   24   47 1
  49   24   48 1
  50   25   26 1
  51   25   49 1
  52   25   50 1
  53   26   27 1
  54   27   51 1
  55   27   52 1
  56   27   53 1

#	End of record

