#	Name: ASD02030270
#	Creating user name:	WinNT
#	Creation time:	15. 06. 2019 20:14

#	Modifying user name:	WinNT
#	Modification time:	15. 06. 2019 20:14

#	Program:	/corina/corina34_cracker 3.40 0067  02.08.2006

@<TRIPOS>MOLECULE
ASD02030270
  52   55    0    0    0
SMALL
NO_CHARGES


@<TRIPOS>ATOM
   1 N1            -1.0464     0.2313    -0.0230 N.am    
   2 C2            -1.5340    -1.0194    -0.6211 C.3     
   3 C3            -2.1021    -0.7089    -2.0115 C.3     
   4 N4            -3.0252     0.4290    -1.8982 N.am    
   5 C5            -2.5377     1.6797    -1.3000 C.3     
   6 C6            -1.9712     1.3674     0.0955 C.3     
   7 C7             0.2244     0.3328     0.4143 C.2     
   8 C8             1.0841    -0.8684     0.4727 C.2     
   9 N9             2.3652    -0.8891     0.7714 N.2     
  10 N10            0.6930    -2.1339     0.2355 N.2     
  11 C11            1.7424    -2.9006     0.3890 C.2     
  12 N12            2.7809    -2.1079     0.7242 N.pl3   
  13 C13            4.0908    -2.5370     0.9774 C.ar    
  14 O14            0.6636     1.4121     0.7606 O.2     
  15 C15           -4.2960     0.3275    -2.3354 C.2     
  16 C16           -4.7272    -0.8693    -3.0630 C.2     
  17 O17           -5.0856     1.2298    -2.1260 O.2     
  18 C18            5.0715    -1.6146     1.3145 C.ar    
  19 C19            6.3636    -2.0418     1.5644 C.ar    
  20 C20            6.6771    -3.3879     1.4780 C.ar    
  21 C21            5.7007    -4.3074     1.1418 C.ar    
  22 C22            4.4083    -3.8867     0.8971 C.ar    
  23 F23            7.3197    -1.1454     1.8922 F       
  24 C24           -6.0063    -1.1583    -3.4461 C.2     
  25 C25           -3.6945     2.6728    -1.1720 C.3     
  26 C26           -3.1548     4.0275    -0.7090 C.3     
  27 C27           -4.2869     5.0568    -0.7158 C.3     
  28 O28           -3.9292    -1.8760    -3.4769 O.3     
  29 C29           -4.6683    -2.7985    -4.1077 C.2     
  30 C30           -5.9598    -2.3932    -4.1107 C.2     
  31 Br31          -7.4256    -3.3175    -4.8675 Br      
  32 Br32          -4.0143    -4.3996    -4.8724 Br      
  33 H33           -0.7098    -1.7269    -0.7123 H       
  34 H34           -2.3166    -1.4447     0.0072 H       
  35 H35           -1.2885    -0.4537    -2.6904 H       
  36 H36           -2.6386    -1.5789    -2.3901 H       
  37 H37           -1.7551     2.1050    -1.9283 H       
  38 H38           -2.7865     1.1131     0.7727 H       
  39 H39           -1.4344     2.2366     0.4753 H       
  40 H40            1.7710    -3.9738     0.2714 H       
  41 H41            4.8265    -0.5649     1.3814 H       
  42 H42            7.6861    -3.7201     1.6733 H       
  43 H43            5.9482    -5.3565     1.0745 H       
  44 H44            3.6467    -4.6060     0.6345 H       
  45 H45           -6.8837    -0.5533    -3.2709 H       
  46 H46           -4.1834     2.7879    -2.1394 H       
  47 H47           -4.4143     2.3001    -0.4432 H       
  48 H48           -2.7552     3.9336     0.3008 H       
  49 H49           -2.3635     4.3534    -1.3841 H       
  50 H50           -5.0782     4.7310    -0.0407 H       
  51 H51           -3.9024     6.0219    -0.3859 H       
  52 H52           -4.6865     5.1508    -1.7255 H       
@<TRIPOS>BOND
   1    1    2 1
   2    1    7 am
   3    1    6 1
   4    2    3 1
   5    2   33 1
   6    2   34 1
   7    3    4 1
   8    3   35 1
   9    3   36 1
  10    4    5 1
  11    4   15 am
  12    5    6 1
  13    5   25 1
  14    5   37 1
  15    6   38 1
  16    6   39 1
  17    7    8 1
  18    7   14 2
  19    8    9 2
  20    8   10 1
  21    9   12 1
  22   10   11 2
  23   11   12 1
  24   11   40 1
  25   12   13 1
  26   13   18 ar
  27   13   22 ar
  28   15   16 1
  29   15   17 2
  30   16   28 1
  31   16   24 2
  32   18   19 ar
  33   18   41 1
  34   19   20 ar
  35   19   23 1
  36   20   21 ar
  37   20   42 1
  38   21   22 ar
  39   21   43 1
  40   22   44 1
  41   24   30 1
  42   24   45 1
  43   25   26 1
  44   25   46 1
  45   25   47 1
  46   26   27 1
  47   26   48 1
  48   26   49 1
  49   27   50 1
  50   27   51 1
  51   27   52 1
  52   28   29 1
  53   29   30 2
  54   29   32 1
  55   30   31 1

#	End of record

