#	Name: ASD01150756
#	Creating user name:	WinNT
#	Creation time:	15. 06. 2019 19:05

#	Modifying user name:	WinNT
#	Modification time:	15. 06. 2019 19:05

#	Program:	/corina/corina34_cracker 3.40 0067  02.08.2006

@<TRIPOS>MOLECULE
ASD01150756
  50   53    0    0    0
SMALL
NO_CHARGES


@<TRIPOS>ATOM
   1 C1            -0.0767     1.6086    -0.0973 C.2     
   2 C2            -0.6615     1.3148    -1.4547 C.3     
   3 N3             3.5495     2.2725     0.2239 N.ar    
   4 C4             2.4072     1.6449     0.1247 C.ar    
   5 C5             1.1895     2.3409     0.0129 C.ar    
   6 C6             1.2013     3.7474     0.0077 C.ar    
   7 C7             2.4563     4.3959     0.1167 C.ar    
   8 C8             2.5506     5.7932     0.1193 C.ar    
   9 C9             3.7898     6.3902     0.2277 C.ar    
  10 C10            4.9459     5.6097     0.3341 C.ar    
  11 C11            4.8760     4.2509     0.3335 C.ar    
  12 C12            3.6304     3.6102     0.2251 C.ar    
  13 C13           -0.0517     4.5219    -0.1081 C.ar    
  14 C14           -1.0109     4.4598     0.9051 C.ar    
  15 C15           -2.1782     5.1857     0.7907 C.ar    
  16 C16           -2.4001     5.9738    -0.3249 C.ar    
  17 C17           -1.4542     6.0396    -1.3328 C.ar    
  18 C18           -0.2798     5.3238    -1.2286 C.ar    
  19 N19            3.8907     7.7828     0.2308 N.3     
  20 C20            5.3118     8.2138     0.1903 C.3     
  21 C21            5.2637     9.6641    -0.3365 C.3     
  22 C22            3.9390     9.7618    -1.1210 C.3     
  23 C23            3.2983     8.3623    -1.0021 C.3     
  24 C24            5.9212     8.1756     1.5932 C.3     
  25 C25            2.3942     0.1380     0.1297 C.3     
  26 F26           -1.8095     0.5289    -1.3077 F       
  27 F27           -0.9969     2.5163    -2.0880 F       
  28 F28            0.2790     0.6264    -2.2286 F       
  29 O29           -0.6556     1.2439     0.9045 O.2     
  30 H30            1.6602     6.3989     0.0366 H       
  31 H31            5.9082     6.0929     0.4175 H       
  32 H32            5.7789     3.6642     0.4161 H       
  33 H33           -0.8393     3.8446     1.7760 H       
  34 H34           -2.9208     5.1387     1.5735 H       
  35 H35           -3.3160     6.5399    -0.4095 H       
  36 H36           -1.6341     6.6562    -2.2011 H       
  37 H37            0.4596     5.3795    -2.0138 H       
  38 H38            5.8817     7.5809    -0.4900 H       
  39 H39            5.2642    10.3691     0.4948 H       
  40 H40            6.1096     9.8554    -0.9967 H       
  41 H41            3.2894    10.5147    -0.6747 H       
  42 H42            4.1348    10.0010    -2.1662 H       
  43 H43            3.5530     7.7527    -1.8691 H       
  44 H44            2.2163     8.4469    -0.9006 H       
  45 H45            5.8696     7.1595     1.9843 H       
  46 H46            6.9626     8.4942     1.5458 H       
  47 H47            5.3657     8.8460     2.2490 H       
  48 H48            2.3834    -0.2218     1.1586 H       
  49 H49            1.5050    -0.2194    -0.3896 H       
  50 H50            3.2849    -0.2347    -0.3761 H       
@<TRIPOS>BOND
   1    1    2 1
   2    1    5 1
   3    1   29 2
   4    2   26 1
   5    2   27 1
   6    2   28 1
   7    3    4 ar
   8    3   12 ar
   9    4    5 ar
  10    4   25 1
  11    5    6 ar
  12    6    7 ar
  13    6   13 1
  14    7    8 ar
  15    7   12 ar
  16    8    9 ar
  17    8   30 1
  18    9   10 ar
  19    9   19 1
  20   10   11 ar
  21   10   31 1
  22   11   12 ar
  23   11   32 1
  24   13   14 ar
  25   13   18 ar
  26   14   15 ar
  27   14   33 1
  28   15   16 ar
  29   15   34 1
  30   16   17 ar
  31   16   35 1
  32   17   18 ar
  33   17   36 1
  34   18   37 1
  35   19   20 1
  36   19   23 1
  37   20   21 1
  38   20   24 1
  39   20   38 1
  40   21   22 1
  41   21   39 1
  42   21   40 1
  43   22   23 1
  44   22   41 1
  45   22   42 1
  46   23   43 1
  47   23   44 1
  48   24   45 1
  49   24   46 1
  50   24   47 1
  51   25   48 1
  52   25   49 1
  53   25   50 1

#	End of record

