#	Name: ASD01912995
#	Creating user name:	WinNT
#	Creation time:	15. 06. 2019 20:00

#	Modifying user name:	WinNT
#	Modification time:	15. 06. 2019 20:00

#	Program:	/corina/corina34_cracker 3.40 0067  02.08.2006

@<TRIPOS>MOLECULE
ASD01912995
  40   43    0    0    0
SMALL
NO_CHARGES


@<TRIPOS>ATOM
   1 C1             0.0740     1.4046     0.1282 C.2     
   2 C2             0.1206    -0.0265     0.1486 C.1     
   3 C3             0.1588    -1.1997     0.1653 C.1     
   4 C4             0.2053    -2.6308     0.1857 C.ar    
   5 C5            -0.9794    -3.3717     0.2284 C.ar    
   6 C6             1.4356    -3.2942     0.1571 C.ar    
   7 C7             1.4723    -4.6725     0.1765 C.ar    
   8 C8             0.2954    -5.3990     0.2237 C.ar    
   9 C9            -0.9265    -4.7496     0.2473 C.ar    
  10 N10            1.1077     2.1939     0.0888 N.2     
  11 C11            0.8922     3.4982     0.0763 C.2     
  12 C12           -0.4130     3.8416     0.1014 C.2     
  13 S13           -1.3915     2.3805     0.1448 S.3     
  14 C14            2.0139     4.5281     0.0444 C.3     
  15 C15            1.4528     5.8676    -0.4368 C.3     
  16 N16            0.2105     6.1592     0.2942 N.am    
  17 C17           -0.9369     5.2604     0.0838 C.3     
  18 C18            0.1251     7.2137     1.1292 C.2     
  19 C19           -1.1747     7.5624     1.7530 C.2     
  20 O20            1.1127     7.8788     1.3709 O.2     
  21 C21           -1.4085     8.5574     2.7427 C.2     
  22 C22           -2.7397     8.4806     2.9733 C.2     
  23 O23           -3.2135     7.5158     2.1730 O.3     
  24 N24           -2.3399     7.0202     1.4998 N.2     
  25 C25           -3.5347     9.3171     3.9425 C.3     
  26 H26           -1.9337    -2.8663     0.2469 H       
  27 H27            2.3549    -2.7285     0.1196 H       
  28 H28            2.4220    -5.1864     0.1545 H       
  29 H29            0.3305    -6.4784     0.2379 H       
  30 H30           -1.8408    -5.3233     0.2841 H       
  31 H31            2.4290     4.6456     1.0454 H       
  32 H32            2.7955     4.1943    -0.6381 H       
  33 H33            2.1807     6.6566    -0.2478 H       
  34 H34            1.2428     5.8121    -1.5049 H       
  35 H35           -1.4008     5.4717    -0.8796 H       
  36 H36           -1.6649     5.3961     0.8837 H       
  37 H37           -0.6904     9.2197     3.2031 H       
  38 H38           -3.8943    10.2141     3.4383 H       
  39 H39           -4.3844     8.7404     4.3081 H       
  40 H40           -2.9005     9.6017     4.7821 H       
@<TRIPOS>BOND
   1    1    2 1
   2    1   10 2
   3    1   13 1
   4    2    3 3
   5    3    4 1
   6    4    5 ar
   7    4    6 ar
   8    5    9 ar
   9    5   26 1
  10    6    7 ar
  11    6   27 1
  12    7    8 ar
  13    7   28 1
  14    8    9 ar
  15    8   29 1
  16    9   30 1
  17   10   11 1
  18   11   12 2
  19   11   14 1
  20   12   13 1
  21   12   17 1
  22   14   15 1
  23   14   31 1
  24   14   32 1
  25   15   16 1
  26   15   33 1
  27   15   34 1
  28   16   17 1
  29   16   18 am
  30   17   35 1
  31   17   36 1
  32   18   19 1
  33   18   20 2
  34   19   21 1
  35   19   24 2
  36   21   22 2
  37   21   37 1
  38   22   23 1
  39   22   25 1
  40   23   24 1
  41   25   38 1
  42   25   39 1
  43   25   40 1

#	End of record

