#	Name: ASD03240700
#	Creating user name:	WinNT
#	Creation time:	15. 06. 2019 20:35

#	Modifying user name:	WinNT
#	Modification time:	15. 06. 2019 20:35

#	Program:	/corina/corina34_cracker 3.40 0067  02.08.2006

@<TRIPOS>MOLECULE
ASD03240700
  70   77    0    0    0
SMALL
NO_CHARGES


@<TRIPOS>ATOM
   1 C1            -0.0166     1.3720     0.0096 C.ar    
   2 C2             0.0021    -0.0041     0.0020 C.ar    
   3 C3             1.2297    -0.6747    -0.0142 C.ar    
   4 C4             2.3977     0.0888    -0.0213 C.ar    
   5 C5             2.2902     1.4674    -0.0126 C.ar    
   6 N6             1.1115     2.0578     0.0025 N.ar    
   7 O7            -0.3655    -2.3479    -0.0087 O.3     
   8 C8            -1.0584    -1.0711     0.0080 C.3     
   9 C9             0.9604    -2.1246    -0.0208 C.2     
  10 N10           -3.8326    -1.8518     0.0391 N.3     
  11 C11           -3.0056    -2.0298     1.2393 C.3     
  12 C12           -1.9136    -0.9574     1.2709 C.3     
  13 C13           -1.9458    -0.9414    -1.2307 C.3     
  14 C14           -3.0372    -2.0138    -1.1846 C.3     
  15 O15            1.8118    -2.9903    -0.0356 O.2     
  16 C16           -4.9782    -2.7713     0.0479 C.3     
  17 C17           -5.9302    -2.3985    -1.0592 C.ar    
  18 C18           -5.7820    -2.9620    -2.3140 C.ar    
  19 C19           -6.6507    -2.6251    -3.3317 C.ar    
  20 C20           -7.6799    -1.7142    -3.0932 C.ar    
  21 C21           -7.8241    -1.1495    -1.8259 C.ar    
  22 C22           -6.9522    -1.4985    -0.8151 C.ar    
  23 C23           -9.3375    -0.5250    -8.7447 C.2     
  24 N24          -10.6398    -0.2651    -8.5327 N.2     
  25 C25          -11.1727    -0.3189    -7.3393 C.2     
  26 C26          -10.3287    -0.6731    -6.2000 C.ar    
  27 C27           -8.9627    -0.9444    -6.4291 C.ar    
  28 N28           -8.4896    -0.8620    -7.7247 N.pl3   
  29 C29          -10.8404    -0.7475    -4.9005 C.ar    
  30 C30           -9.9657    -1.0913    -3.8747 C.ar    
  31 C31           -8.6154    -1.3479    -4.1812 C.ar    
  32 N32           -8.1668    -1.2679    -5.4251 N.ar    
  33 N33           -7.2178    -1.0659    -8.2735 N.2     
  34 C34           -7.2788    -0.8646    -9.5679 C.2     
  35 C35           -8.5806    -0.5195    -9.9085 C.2     
  36 C36          -10.4491    -1.1859    -2.4762 C.ar    
  37 C37          -11.1912    -0.1449    -1.9206 C.ar    
  38 C38          -11.6389    -0.2386    -0.6186 C.ar    
  39 C39          -11.3521    -1.3626     0.1350 C.ar    
  40 C40          -10.6156    -2.3986    -0.4109 C.ar    
  41 C41          -10.1680    -2.3186    -1.7139 C.ar    
  42 C42           -6.1237    -0.9827   -10.5285 C.3     
  43 H43           -0.9615     1.8949     0.0169 H       
  44 H44            3.3668    -0.3877    -0.0329 H       
  45 H45            3.1863     2.0702    -0.0179 H       
  46 H46           -3.6304    -1.9383     2.1278 H       
  47 H47           -2.5446    -3.0173     1.2196 H       
  48 H48           -1.2858    -1.1031     2.1499 H       
  49 H49           -2.3740     0.0298     1.3111 H       
  50 H50           -2.4065     0.0463    -1.2465 H       
  51 H51           -1.3410    -1.0760    -2.1274 H       
  52 H52           -2.5764    -3.0016    -1.1901 H       
  53 H53           -3.6849    -1.9105    -2.0552 H       
  54 H54           -4.6262    -3.7917    -0.1038 H       
  55 H55           -5.4916    -2.7029     1.0070 H       
  56 H56           -4.9846    -3.6669    -2.4975 H       
  57 H57           -6.5339    -3.0654    -4.3109 H       
  58 H58           -8.6187    -0.4434    -1.6353 H       
  59 H59           -7.0652    -1.0651     0.1677 H       
  60 H60          -12.2218    -0.1048    -7.1979 H       
  61 H61          -11.8818    -0.5439    -4.6995 H       
  62 H62           -8.9398    -0.2900   -10.9009 H       
  63 H63          -11.4151     0.7334    -2.5078 H       
  64 H64          -12.2140     0.5672    -0.1870 H       
  65 H65          -11.7042    -1.4315     1.1537 H       
  66 H66          -10.3944    -3.2736     0.1822 H       
  67 H67           -9.5969    -3.1299    -2.1406 H       
  68 H68           -6.0668    -2.0043   -10.9045 H       
  69 H69           -6.2727    -0.2965   -11.3622 H       
  70 H70           -5.1960    -0.7329   -10.0137 H       
@<TRIPOS>BOND
   1    1    2 ar
   2    1    6 ar
   3    1   43 1
   4    2    3 ar
   5    2    8 1
   6    3    4 ar
   7    3    9 1
   8    4    5 ar
   9    4   44 1
  10    5    6 ar
  11    5   45 1
  12    7    8 1
  13    7    9 1
  14    8   12 1
  15    8   13 1
  16    9   15 2
  17   10   11 1
  18   10   14 1
  19   10   16 1
  20   11   12 1
  21   11   46 1
  22   11   47 1
  23   12   48 1
  24   12   49 1
  25   13   14 1
  26   13   50 1
  27   13   51 1
  28   14   52 1
  29   14   53 1
  30   16   17 1
  31   16   54 1
  32   16   55 1
  33   17   18 ar
  34   17   22 ar
  35   18   19 ar
  36   18   56 1
  37   19   20 ar
  38   19   57 1
  39   20   21 ar
  40   20   31 1
  41   21   22 ar
  42   21   58 1
  43   22   59 1
  44   23   24 1
  45   23   28 1
  46   23   35 2
  47   24   25 2
  48   25   26 1
  49   25   60 1
  50   26   27 ar
  51   26   29 ar
  52   27   28 1
  53   27   32 ar
  54   28   33 1
  55   29   30 ar
  56   29   61 1
  57   30   31 ar
  58   30   36 1
  59   31   32 ar
  60   33   34 2
  61   34   35 1
  62   34   42 1
  63   35   62 1
  64   36   37 ar
  65   36   41 ar
  66   37   38 ar
  67   37   63 1
  68   38   39 ar
  69   38   64 1
  70   39   40 ar
  71   39   65 1
  72   40   41 ar
  73   40   66 1
  74   41   67 1
  75   42   68 1
  76   42   69 1
  77   42   70 1

#	End of record

