#	Name: ASD04880625
#	Creating user name:	WinNT
#	Creation time:	15. 06. 2019 20:53

#	Modifying user name:	WinNT
#	Modification time:	15. 06. 2019 20:53

#	Program:	/corina/corina34_cracker 3.40 0067  02.08.2006

@<TRIPOS>MOLECULE
ASD04880625
  59   62    0    0    0
SMALL
NO_CHARGES


@<TRIPOS>ATOM
   1 C1            -0.0167     1.3806     0.0096 C.ar    
   2 C2             0.0021    -0.0041     0.0020 C.ar    
   3 C3             1.2082    -0.6780    -0.0131 C.ar    
   4 C4             2.3961     0.0295    -0.0202 C.ar    
   5 C5             2.3786     1.4116    -0.0126 C.ar    
   6 C6             1.1733     2.0880     0.0021 C.ar    
   7 F7            -1.1955     2.0406     0.0188 F       
   8 C8             3.6742     2.1813    -0.0203 C.3     
   9 C9             3.9717     2.6648    -1.4411 C.3     
  10 N10            3.5618     3.3356     0.8748 N.pl3   
  11 C11            4.4056     3.5905     2.0531 C.3     
  12 C12            3.8569     4.9191     2.6100 C.3     
  13 C13            2.7357     5.2765     1.6607 C.2     
  14 N14            2.6423     4.3746     0.7460 N.2     
  15 C15            1.8846     6.4766     1.7625 C.ar    
  16 C16            0.8755     6.7018     0.8226 C.ar    
  17 C17            0.0823     7.8243     0.9219 C.ar    
  18 C18            0.2850     8.7314     1.9539 C.ar    
  19 C19            1.2866     8.5118     2.8901 C.ar    
  20 C20            2.0811     7.3887     2.8020 C.ar    
  21 O21           -0.4989     9.8374     2.0474 O.3     
  22 C22           -0.2364    10.7287     3.1331 C.3     
  23 S23           -1.1907     8.1096    -0.2626 S.o2    
  24 N24           -2.6359     8.0288     0.5419 N.am    
  25 O25           -1.0450     9.4564    -0.6916 O.2     
  26 O26           -1.1650     7.0029    -1.1536 O.2     
  27 C27           -2.9594     9.0227     1.5683 C.3     
  28 C28           -4.4328     8.9627     1.8790 C.ar    
  29 C29           -4.8956     8.1232     2.8749 C.ar    
  30 C30           -6.2471     8.0681     3.1598 C.ar    
  31 C31           -7.1359     8.8528     2.4491 C.ar    
  32 C32           -6.6730     9.6931     1.4538 C.ar    
  33 C33           -5.3210     9.7514     1.1718 C.ar    
  34 H34           -0.9257    -0.5570     0.0083 H       
  35 H35            1.2231    -1.7579    -0.0191 H       
  36 H36            3.3384    -0.4981    -0.0313 H       
  37 H37            1.1599     3.1679     0.0076 H       
  38 H38            4.4829     1.5348     0.3203 H       
  39 H39            4.0553     1.8060    -2.1071 H       
  40 H40            3.1629     3.3113    -1.7818 H       
  41 H41            4.9088     3.2215    -1.4467 H       
  42 H42            4.2926     2.7915     2.7859 H       
  43 H43            5.4500     3.6993     1.7607 H       
  44 H44            3.4727     4.7804     3.6206 H       
  45 H45            4.6296     5.6878     2.5958 H       
  46 H46            0.7175     5.9973     0.0193 H       
  47 H47            1.4407     9.2198     3.6910 H       
  48 H48            2.8572     7.2165     3.5331 H       
  49 H49            0.7859    11.0997     3.0595 H       
  50 H50           -0.9312    11.5675     3.0907 H       
  51 H51           -0.3636    10.1989     4.0771 H       
  52 H52           -3.2682     7.3233     0.3335 H       
  53 H53           -2.3886     8.8106     2.4723 H       
  54 H54           -2.7053    10.0179     1.2033 H       
  55 H55           -4.2012     7.5100     3.4302 H       
  56 H56           -6.6087     7.4116     3.9375 H       
  57 H57           -8.1919     8.8093     2.6712 H       
  58 H58           -7.3674    10.3060     0.8983 H       
  59 H59           -4.9590    10.4105     0.3967 H       
@<TRIPOS>BOND
   1    1    2 ar
   2    1    6 ar
   3    1    7 1
   4    2    3 ar
   5    2   34 1
   6    3    4 ar
   7    3   35 1
   8    4    5 ar
   9    4   36 1
  10    5    6 ar
  11    5    8 1
  12    6   37 1
  13    8    9 1
  14    8   10 1
  15    8   38 1
  16    9   39 1
  17    9   40 1
  18    9   41 1
  19   10   11 1
  20   10   14 1
  21   11   12 1
  22   11   42 1
  23   11   43 1
  24   12   13 1
  25   12   44 1
  26   12   45 1
  27   13   14 2
  28   13   15 1
  29   15   16 ar
  30   15   20 ar
  31   16   17 ar
  32   16   46 1
  33   17   18 ar
  34   17   23 1
  35   18   19 ar
  36   18   21 1
  37   19   20 ar
  38   19   47 1
  39   20   48 1
  40   21   22 1
  41   22   49 1
  42   22   50 1
  43   22   51 1
  44   23   24 am
  45   23   25 2
  46   23   26 2
  47   24   27 1
  48   24   52 1
  49   27   28 1
  50   27   53 1
  51   27   54 1
  52   28   29 ar
  53   28   33 ar
  54   29   30 ar
  55   29   55 1
  56   30   31 ar
  57   30   56 1
  58   31   32 ar
  59   31   57 1
  60   32   33 ar
  61   32   58 1
  62   33   59 1

#	End of record

