#	Name: ASD01840075
#	Creating user name:	WinNT
#	Creation time:	15. 06. 2019 19:37

#	Modifying user name:	WinNT
#	Modification time:	15. 06. 2019 19:37

#	Program:	/corina/corina34_cracker 3.40 0067  02.08.2006

@<TRIPOS>MOLECULE
ASD01840075
  58   61    0    0    0
SMALL
NO_CHARGES


@<TRIPOS>ATOM
   1 C1             0.1866     1.6245     1.2330 C.ar    
   2 C2             0.1348     0.2418     1.0562 C.ar    
   3 N3            -1.0027    -0.3643     0.7855 N.ar    
   4 C4            -2.1530     0.3067     0.6681 C.ar    
   5 C5            -2.1735     1.6953     0.8336 C.ar    
   6 C6            -0.9588     2.3588     1.1300 C.ar    
   7 S7            -3.7724    -0.2841     0.3153 S.3     
   8 C8            -4.4599     1.3259     0.3921 C.2     
   9 C9            -3.5060     2.2499     0.6701 C.2     
  10 Cl10           1.6962     2.4044     1.5886 Cl      
  11 O11            1.2721    -0.4888     1.1641 O.3     
  12 C12           -5.8295     1.6233     0.1908 C.2     
  13 N13           -3.7794     3.6055     0.7882 N.pl3   
  14 N14           -6.7015     0.6321    -0.0806 N.am    
  15 O15           -6.2197     2.7748     0.2629 O.2     
  16 C16           -8.1186     0.9397    -0.2889 C.3     
  17 C17           -8.9366    -0.0375    -1.1355 C.3     
  18 C18           -9.1460     0.0235     0.3789 C.3     
  19 C19           -0.9290     3.8538     1.3174 C.3     
  20 C20            1.1570    -1.9003     0.9729 C.3     
  21 C21            2.5329    -2.5503     1.1318 C.3     
  22 O22            2.9844    -2.3867     2.4777 O.3     
  23 C23            4.2674    -2.9613     2.7343 C.3     
  24 C24            4.6476    -2.7274     4.1977 C.3     
  25 N25            3.6810    -3.4082     5.0696 N.3     
  26 C26            4.0656    -3.2815     6.4823 C.3     
  27 C27            2.9948    -3.9335     7.3602 C.3     
  28 N28            2.8481    -5.3459     6.9819 N.3     
  29 C29            2.4635    -5.4726     5.5692 C.3     
  30 C30            3.5344    -4.8207     4.6913 C.3     
  31 H31           -3.1748     4.1809     1.2824 H       
  32 H32           -4.5750     3.9774     0.3765 H       
  33 H33           -6.3908    -0.2850    -0.1380 H       
  34 H34           -8.3633     1.9991    -0.3657 H       
  35 H35           -9.7198     0.3789    -1.7690 H       
  36 H36           -8.4204    -0.9093    -1.5375 H       
  37 H37           -8.7675    -0.8082     0.9732 H       
  38 H38          -10.0669     0.4801     0.7417 H       
  39 H39           -1.2078     4.0971     2.3427 H       
  40 H40            0.0758     4.2253     1.1162 H       
  41 H41           -1.6336     4.3204     0.6289 H       
  42 H42            0.4725    -2.3128     1.7141 H       
  43 H43            0.7735    -2.1014    -0.0274 H       
  44 H44            2.4619    -3.6128     0.8990 H       
  45 H45            3.2398    -2.0757     0.4512 H       
  46 H46            4.2324    -4.0323     2.5347 H       
  47 H47            5.0102    -2.4952     2.0870 H       
  48 H48            5.6457    -3.1247     4.3818 H       
  49 H49            4.6374    -1.6581     4.4093 H       
  50 H50            5.0216    -3.7791     6.6449 H       
  51 H51            4.1556    -2.2266     6.7414 H       
  52 H52            3.2921    -3.8662     8.4067 H       
  53 H53            2.0447    -3.4184     7.2179 H       
  54 H54            3.6940    -5.8614     7.1740 H       
  55 H55            2.3735    -6.5275     5.3101 H       
  56 H56            1.5075    -4.9750     5.4066 H       
  57 H57            3.2371    -4.8879     3.6448 H       
  58 H58            4.4844    -5.3358     4.8336 H       
@<TRIPOS>BOND
   1    1    2 ar
   2    1   10 1
   3    1    6 ar
   4    2    3 ar
   5    2   11 1
   6    3    4 ar
   7    4    5 ar
   8    4    7 1
   9    5    6 ar
  10    5    9 1
  11    6   19 1
  12    7    8 1
  13    8    9 2
  14    8   12 1
  15    9   13 1
  16   11   20 1
  17   12   14 am
  18   12   15 2
  19   13   31 1
  20   13   32 1
  21   14   16 1
  22   14   33 1
  23   16   17 1
  24   16   18 1
  25   16   34 1
  26   17   18 1
  27   17   35 1
  28   17   36 1
  29   18   37 1
  30   18   38 1
  31   19   39 1
  32   19   40 1
  33   19   41 1
  34   20   21 1
  35   20   42 1
  36   20   43 1
  37   21   22 1
  38   21   44 1
  39   21   45 1
  40   22   23 1
  41   23   24 1
  42   23   46 1
  43   23   47 1
  44   24   25 1
  45   24   48 1
  46   24   49 1
  47   25   26 1
  48   25   30 1
  49   26   27 1
  50   26   50 1
  51   26   51 1
  52   27   28 1
  53   27   52 1
  54   27   53 1
  55   28   29 1
  56   28   54 1
  57   29   30 1
  58   29   55 1
  59   29   56 1
  60   30   57 1
  61   30   58 1

#	End of record

