#	Name: ASD03091034
#	Creating user name:	WinNT
#	Creation time:	15. 06. 2019 20:29

#	Modifying user name:	WinNT
#	Modification time:	15. 06. 2019 20:29

#	Program:	/corina/corina34_cracker 3.40 0067  02.08.2006

@<TRIPOS>MOLECULE
ASD03091034
  49   51    0    0    0
SMALL
NO_CHARGES


@<TRIPOS>ATOM
   1 C1            -0.4604    -0.1070     1.2553 C.2     
   2 C2            -0.0118     0.3091    -0.1219 C.3     
   3 O3             0.3617    -0.3465     2.1143 O.2     
   4 N4            -1.7752    -0.2078     1.5340 N.am    
   5 C5            -2.1920    -0.6953     2.7801 C.ar    
   6 C6            -3.3694    -0.2286     3.3495 C.ar    
   7 C7            -3.7804    -0.7085     4.5768 C.ar    
   8 C8            -3.0159    -1.6590     5.2423 C.ar    
   9 C9            -1.8381    -2.1260     4.6719 C.ar    
  10 C10           -1.4304    -1.6491     3.4423 C.ar    
  11 S11           -3.5396    -2.2715     6.8092 S.3     
  12 C12           -2.2345    -3.4547     7.2418 C.3     
  13 F13           -2.1711    -4.4561     6.2669 F       
  14 F14           -1.0054    -2.7898     7.3079 F       
  15 C15            1.5129     0.2187    -0.2107 C.3     
  16 C16            1.8623    -1.1332    -0.0505 C.2     
  17 C17            2.5747    -1.7624    -1.0070 C.2     
  18 C18            2.9662    -1.0693    -2.1607 C.2     
  19 C19            2.6188     0.2790    -2.3225 C.2     
  20 C20            1.9069     0.9120    -1.3681 C.2     
  21 N21            2.0542     0.9504     0.9424 N.3     
  22 C22            3.5229     0.9191     0.9434 C.3     
  23 C23            4.0407     1.6780     2.1380 C.ar    
  24 C24            4.2561     1.0198     3.3344 C.ar    
  25 C25            4.7310     1.7153     4.4303 C.ar    
  26 C26            4.9907     3.0705     4.3298 C.ar    
  27 C27            4.7748     3.7287     3.1322 C.ar    
  28 C28            4.3053     3.0310     2.0353 C.ar    
  29 Cl29           5.5866     3.9449     5.7061 Cl      
  30 H30           -0.4589    -0.3516    -0.8647 H       
  31 H31           -0.3266     1.3352    -0.3120 H       
  32 H32           -2.4330     0.0571     0.8721 H       
  33 H33           -3.9636     0.5102     2.8322 H       
  34 H34           -4.6957    -0.3450     5.0199 H       
  35 H35           -1.2436    -2.8648     5.1888 H       
  36 H36           -0.5169    -2.0148     2.9972 H       
  37 H37           -2.4573    -3.9036     8.2098 H       
  38 H38            1.5608    -1.6676     0.8383 H       
  39 H39            2.8434    -2.8012    -0.8843 H       
  40 H40            3.5367    -1.5747    -2.9259 H       
  41 H41            2.9214     0.8113    -3.2121 H       
  42 H42            1.6391     1.9507    -1.4932 H       
  43 H43            1.7128     1.8996     0.9610 H       
  44 H44            3.8642    -0.1149     0.9940 H       
  45 H45            3.8968     1.3809     0.0296 H       
  46 H46            4.0531    -0.0380     3.4128 H       
  47 H47            4.8990     1.2011     5.3651 H       
  48 H48            4.9774     4.7866     3.0531 H       
  49 H49            4.1409     3.5437     1.0991 H       
@<TRIPOS>BOND
   1    1    2 1
   2    1    3 2
   3    1    4 am
   4    2   15 1
   5    2   30 1
   6    2   31 1
   7    4    5 1
   8    4   32 1
   9    5    6 ar
  10    5   10 ar
  11    6    7 ar
  12    6   33 1
  13    7    8 ar
  14    7   34 1
  15    8    9 ar
  16    8   11 1
  17    9   10 ar
  18    9   35 1
  19   10   36 1
  20   11   12 1
  21   12   13 1
  22   12   14 1
  23   12   37 1
  24   15   16 1
  25   15   20 2
  26   15   21 1
  27   16   17 2
  28   16   38 1
  29   17   18 1
  30   17   39 1
  31   18   19 2
  32   18   40 1
  33   19   20 1
  34   19   41 1
  35   20   42 1
  36   21   22 1
  37   21   43 1
  38   22   23 1
  39   22   44 1
  40   22   45 1
  41   23   24 ar
  42   23   28 ar
  43   24   25 ar
  44   24   46 1
  45   25   26 ar
  46   25   47 1
  47   26   27 ar
  48   26   29 1
  49   27   28 ar
  50   27   48 1
  51   28   49 1

#	End of record

