#	Name: ASD06660031
#	Creating user name:	WinNT
#	Creation time:	15. 06. 2019 21:07

#	Modifying user name:	WinNT
#	Modification time:	15. 06. 2019 21:07

#	Program:	/corina/corina34_cracker 3.40 0067  02.08.2006

@<TRIPOS>MOLECULE
ASD06660031
  70   73    0    0    0
SMALL
NO_CHARGES


@<TRIPOS>ATOM
   1 C1            -0.4453     1.5211     1.0360 C.2     
   2 C2            -0.2948     0.0765     0.6342 C.3     
   3 C3            -1.3055    -0.2548    -0.4657 C.3     
   4 O4             0.4862     2.2814     0.9173 O.2     
   5 O5            -1.6159     1.9644     1.5207 O.3     
   6 C6            -1.2549    -1.7307    -0.7664 C.ar    
   7 C7            -2.0413    -2.6086    -0.0420 C.ar    
   8 C8            -1.9991    -3.9610    -0.3122 C.ar    
   9 C9            -1.1616    -4.4424    -1.3185 C.ar    
  10 C10           -0.3714    -3.5520    -2.0457 C.ar    
  11 C11           -0.4264    -2.2013    -1.7694 C.ar    
  12 O12           -0.2882    -6.3123    -2.5933 O.3     
  13 C13           -1.1111    -5.8919    -1.6132 C.2     
  14 N14           -1.8561    -6.6788    -0.9177 N.2     
  15 C15           -1.8875    -8.1273    -1.1036 C.3     
  16 C16           -1.2971    -8.4870    -2.4708 C.3     
  17 C17            0.0161    -7.7100    -2.6432 C.3     
  18 C18           -1.0200    -9.9903    -2.5346 C.3     
  19 N19           -0.5686   -10.3470    -3.8818 N.pl3   
  20 C20           -0.2543   -11.6672    -4.1828 C.ar    
  21 C21           -0.3708   -12.6449    -3.1998 C.ar    
  22 C22           -0.0549   -13.9544    -3.5129 C.ar    
  23 C23            0.3686   -14.2436    -4.8036 C.ar    
  24 C24            0.4612   -13.2239    -5.7292 C.ar    
  25 N25            0.1480   -11.9839    -5.4038 N.ar    
  26 C26            2.0867    -0.2849     1.0013 C.2     
  27 C27            3.4700    -0.4242     0.4965 C.ar    
  28 C28            4.0417    -1.6917     0.3671 C.ar    
  29 C29            5.3295    -1.8216    -0.1029 C.ar    
  30 C30            6.0642    -0.6854    -0.4502 C.ar    
  31 C31            5.4923     0.5821    -0.3207 C.ar    
  32 C32            4.2020     0.7112     0.1441 C.ar    
  33 O33            1.8731    -0.2899     2.1978 O.2     
  34 N34            1.0632    -0.1524     0.1345 N.am    
  35 C35            3.5825     2.0785     0.2776 C.3     
  36 C36            3.2492    -2.9174     0.7422 C.3     
  37 C37            2.4161    -3.3730    -0.4574 C.3     
  38 C38            7.4036    -0.8202    -0.9385 C.1     
  39 N39            8.4661    -0.9271    -1.3258 N.1     
  40 H40           -0.4763    -0.5620     1.4987 H       
  41 H41           -2.3075     0.0137    -0.1312 H       
  42 H42           -1.0600     0.3081    -1.3662 H       
  43 H43           -1.6643     2.8988     1.7650 H       
  44 H44           -2.6893    -2.2346     0.7369 H       
  45 H45           -2.6130    -4.6455     0.2544 H       
  46 H46            0.2793    -3.9187    -2.8258 H       
  47 H47            0.1818    -1.5104    -2.3344 H       
  48 H48           -1.3022    -8.6062    -0.3187 H       
  49 H49           -2.9184    -8.4772    -1.0505 H       
  50 H50           -1.9964    -8.2073    -3.2588 H       
  51 H51            0.4664    -7.9551    -3.6051 H       
  52 H52            0.7039    -7.9664    -1.8374 H       
  53 H53           -0.2459   -10.2481    -1.8118 H       
  54 H54           -1.9327   -10.5382    -2.3003 H       
  55 H55           -0.4889    -9.6619    -4.5639 H       
  56 H56           -0.7030   -12.3848    -2.2056 H       
  57 H57           -0.1353   -14.7346    -2.7704 H       
  58 H58            0.6232   -15.2561    -5.0802 H       
  59 H59            0.7901   -13.4444    -6.7340 H       
  60 H60            5.7716    -2.8019    -0.2026 H       
  61 H61            6.0602     1.4608    -0.5887 H       
  62 H62            1.2257    -0.2087    -0.8201 H       
  63 H63            3.7904     2.4761     1.2710 H       
  64 H64            4.0045     2.7437    -0.4757 H       
  65 H65            2.5045     2.0045     0.1341 H       
  66 H66            3.9314    -3.7156     1.0349 H       
  67 H67            2.5875    -2.6813     1.5755 H       
  68 H68            1.8065    -2.5422    -0.8130 H       
  69 H69            3.0799    -3.7044    -1.2560 H       
  70 H70            1.7683    -4.1969    -0.1580 H       
@<TRIPOS>BOND
   1    1    2 1
   2    1    4 2
   3    1    5 1
   4    2    3 1
   5    2   34 1
   6    2   40 1
   7    3    6 1
   8    3   41 1
   9    3   42 1
  10    5   43 1
  11    6    7 ar
  12    6   11 ar
  13    7    8 ar
  14    7   44 1
  15    8    9 ar
  16    8   45 1
  17    9   10 ar
  18    9   13 1
  19   10   11 ar
  20   10   46 1
  21   11   47 1
  22   12   13 1
  23   12   17 1
  24   13   14 2
  25   14   15 1
  26   15   16 1
  27   15   48 1
  28   15   49 1
  29   16   17 1
  30   16   18 1
  31   16   50 1
  32   17   51 1
  33   17   52 1
  34   18   19 1
  35   18   53 1
  36   18   54 1
  37   19   20 1
  38   19   55 1
  39   20   21 ar
  40   20   25 ar
  41   21   22 ar
  42   21   56 1
  43   22   23 ar
  44   22   57 1
  45   23   24 ar
  46   23   58 1
  47   24   25 ar
  48   24   59 1
  49   26   27 1
  50   26   33 2
  51   26   34 am
  52   27   28 ar
  53   27   32 ar
  54   28   29 ar
  55   28   36 1
  56   29   30 ar
  57   29   60 1
  58   30   31 ar
  59   30   38 1
  60   31   32 ar
  61   31   61 1
  62   32   35 1
  63   34   62 1
  64   35   63 1
  65   35   64 1
  66   35   65 1
  67   36   37 1
  68   36   66 1
  69   36   67 1
  70   37   68 1
  71   37   69 1
  72   37   70 1
  73   38   39 3

#	End of record

