#	Name: ASD00111026
#	Creating user name:	WinNT
#	Creation time:	15. 06. 2019 18:30

#	Modifying user name:	WinNT
#	Modification time:	15. 06. 2019 18:30

#	Program:	/corina/corina34_cracker 3.40 0067  02.08.2006

@<TRIPOS>MOLECULE
ASD00111026
  27   28    0    0    0
SMALL
NO_CHARGES


@<TRIPOS>ATOM
   1 C1            -0.0167     1.3791     0.0096 C.ar    
   2 C2             0.0021    -0.0041     0.0020 C.ar    
   3 C3            -1.1856    -0.7134     0.0089 C.ar    
   4 C4            -2.3885    -0.0322     0.0237 C.ar    
   5 C5            -2.4076     1.3414     0.0329 C.ar    
   6 C6            -1.2246     2.0559     0.0306 C.ar    
   7 C7            -3.6912    -0.8051     0.0292 C.3     
   8 C8            -4.3541    -0.6205     1.3980 C.3     
   9 N9            -5.1336     0.6061     1.4342 N.3     
  10 C10           -4.3882     1.8540     1.4155 C.3     
  11 C11           -3.7317     2.0769     0.0503 C.3     
  12 Cl12           1.4751     2.2669     0.0001 Cl      
  13 C13           -3.4939     3.5722    -0.1697 C.3     
  14 H14            0.9449    -0.5307    -0.0097 H       
  15 H15           -1.1732    -1.7933     0.0024 H       
  16 H16           -1.2422     3.1358     0.0384 H       
  17 H17           -4.3484    -0.4230    -0.7519 H       
  18 H18           -3.4915    -1.8628    -0.1427 H       
  19 H19           -5.0102    -1.4682     1.5957 H       
  20 H20           -3.5829    -0.5780     2.1671 H       
  21 H21           -5.8486     0.6013     0.7223 H       
  22 H22           -5.0671     2.6803     1.6260 H       
  23 H23           -3.6154     1.8214     2.1835 H       
  24 H24           -4.3781     1.6875    -0.7362 H       
  25 H25           -2.8389     3.9549     0.6130 H       
  26 H26           -3.0267     3.7266    -1.1422 H       
  27 H27           -4.4468     4.1004    -0.1364 H       
@<TRIPOS>BOND
   1    1    2 ar
   2    1   12 1
   3    1    6 ar
   4    2    3 ar
   5    2   14 1
   6    3    4 ar
   7    3   15 1
   8    4    5 ar
   9    4    7 1
  10    5    6 ar
  11    5   11 1
  12    6   16 1
  13    7    8 1
  14    7   17 1
  15    7   18 1
  16    8    9 1
  17    8   19 1
  18    8   20 1
  19    9   10 1
  20    9   21 1
  21   10   11 1
  22   10   22 1
  23   10   23 1
  24   11   13 1
  25   11   24 1
  26   13   25 1
  27   13   26 1
  28   13   27 1

#	End of record

