#	Name: ASD01000128
#	Creating user name:	WinNT
#	Creation time:	15. 06. 2019 18:54

#	Modifying user name:	WinNT
#	Modification time:	15. 06. 2019 18:54

#	Program:	/corina/corina34_cracker 3.40 0067  02.08.2006

@<TRIPOS>MOLECULE
ASD01000128
  40   44    0    0    0
SMALL
NO_CHARGES


@<TRIPOS>ATOM
   1 C1            -0.0184     1.5039     0.0103 C.3     
   2 C2             0.0021    -0.0041     0.0020 C.2     
   3 C3             1.0416    -0.7788    -0.3733 C.2     
   4 C4             2.3731    -0.2271    -0.8438 C.3     
   5 N5             2.1959     1.2250    -0.9687 N.am    
   6 C6             1.4210     2.0323    -0.0006 C.3     
   7 C7            -1.0715    -0.9025     0.3858 C.ar    
   8 C8            -0.5717    -2.2166     0.1996 C.ar    
   9 N9             0.7081    -2.1021    -0.2614 N.pl3   
  10 C10           -2.3690    -0.6776     0.8542 C.ar    
  11 C11           -3.1315    -1.7878     1.1239 C.ar    
  12 C12           -2.6486    -3.0734     0.9449 C.ar    
  13 C13           -1.3683    -3.3242     0.4812 C.ar    
  14 C14            2.6459     2.0576    -1.9091 C.2     
  15 N15            2.2079     3.3115    -1.7258 N.am    
  16 C16            1.4499     3.4171    -0.6151 C.2     
  17 C17            2.7361    -0.8210    -2.1805 C.ar    
  18 C18            2.1675    -0.3194    -3.3364 C.ar    
  19 C19            2.4981    -0.8625    -4.5644 C.ar    
  20 C20            3.3978    -1.9079    -4.6388 C.ar    
  21 C21            3.9703    -2.4128    -3.4801 C.ar    
  22 C22            3.6412    -1.8625    -2.2501 C.ar    
  23 O23            4.8555    -3.4416    -3.5507 O.3     
  24 *24            2.5227     4.4561    -2.6428 Du      
  25 O25            0.9037     4.4146    -0.1951 O.2     
  26 O26            3.3691     1.7188    -2.8252 O.2     
  27 H27           -0.5451     1.8652    -0.8729 H       
  28 H28           -0.5281     1.8557     0.9073 H       
  29 H29            3.1496    -0.4479    -0.1115 H       
  30 H30            1.8655     2.0067     0.9943 H       
  31 H31            1.2926    -2.8455    -0.4771 H       
  32 H32           -2.7536     0.3213     0.9976 H       
  33 H33           -4.1396    -1.6539     1.4874 H       
  34 H34           -3.2932    -3.9090     1.1742 H       
  35 H35           -1.0037    -4.3317     0.3456 H       
  36 H36            1.4635     0.4977    -3.2803 H       
  37 H37            2.0523    -0.4692    -5.4660 H       
  38 H38            3.6553    -2.3322    -5.5981 H       
  39 H39            4.0855    -2.2538    -1.3467 H       
  40 H40            5.7761    -3.1623    -3.6480 H       
@<TRIPOS>BOND
   1    1    2 1
   2    1    6 1
   3    1   27 1
   4    1   28 1
   5    2    3 2
   6    2    7 1
   7    3    4 1
   8    3    9 1
   9    4    5 1
  10    4   17 1
  11    4   29 1
  12    5    6 1
  13    5   14 am
  14    6   16 1
  15    6   30 1
  16    7    8 ar
  17    7   10 ar
  18    8    9 1
  19    8   13 ar
  20    9   31 1
  21   10   11 ar
  22   10   32 1
  23   11   12 ar
  24   11   33 1
  25   12   13 ar
  26   12   34 1
  27   13   35 1
  28   14   15 am
  29   14   26 2
  30   15   16 am
  31   15   24 1
  32   16   25 2
  33   17   18 ar
  34   17   22 ar
  35   18   19 ar
  36   18   36 1
  37   19   20 ar
  38   19   37 1
  39   20   21 ar
  40   20   38 1
  41   21   22 ar
  42   21   23 1
  43   22   39 1
  44   23   40 1

#	End of record

