#	Name: ASD01913206
#	Creating user name:	WinNT
#	Creation time:	15. 06. 2019 20:01

#	Modifying user name:	WinNT
#	Modification time:	15. 06. 2019 20:01

#	Program:	/corina/corina34_cracker 3.40 0067  02.08.2006

@<TRIPOS>MOLECULE
ASD01913206
  49   52    0    0    0
SMALL
NO_CHARGES


@<TRIPOS>ATOM
   1 C1             0.0758     1.2452     1.0381 C.ar    
   2 C2             0.0685    -0.1059     0.7405 C.ar    
   3 C3             1.2715    -0.7679     0.5843 C.ar    
   4 C4             2.4535    -0.0480     0.7333 C.ar    
   5 C5             2.3800     1.3069     1.0332 C.ar    
   6 N6             1.2117     1.9012     1.1728 N.ar    
   7 N7            -0.4579    -2.3946     0.2409 N.am    
   8 C8            -1.0553    -1.0872     0.5341 C.3     
   9 C9             0.9979    -2.2132     0.2682 C.3     
  10 N10            3.6921    -0.6768     0.5846 N.pl3   
  11 C11            3.6479     2.1045     1.1992 C.3     
  12 C12           -1.1195    -3.5426    -0.0059 C.2     
  13 C13           -2.5898    -3.5888     0.1192 C.ar    
  14 C14           -3.2605    -4.8066     0.0149 C.ar    
  15 C15           -4.6480    -4.8439     0.1343 C.ar    
  16 C16           -5.3605    -3.6544     0.3590 C.ar    
  17 C17           -4.6825    -2.4482     0.4606 C.ar    
  18 C18           -3.3095    -2.4118     0.3483 C.ar    
  19 O19           -0.5055    -4.5402    -0.3316 O.2     
  20 C20           -5.3452    -6.0902     0.0280 C.1     
  21 C21           -5.9169    -7.1119    -0.0592 C.1     
  22 C22           -6.6141    -8.3582    -0.1655 C.ar    
  23 C23           -8.0063    -8.3869    -0.0445 C.ar    
  24 C24           -8.6642    -9.5985    -0.1496 C.ar    
  25 C25           -7.9124   -10.7448    -0.3724 C.ar    
  26 C26           -6.5377   -10.6454    -0.4822 C.ar    
  27 N27           -5.9331    -9.4791    -0.3840 N.ar    
  28 O28           -6.7112    -3.6848     0.4760 O.3     
  29 C29           -7.3709    -2.4379     0.7037 C.3     
  30 H30           -0.8606     1.7700     1.1572 H       
  31 H31           -1.6601    -1.1519     1.4386 H       
  32 H32           -1.6752    -0.7681    -0.3038 H       
  33 H33            1.4201    -2.4652    -0.7046 H       
  34 H34            1.4352    -2.8491     1.0380 H       
  35 H35            3.7336    -1.6231     0.3756 H       
  36 H36            4.5106    -0.1671     0.6903 H       
  37 H37            3.9455     2.5184     0.2358 H       
  38 H38            3.4764     2.9163     1.9061 H       
  39 H39            4.4386     1.4557     1.5758 H       
  40 H40           -2.7066    -5.7174    -0.1582 H       
  41 H41           -5.2324    -1.5349     0.6330 H       
  42 H42           -2.7876    -1.4701     0.4332 H       
  43 H43           -8.5601    -7.4761     0.1290 H       
  44 H44           -9.7391    -9.6523    -0.0601 H       
  45 H45           -8.3975   -11.7059    -0.4587 H       
  46 H46           -5.9517   -11.5359    -0.6555 H       
  47 H47           -7.0064    -1.9981     1.6320 H       
  48 H48           -7.1640    -1.7607    -0.1250 H       
  49 H49           -8.4457    -2.6037     0.7777 H       
@<TRIPOS>BOND
   1    1    2 ar
   2    1    6 ar
   3    1   30 1
   4    2    3 ar
   5    2    8 1
   6    3    4 ar
   7    3    9 1
   8    4    5 ar
   9    4   10 1
  10    5    6 ar
  11    5   11 1
  12    7    8 1
  13    7    9 1
  14    7   12 am
  15    8   31 1
  16    8   32 1
  17    9   33 1
  18    9   34 1
  19   10   35 1
  20   10   36 1
  21   11   37 1
  22   11   38 1
  23   11   39 1
  24   12   13 1
  25   12   19 2
  26   13   14 ar
  27   13   18 ar
  28   14   15 ar
  29   14   40 1
  30   15   16 ar
  31   15   20 1
  32   16   17 ar
  33   16   28 1
  34   17   18 ar
  35   17   41 1
  36   18   42 1
  37   20   21 3
  38   21   22 1
  39   22   23 ar
  40   22   27 ar
  41   23   24 ar
  42   23   43 1
  43   24   25 ar
  44   24   44 1
  45   25   26 ar
  46   25   45 1
  47   26   27 ar
  48   26   46 1
  49   28   29 1
  50   29   47 1
  51   29   48 1
  52   29   49 1

#	End of record

