#	Name: ASD01840274
#	Creating user name:	WinNT
#	Creation time:	15. 06. 2019 19:37

#	Modifying user name:	WinNT
#	Modification time:	15. 06. 2019 19:37

#	Program:	/corina/corina34_cracker 3.40 0067  02.08.2006

@<TRIPOS>MOLECULE
ASD01840274
  44   47    0    0    0
SMALL
NO_CHARGES


@<TRIPOS>ATOM
   1 C1            -0.0808     1.6709     0.2486 C.3     
   2 C2             0.3043     0.2150     0.1932 C.2     
   3 C3             0.7712    -0.3582    -0.9214 C.2     
   4 S4             1.1225    -2.0558    -0.6473 S.3     
   5 C5             0.6097    -1.9437     1.0316 C.ar    
   6 N6             0.5636    -2.8610     1.9978 N.ar    
   7 N7             0.1525    -2.5845     3.1798 N.ar    
   8 C8            -0.2545    -1.3757     3.5279 C.ar    
   9 C9            -0.7247    -1.1222     4.9370 C.3     
  10 C10           -0.2516    -0.3543     2.6203 C.ar    
  11 C11           -0.7130     1.0271     3.0076 C.3     
  12 C12            0.2031    -0.6284     1.3072 C.ar    
  13 C13            0.9640     0.3394    -2.2028 C.2     
  14 O14            0.8216     1.5457    -2.2660 O.2     
  15 N15            1.2984    -0.3584    -3.3063 N.am    
  16 C16            1.4903     0.3360    -4.5819 C.3     
  17 C17            2.9609     0.4127    -5.0305 C.3     
  18 N18            2.7094    -0.8639    -5.7350 N.3     
  19 C19            1.2639    -0.5581    -5.8144 C.3     
  20 C20            3.2927    -0.8585    -7.0045 C.ar    
  21 C21            4.5502    -0.2936    -7.2020 C.ar    
  22 C22            5.0868    -0.3124    -8.4791 C.ar    
  23 C23            4.3629    -0.8863    -9.5074 C.ar    
  24 N24            3.1741    -1.4132    -9.2876 N.ar    
  25 C25            2.6293    -1.4217    -8.0875 C.ar    
  26 H26            0.6681     2.2235     0.8158 H       
  27 H27           -0.1377     2.0705    -0.7639 H       
  28 H28           -1.0516     1.7717     0.7340 H       
  29 H29            0.1213    -0.8177     5.5532 H       
  30 H30           -1.4746    -0.3312     4.9330 H       
  31 H31           -1.1610    -2.0344     5.3441 H       
  32 H32            0.1537     1.6704     3.1596 H       
  33 H33           -1.3357     1.4382     2.2130 H       
  34 H34           -1.2908     0.9718     3.9302 H       
  35 H35            1.4120    -1.3204    -3.2560 H       
  36 H36            0.9651     1.2900    -4.6296 H       
  37 H37            3.1736     1.2480    -5.6977 H       
  38 H38            3.6749     0.3288    -4.2112 H       
  39 H39            0.6220    -1.4176    -5.6213 H       
  40 H40            0.9802    -0.0068    -6.7108 H       
  41 H41            5.0935     0.1486    -6.3800 H       
  42 H42            6.0595     0.1168    -8.6692 H       
  43 H43            4.7766    -0.9032   -10.5048 H       
  44 H44            1.6557    -1.8670    -7.9455 H       
@<TRIPOS>BOND
   1    1    2 1
   2    1   26 1
   3    1   27 1
   4    1   28 1
   5    2   12 1
   6    2    3 2
   7    3    4 1
   8    3   13 1
   9    4    5 1
  10    5   12 ar
  11    5    6 ar
  12    6    7 ar
  13    7    8 ar
  14    8    9 1
  15    8   10 ar
  16    9   29 1
  17    9   30 1
  18    9   31 1
  19   10   11 1
  20   10   12 ar
  21   11   32 1
  22   11   33 1
  23   11   34 1
  24   13   14 2
  25   13   15 am
  26   15   16 1
  27   15   35 1
  28   16   19 1
  29   16   17 1
  30   16   36 1
  31   17   18 1
  32   17   37 1
  33   17   38 1
  34   18   19 1
  35   18   20 1
  36   19   39 1
  37   19   40 1
  38   20   25 ar
  39   20   21 ar
  40   21   22 ar
  41   21   41 1
  42   22   23 ar
  43   22   42 1
  44   23   24 ar
  45   23   43 1
  46   24   25 ar
  47   25   44 1

#	End of record

