#	Name: ASD01914817
#	Creating user name:	WinNT
#	Creation time:	15. 06. 2019 20:04

#	Modifying user name:	WinNT
#	Modification time:	15. 06. 2019 20:04

#	Program:	/corina/corina34_cracker 3.40 0067  02.08.2006

@<TRIPOS>MOLECULE
ASD01914817
  56   60    0    0    0
SMALL
NO_CHARGES


@<TRIPOS>ATOM
   1 N1             0.0272     1.3907    -0.1031 N.2     
   2 C2            -0.0389     0.0592     0.0782 C.2     
   3 C3             1.2322    -0.4204     0.1478 C.2     
   4 N4             2.0695     0.6500     0.0047 N.pl3   
   5 C5             1.2870     1.7578    -0.1489 C.2     
   6 C6            -1.2810    -0.7455     0.1838 C.ar    
   7 C7            -2.5255    -0.1251     0.0945 C.ar    
   8 C8            -1.2068    -2.1249     0.3667 C.ar    
   9 C9            -2.3649    -2.8700     0.4639 C.ar    
  10 C10           -3.5982    -2.2507     0.3798 C.ar    
  11 C11           -3.6791    -0.8800     0.1931 C.ar    
  12 C12            1.7766     3.1409    -0.3363 C.ar    
  13 C13            3.0851     3.4746     0.0152 C.ar    
  14 C14            3.5358     4.7664    -0.1625 C.ar    
  15 C15            2.6934     5.7301    -0.6875 C.ar    
  16 C16            1.3949     5.4057    -1.0380 C.ar    
  17 C17            0.9338     4.1161    -0.8706 C.ar    
  18 C18            3.5340     0.6152     0.0148 C.3     
  19 C19            4.0324     0.8477     1.4178 C.2     
  20 O20            3.2420     1.0250     2.3205 O.2     
  21 N21            5.3564     0.8586     1.6696 N.am    
  22 C22            5.8641     1.0837     3.0315 C.3     
  23 C23            6.3317     0.6396     0.5907 C.3     
  24 C24            7.3066    -0.4576     1.0311 C.3     
  25 N25            7.8886    -0.0981     2.3311 N.3     
  26 C26            6.8583    -0.0319     3.3709 C.3     
  27 C27            8.8930    -0.9827     2.6836 C.ar    
  28 N28            9.9111    -1.1683     1.8563 N.ar    
  29 N29            8.8162    -1.6198     3.8428 N.ar    
  30 C30            9.7593    -2.4715     4.2100 C.ar    
  31 C31           10.8361    -2.6932     3.3659 C.ar    
  32 C32           10.8876    -2.0063     2.1631 C.ar    
  33 F33           -4.8869    -0.2802     0.1121 F       
  34 H34            1.5240    -1.4506     0.2896 H       
  35 H35           -2.5885     0.9432    -0.0510 H       
  36 H36           -0.2444    -2.6106     0.4320 H       
  37 H37           -2.3073    -3.9391     0.6057 H       
  38 H38           -4.5015    -2.8377     0.4560 H       
  39 H39            3.7435     2.7234     0.4258 H       
  40 H40            4.5484     5.0260     0.1092 H       
  41 H41            3.0507     6.7401    -0.8240 H       
  42 H42            0.7420     6.1626    -1.4470 H       
  43 H43           -0.0799     3.8640    -1.1449 H       
  44 H44            3.8767    -0.3583    -0.3359 H       
  45 H45            3.9205     1.3946    -0.6419 H       
  46 H46            6.3669     2.0495     3.0798 H       
  47 H47            5.0353     1.0634     3.7392 H       
  48 H48            5.8120     0.3258    -0.3146 H       
  49 H49            6.8804     1.5620     0.4002 H       
  50 H50            6.7730    -1.4038     1.1207 H       
  51 H51            8.1013    -0.5564     0.2916 H       
  52 H52            7.3255     0.1782     4.3330 H       
  53 H53            6.3316    -0.9848     3.4222 H       
  54 H54            9.6914    -2.9876     5.1563 H       
  55 H55           11.6201    -3.3830     3.6412 H       
  56 H56           11.7129    -2.1563     1.4829 H       
@<TRIPOS>BOND
   1    1    2 1
   2    1    5 2
   3    2    3 2
   4    2    6 1
   5    3    4 1
   6    3   34 1
   7    4    5 1
   8    4   18 1
   9    5   12 1
  10    6    7 ar
  11    6    8 ar
  12    7   11 ar
  13    7   35 1
  14    8    9 ar
  15    8   36 1
  16    9   10 ar
  17    9   37 1
  18   10   11 ar
  19   10   38 1
  20   11   33 1
  21   12   13 ar
  22   12   17 ar
  23   13   14 ar
  24   13   39 1
  25   14   15 ar
  26   14   40 1
  27   15   16 ar
  28   15   41 1
  29   16   17 ar
  30   16   42 1
  31   17   43 1
  32   18   19 1
  33   18   44 1
  34   18   45 1
  35   19   20 2
  36   19   21 am
  37   21   22 1
  38   21   23 1
  39   22   26 1
  40   22   46 1
  41   22   47 1
  42   23   24 1
  43   23   48 1
  44   23   49 1
  45   24   25 1
  46   24   50 1
  47   24   51 1
  48   25   26 1
  49   25   27 1
  50   26   52 1
  51   26   53 1
  52   27   28 ar
  53   27   29 ar
  54   28   32 ar
  55   29   30 ar
  56   30   31 ar
  57   30   54 1
  58   31   32 ar
  59   31   55 1
  60   32   56 1

#	End of record

