#	Name: ASD02508062
#	Creating user name:	WinNT
#	Creation time:	15. 06. 2019 20:23

#	Modifying user name:	WinNT
#	Modification time:	15. 06. 2019 20:23

#	Program:	/corina/corina34_cracker 3.40 0067  02.08.2006

@<TRIPOS>MOLECULE
ASD02508062
  30   32    0    0    0
SMALL
NO_CHARGES


@<TRIPOS>ATOM
   1 C1            -0.0181     1.3788     0.0159 C.ar    
   2 C2             0.0059    -0.0023     0.1260 C.ar    
   3 C3             1.1736     2.0926    -0.1124 C.ar    
   4 C4             2.3825     1.4163    -0.1299 C.ar    
   5 C5             2.4022     0.0333    -0.0198 C.ar    
   6 C6             1.2126    -0.6738     0.1087 C.ar    
   7 N7            -1.0503     2.3202    -0.0046 N.am    
   8 C8            -0.4852     3.5369    -0.1332 C.2     
   9 O9             0.8490     3.4059    -0.1993 O.3     
  10 N10            3.6223    -0.6509    -0.0377 N.am    
  11 S11            4.9597     0.0224     0.6697 S.o2    
  12 C12            4.5820     0.2653     2.3735 C.2     
  13 S13            3.8611     1.7177     3.0552 S.3     
  14 O14           -1.0906     4.5902    -0.1859 O.2     
  15 O15            5.9795    -0.9659     0.6217 O.2     
  16 O16            5.1048     1.3171     0.1023 O.2     
  17 C17            1.2395    -2.1759     0.2280 C.3     
  18 C18            4.7937    -0.6262     3.3428 C.2     
  19 C19            4.4156    -0.2126     4.6085 C.2     
  20 C20            3.8950     1.0141     4.6668 C.2     
  21 H21           -0.9179    -0.5529     0.2256 H       
  22 H22            3.3078     1.9644    -0.2294 H       
  23 H23           -1.9997     2.1324     0.0612 H       
  24 H24            3.6849    -1.5197    -0.4645 H       
  25 H25            1.3075    -2.4557     1.2792 H       
  26 H26            0.3270    -2.5907    -0.2002 H       
  27 H27            2.1035    -2.5676    -0.3089 H       
  28 H28            5.2269    -1.5974     3.1542 H       
  29 H29            4.5315    -0.8366     5.4823 H       
  30 H30            3.5463     1.5003     5.5659 H       
@<TRIPOS>BOND
   1    1    2 ar
   2    1    3 ar
   3    1    7 1
   4    2    6 ar
   5    2   21 1
   6    3    4 ar
   7    3    9 1
   8    4    5 ar
   9    4   22 1
  10    5    6 ar
  11    5   10 1
  12    6   17 1
  13    7    8 am
  14    7   23 1
  15    8    9 1
  16    8   14 2
  17   10   11 am
  18   10   24 1
  19   11   12 1
  20   11   15 2
  21   11   16 2
  22   12   13 1
  23   12   18 2
  24   13   20 1
  25   17   25 1
  26   17   26 1
  27   17   27 1
  28   18   19 1
  29   18   28 1
  30   19   20 2
  31   19   29 1
  32   20   30 1

#	End of record

