#	Name: ASD01911179
#	Creating user name:	WinNT
#	Creation time:	15. 06. 2019 19:57

#	Modifying user name:	WinNT
#	Modification time:	15. 06. 2019 19:57

#	Program:	/corina/corina34_cracker 3.40 0067  02.08.2006

@<TRIPOS>MOLECULE
ASD01911179
  46   49    0    0    0
SMALL
NO_CHARGES


@<TRIPOS>ATOM
   1 C1            -0.4892     0.5154     1.2055 C.ar    
   2 C2            -0.2140    -0.8416     1.2625 C.ar    
   3 C3             0.8973    -1.3359     0.5828 C.ar    
   4 N4             1.6825    -0.5200    -0.1097 N.ar    
   5 C5             1.4443     0.7716    -0.1804 C.ar    
   6 C6             0.3567     1.3314     0.4704 C.ar    
   7 C7             1.2053    -2.7839     0.6337 C.2     
   8 N8             2.2789    -3.2679    -0.0217 N.am    
   9 C9             2.6245    -4.6176     0.1030 C.ar    
  10 C10            3.9494    -5.0116    -0.0308 C.ar    
  11 C11            4.2880    -6.3450     0.0928 C.ar    
  12 C12            3.3083    -7.2878     0.3493 C.ar    
  13 C13            1.9870    -6.8980     0.4827 C.ar    
  14 C14            1.6439    -5.5655     0.3667 C.ar    
  15 C15            5.0168    -3.9853    -0.3112 C.3     
  16 N16            5.4059    -3.3310     0.9405 N.am    
  17 C17            6.3069    -3.8114     1.8149 C.2     
  18 C18            6.4217    -2.8718     2.9413 C.2     
  19 C19            5.5653    -1.8481     2.6853 C.2     
  20 C20            4.9190    -2.1576     1.3825 C.2     
  21 O21            4.0896    -1.4738     0.8192 O.2     
  22 O22            6.9248    -4.8506     1.6947 O.2     
  23 O23            0.4900    -3.5354     1.2666 O.2     
  24 C24            5.3274    -0.6609     3.5312 C.ar    
  25 C25            6.3516     0.2656     3.7450 C.ar    
  26 C26            6.1223     1.3716     4.5360 C.ar    
  27 C27            4.8812     1.5654     5.1175 C.ar    
  28 C28            3.8622     0.6518     4.9105 C.ar    
  29 C29            4.0752    -0.4557     4.1169 C.ar    
  30 Cl30           3.7372    -8.9629     0.5035 Cl      
  31 H31           -1.3458     0.9272     1.7184 H       
  32 H32           -0.8516    -1.5066     1.8262 H       
  33 H33            2.1058     1.4046    -0.7534 H       
  34 H34            0.1698     2.3931     0.4056 H       
  35 H35            2.8119    -2.6804    -0.5800 H       
  36 H36            5.3182    -6.6519    -0.0112 H       
  37 H37            1.2242    -7.6360     0.6822 H       
  38 H38            0.6128    -5.2618     0.4709 H       
  39 H39            5.8857    -4.4755    -0.7504 H       
  40 H40            4.6304    -3.2397    -1.0061 H       
  41 H41            7.0622    -2.9759     3.8047 H       
  42 H42            7.3206     0.1154     3.2922 H       
  43 H43            6.9130     2.0882     4.7024 H       
  44 H44            4.7073     2.4334     5.7361 H       
  45 H45            2.8965     0.8092     5.3677 H       
  46 H46            3.2791    -1.1675     3.9560 H       
@<TRIPOS>BOND
   1    1    2 ar
   2    1    6 ar
   3    1   31 1
   4    2    3 ar
   5    2   32 1
   6    3    4 ar
   7    3    7 1
   8    4    5 ar
   9    5    6 ar
  10    5   33 1
  11    6   34 1
  12    7    8 am
  13    7   23 2
  14    8    9 1
  15    8   35 1
  16    9   10 ar
  17    9   14 ar
  18   10   11 ar
  19   10   15 1
  20   11   12 ar
  21   11   36 1
  22   12   13 ar
  23   12   30 1
  24   13   14 ar
  25   13   37 1
  26   14   38 1
  27   15   16 1
  28   15   39 1
  29   15   40 1
  30   16   17 am
  31   16   20 am
  32   17   18 1
  33   17   22 2
  34   18   19 2
  35   18   41 1
  36   19   20 1
  37   19   24 1
  38   20   21 2
  39   24   25 ar
  40   24   29 ar
  41   25   26 ar
  42   25   42 1
  43   26   27 ar
  44   26   43 1
  45   27   28 ar
  46   27   44 1
  47   28   29 ar
  48   28   45 1
  49   29   46 1

#	End of record

