#	Name: ASD01140373
#	Creating user name:	WinNT
#	Creation time:	15. 06. 2019 19:00

#	Modifying user name:	WinNT
#	Modification time:	15. 06. 2019 19:00

#	Program:	/corina/corina34_cracker 3.40 0067  02.08.2006

@<TRIPOS>MOLECULE
ASD01140373
  43   47    0    0    0
SMALL
NO_CHARGES


@<TRIPOS>ATOM
   1 S1            -0.0218     1.7597     0.0117 S.3     
   2 C2             0.0021    -0.0041     0.0020 C.2     
   3 N3             1.2502    -0.3825    -0.0119 N.2     
   4 N4             2.1145     0.5377    -0.0152 N.2     
   5 C5             1.6909     1.7653    -0.0046 C.2     
   6 O6             2.4759     2.8704    -0.0066 O.3     
   7 C7             6.0930     3.6688    -0.6237 C.3     
   8 C8             4.5690     3.8287    -0.7439 C.3     
   9 C9             3.8895     2.6620    -0.0211 C.3     
  10 C10            4.4062     2.5740     1.4178 C.3     
  11 C11            5.9413     2.4991     1.3915 C.3     
  12 C12            6.3450     1.4348     0.3452 C.3     
  13 C13            6.4452     2.2077    -0.9864 C.3     
  14 N14            6.4353     3.7798     0.8193 N.3     
  15 C15            7.8859     3.9155     1.0073 C.3     
  16 C16           -3.4124    -2.5490     0.0231 C.ar    
  17 C17           -2.1346    -3.1177     0.0066 C.ar    
  18 C18           -2.1894    -4.5711    -0.0015 C.2     
  19 C19           -3.4048    -5.0803     0.0079 C.2     
  20 S20           -4.6261    -3.8231     0.0279 S.3     
  21 C21           -1.0104    -2.2678     0.0002 C.ar    
  22 C22           -1.1794    -0.8929     0.0093 C.ar    
  23 C23           -2.4677    -0.3434     0.0258 C.ar    
  24 C24           -3.5594    -1.1571     0.0272 C.ar    
  25 H25            6.6312     4.3880    -1.2411 H       
  26 H26            4.2634     4.7695    -0.2861 H       
  27 H27            4.2831     3.8227    -1.7957 H       
  28 H28            4.1136     1.7320    -0.5435 H       
  29 H29            4.0933     3.4584     1.9728 H       
  30 H30            4.0053     1.6801     1.8956 H       
  31 H31            6.3590     2.2884     2.3760 H       
  32 H32            7.3090     0.9962     0.6027 H       
  33 H33            5.5809     0.6604     0.2776 H       
  34 H34            5.7305     1.8133    -1.7086 H       
  35 H35            7.4586     2.1492    -1.3835 H       
  36 H36            8.2364     4.8115     0.4950 H       
  37 H37            8.1085     3.9948     2.0713 H       
  38 H38            8.3891     3.0409     0.5950 H       
  39 H39           -1.3017    -5.1861    -0.0147 H       
  40 H40           -3.6211    -6.1384     0.0038 H       
  41 H41           -0.0159    -2.6889    -0.0122 H       
  42 H42           -2.5955     0.7290     0.0332 H       
  43 H43           -4.5488    -0.7242     0.0396 H       
@<TRIPOS>BOND
   1    1    2 1
   2    1    5 1
   3    2    3 2
   4    2   22 1
   5    3    4 1
   6    4    5 2
   7    5    6 1
   8    6    9 1
   9    7    8 1
  10    7   13 1
  11    7   14 1
  12    7   25 1
  13    8    9 1
  14    8   26 1
  15    8   27 1
  16    9   10 1
  17    9   28 1
  18   10   11 1
  19   10   29 1
  20   10   30 1
  21   11   12 1
  22   11   14 1
  23   11   31 1
  24   12   13 1
  25   12   32 1
  26   12   33 1
  27   13   34 1
  28   13   35 1
  29   14   15 1
  30   15   36 1
  31   15   37 1
  32   15   38 1
  33   16   17 ar
  34   16   20 1
  35   16   24 ar
  36   17   18 1
  37   17   21 ar
  38   18   19 2
  39   18   39 1
  40   19   20 1
  41   19   40 1
  42   21   22 ar
  43   21   41 1
  44   22   23 ar
  45   23   24 ar
  46   23   42 1
  47   24   43 1

#	End of record

