#	Name: ASD00431240
#	Creating user name:	WinNT
#	Creation time:	15. 06. 2019 18:35

#	Modifying user name:	WinNT
#	Modification time:	15. 06. 2019 18:35

#	Program:	/corina/corina34_cracker 3.40 0067  02.08.2006

@<TRIPOS>MOLECULE
ASD00431240
  41   43    0    0    0
SMALL
NO_CHARGES


@<TRIPOS>ATOM
   1 C1             5.2737    10.1120    -6.6965 C.2     
   2 C2             6.1863    10.0602    -7.8947 C.3     
   3 C3             5.5874     9.3743    -5.5415 C.2     
   4 C4             4.8339     9.3438    -4.3926 C.2     
   5 C5             5.3371     8.5557    -3.4022 C.2     
   6 C6             6.5137     7.9214    -3.7138 C.2     
   7 S7             6.9996     8.3443    -5.3498 S.3     
   8 S8             6.7836     6.5766    -1.1799 S.3     
   9 C9             8.1738     5.5920    -1.0386 C.2     
  10 N10            8.8712     5.6349    -2.1331 N.2     
  11 C11            8.4128     6.3868    -3.1070 C.2     
  12 C12            7.2514     7.0222    -2.8190 C.2     
  13 O13            8.5015     4.8703     0.0589 O.3     
  14 C14            9.5860     4.0536    -0.0146 C.ar    
  15 C15           10.8534     4.5958    -0.1707 C.ar    
  16 C16           11.9551     3.7662    -0.2454 C.ar    
  17 C17           11.7943     2.3908    -0.1644 C.ar    
  18 C18           10.5271     1.8485    -0.0088 C.ar    
  19 C19            9.4259     2.6783     0.0721 C.ar    
  20 O20           12.8789     1.5740    -0.2379 O.3     
  21 C21           14.1345     2.1882    -0.5350 C.3     
  22 C22           14.8640     2.5147     0.7697 C.3     
  23 C23           14.9864     1.2296    -1.3695 C.3     
  24 O24            4.2691    10.7956    -6.7269 O.2     
  25 H25            7.0304     9.4047    -7.6804 H       
  26 H26            5.6365     9.6757    -8.7538 H       
  27 H27            6.5520    11.0628    -8.1165 H       
  28 H28            3.9153     9.9011    -4.2834 H       
  29 H29            4.8485     8.4392    -2.4461 H       
  30 H30            8.9180     6.4897    -4.0560 H       
  31 H31           10.9786     5.6667    -0.2341 H       
  32 H32           12.9417     4.1882    -0.3672 H       
  33 H33           10.4020     0.7776     0.0539 H       
  34 H34            8.4399     2.2563     0.1984 H       
  35 H35           13.9657     3.1070    -1.0967 H       
  36 H36           15.8217     2.9831     0.5431 H       
  37 H37           14.2571     3.1976     1.3641 H       
  38 H38           15.0327     1.5959     1.3313 H       
  39 H39           14.4667     0.9970    -2.2990 H       
  40 H40           15.9441     1.6980    -1.5961 H       
  41 H41           15.1551     0.3108    -0.8078 H       
@<TRIPOS>BOND
   1    1    2 1
   2    1    3 1
   3    1   24 2
   4    2   25 1
   5    2   26 1
   6    2   27 1
   7    3    4 2
   8    3    7 1
   9    4    5 1
  10    4   28 1
  11    5    6 2
  12    5   29 1
  13    6    7 1
  14    6   12 1
  15    8    9 1
  16    8   12 1
  17    9   10 2
  18    9   13 1
  19   10   11 1
  20   11   12 2
  21   11   30 1
  22   13   14 1
  23   14   15 ar
  24   14   19 ar
  25   15   16 ar
  26   15   31 1
  27   16   17 ar
  28   16   32 1
  29   17   18 ar
  30   17   20 1
  31   18   19 ar
  32   18   33 1
  33   19   34 1
  34   20   21 1
  35   21   22 1
  36   21   23 1
  37   21   35 1
  38   22   36 1
  39   22   37 1
  40   22   38 1
  41   23   39 1
  42   23   40 1
  43   23   41 1

#	End of record

