#	Name: ASD01208925
#	Creating user name:	WinNT
#	Creation time:	15. 06. 2019 19:10

#	Modifying user name:	WinNT
#	Modification time:	15. 06. 2019 19:10

#	Program:	/corina/corina34_cracker 3.40 0067  02.08.2006

@<TRIPOS>MOLECULE
ASD01208925
  59   62    0    0    0
SMALL
NO_CHARGES


@<TRIPOS>ATOM
   1 S1             0.3751     1.7087    -0.9122 S.3     
   2 C2             0.3064    -0.0301    -1.1734 C.2     
   3 N3             1.4575    -0.4491    -1.5946 N.2     
   4 C4             2.3999     0.4885    -1.7315 C.2     
   5 C5             2.0109     1.7392    -1.4091 C.2     
   6 C6             3.7611     0.1794    -2.1988 C.2     
   7 O7             4.5839     1.0688    -2.3063 O.2     
   8 N8             4.0958    -1.0892    -2.5075 N.am    
   9 C9            -1.9569    -0.2795    -0.5185 C.2     
  10 C10           -3.1441    -1.1304    -0.2917 C.ar    
  11 C11           -4.3344    -0.5633     0.1659 C.ar    
  12 C12           -5.4445    -1.3640     0.3767 C.ar    
  13 C13           -5.3747    -2.7283     0.1337 C.ar    
  14 C14           -4.1934    -3.2963    -0.3212 C.ar    
  15 C15           -3.0796    -2.5017    -0.5398 C.ar    
  16 O16           -2.0165     0.9160    -0.3065 O.2     
  17 N17           -0.8084    -0.8291    -0.9604 N.am    
  18 O18           -4.1303    -4.6330    -0.5577 O.3     
  19 C19           -3.5062    -5.4143     0.3614 C.ar    
  20 C20           -3.3736    -6.7785     0.1353 C.ar    
  21 C21           -2.7410    -7.5746     1.0655 C.ar    
  22 C22           -2.2326    -7.0082     2.2361 C.ar    
  23 C23           -2.3674    -5.6365     2.4595 C.ar    
  24 C24           -2.9970    -4.8463     1.5223 C.ar    
  25 O25           -1.0187    -7.4480     4.4035 O.3     
  26 C26           -1.5540    -7.8584     3.2362 C.2     
  27 N27           -1.3599    -9.1541     3.1538 N.2     
  28 N28           -0.7366    -9.5574     4.2046 N.2     
  29 C29           -0.5099    -8.5443     4.9928 C.2     
  30 C30            0.1949    -8.5928     6.3239 C.3     
  31 O31           -6.6040    -0.8128     0.8226 O.3     
  32 C32           -8.6047    -1.0588     2.1557 C.3     
  33 C33           -7.6719    -1.7103     1.1328 C.3     
  34 C34           -8.4559    -2.0298    -0.1415 C.3     
  35 O35           -9.2301     0.0846     1.5697 O.3     
  36 C36          -10.1266     0.7699     2.4464 C.3     
  37 H37            2.6337     2.6202    -1.4574 H       
  38 H38            3.4397    -1.7984    -2.4217 H       
  39 H39            4.9928    -1.2929    -2.8154 H       
  40 H40           -4.3897     0.4984     0.3556 H       
  41 H41           -6.2422    -3.3499     0.2994 H       
  42 H42           -2.1618    -2.9439    -0.8982 H       
  43 H43           -0.7608    -1.7830    -1.1296 H       
  44 H44           -3.7671    -7.2159    -0.7704 H       
  45 H45           -2.6389    -8.6353     0.8894 H       
  46 H46           -1.9758    -5.1949     3.3639 H       
  47 H47           -3.0984    -3.7846     1.6926 H       
  48 H48           -0.5340    -8.7691     7.1148 H       
  49 H49            0.9271    -9.4003     6.3180 H       
  50 H50            0.7016    -7.6442     6.5015 H       
  51 H51           -9.3683    -1.7751     2.4590 H       
  52 H52           -8.0286    -0.7507     3.0283 H       
  53 H53           -7.2632    -2.6313     1.5485 H       
  54 H54           -7.7914    -2.4939    -0.8703 H       
  55 H55           -9.2705    -2.7144     0.0950 H       
  56 H56           -8.8646    -1.1087    -0.5573 H       
  57 H57          -10.9218     0.0916     2.7556 H       
  58 H58           -9.5822     1.1160     3.3250 H       
  59 H59          -10.5598     1.6249     1.9273 H       
@<TRIPOS>BOND
   1    1    2 1
   2    1    5 1
   3    2    3 2
   4    2   17 1
   5    3    4 1
   6    4    5 2
   7    4    6 1
   8    5   37 1
   9    6    7 2
  10    6    8 am
  11    8   38 1
  12    8   39 1
  13    9   10 1
  14    9   16 2
  15    9   17 am
  16   10   11 ar
  17   10   15 ar
  18   11   12 ar
  19   11   40 1
  20   12   13 ar
  21   12   31 1
  22   13   14 ar
  23   13   41 1
  24   14   15 ar
  25   14   18 1
  26   15   42 1
  27   17   43 1
  28   18   19 1
  29   19   20 ar
  30   19   24 ar
  31   20   21 ar
  32   20   44 1
  33   21   22 ar
  34   21   45 1
  35   22   23 ar
  36   22   26 1
  37   23   24 ar
  38   23   46 1
  39   24   47 1
  40   25   26 1
  41   25   29 1
  42   26   27 2
  43   27   28 1
  44   28   29 2
  45   29   30 1
  46   30   48 1
  47   30   49 1
  48   30   50 1
  49   31   33 1
  50   32   33 1
  51   32   35 1
  52   32   51 1
  53   32   52 1
  54   33   34 1
  55   33   53 1
  56   34   54 1
  57   34   55 1
  58   34   56 1
  59   35   36 1
  60   36   57 1
  61   36   58 1
  62   36   59 1

#	End of record

