#	Name: ASD01411075
#	Creating user name:	WinNT
#	Creation time:	15. 06. 2019 19:19

#	Modifying user name:	WinNT
#	Modification time:	15. 06. 2019 19:19

#	Program:	/corina/corina34_cracker 3.40 0067  02.08.2006

@<TRIPOS>MOLECULE
ASD01411075
  43   46    0    0    0
SMALL
NO_CHARGES


@<TRIPOS>ATOM
   1 C1             0.7642     2.3139     3.5212 C.ar    
   2 C2             0.6818     1.0320     4.0281 C.ar    
   3 C3             0.7574     2.5183     2.1473 C.ar    
   4 C4             0.5927    -0.0484     3.1696 C.ar    
   5 C5             0.6678     1.4323     1.2871 C.ar    
   6 N6             0.8403     3.8170     1.6310 N.am    
   7 C7             0.5857     0.1512     1.8003 C.ar    
   8 C8            -0.2151     4.3365     0.9717 C.2     
   9 C9             2.0029     4.5481     1.8112 C.2     
  10 Cl10           0.4736    -1.2080     0.7261 Cl      
  11 C11           -0.1145     5.7021     0.4349 C.ar    
  12 O12           -1.2329     3.6864     0.8231 O.2     
  13 N13            2.1255     5.8148     1.3257 N.pl3   
  14 N14            3.1283     4.2342     2.4184 N.2     
  15 C15            1.0819     6.4158     0.6303 C.ar    
  16 C16           -1.1750     6.2899    -0.2560 C.ar    
  17 C17            1.1993     7.7018     0.1343 C.ar    
  18 C18           -1.0476     7.5604    -0.7419 C.ar    
  19 C19            0.1346     8.2741    -0.5512 C.ar    
  20 C20            3.3811     6.2623     1.6649 C.2     
  21 C21            3.9814     5.2661     2.3401 C.2     
  22 N22            0.2495     9.5671    -1.0512 N.pl3   
  23 C23           -0.8688    10.1735    -1.7778 C.3     
  24 O24            0.5866    11.5201    -3.1595 O.3     
  25 C25           -0.4848    11.5881    -2.2163 C.3     
  26 C26            2.4749     8.4783     0.3368 C.3     
  27 H27            0.8293     3.1574     4.1927 H       
  28 H28            0.6874     0.8731     5.0963 H       
  29 H29            0.5288    -1.0500     3.5686 H       
  30 H30            0.6620     1.5880     0.2184 H       
  31 H31           -2.0934     5.7420    -0.4065 H       
  32 H32           -1.8685     8.0150    -1.2766 H       
  33 H33            3.8040     7.2287     1.4333 H       
  34 H34            4.9804     5.2927     2.7497 H       
  35 H35            1.0700    10.0672    -0.9186 H       
  36 H36           -1.1006     9.5712    -2.6562 H       
  37 H37           -1.7424    10.2192    -1.1277 H       
  38 H38            0.8825    12.3826    -3.4816 H       
  39 H39           -1.3455    12.0715    -2.6784 H       
  40 H40           -0.1676    12.1644    -1.3472 H       
  41 H41            3.2142     8.1607    -0.3986 H       
  42 H42            2.2755     9.5429     0.2151 H       
  43 H43            2.8578     8.2927     1.3403 H       
@<TRIPOS>BOND
   1    1    2 ar
   2    1    3 ar
   3    1   27 1
   4    2    4 ar
   5    2   28 1
   6    3    5 ar
   7    3    6 1
   8    4    7 ar
   9    4   29 1
  10    5    7 ar
  11    5   30 1
  12    6    9 1
  13    6    8 am
  14    7   10 1
  15    8   11 1
  16    8   12 2
  17    9   13 1
  18    9   14 2
  19   11   15 ar
  20   11   16 ar
  21   13   20 1
  22   13   15 1
  23   14   21 1
  24   15   17 ar
  25   16   18 ar
  26   16   31 1
  27   17   26 1
  28   17   19 ar
  29   18   19 ar
  30   18   32 1
  31   19   22 1
  32   20   21 2
  33   20   33 1
  34   21   34 1
  35   22   23 1
  36   22   35 1
  37   23   25 1
  38   23   36 1
  39   23   37 1
  40   24   25 1
  41   24   38 1
  42   25   39 1
  43   25   40 1
  44   26   41 1
  45   26   42 1
  46   26   43 1

#	End of record

