#	Name: ASD05513042
#	Creating user name:	WinNT
#	Creation time:	15. 06. 2019 21:01

#	Modifying user name:	WinNT
#	Modification time:	15. 06. 2019 21:01

#	Program:	/corina/corina34_cracker 3.40 0067  02.08.2006

@<TRIPOS>MOLECULE
ASD05513042
  29   31    0    0    0
SMALL
NO_CHARGES


@<TRIPOS>ATOM
   1 C1            -0.0108     1.4058     0.4152 C.2     
   2 C2             0.0021    -0.0041     0.0020 C.2     
   3 C3             1.1832    -0.6673    -0.1155 C.2     
   4 C4             2.5227    -0.0872    -0.3457 C.ar    
   5 C5             3.4204    -1.1639    -0.3924 C.ar    
   6 N6             2.7249    -2.3553    -0.2075 N.am    
   7 C7             1.4105    -2.1346    -0.0339 C.2     
   8 C8             2.9804     1.2187    -0.5050 C.ar    
   9 C9             4.3262     1.4520    -0.7100 C.ar    
  10 C10            5.2154     0.3899    -0.7571 C.ar    
  11 C11            4.7706    -0.9082    -0.5999 C.ar    
  12 O12            0.5596    -2.9825     0.1490 O.2     
  13 O13            1.0190     1.9433     0.7756 O.2     
  14 C14           -1.2738     2.1725     0.3869 C.ar    
  15 C15           -2.4622     1.5688    -0.0304 C.ar    
  16 N16           -3.5872     2.2523    -0.0554 N.ar    
  17 C17           -3.6411     3.5197     0.3080 C.ar    
  18 C18           -2.5078     4.1900     0.7343 C.ar    
  19 C19           -1.3009     3.5163     0.7839 C.ar    
  20 Cl20           4.9044     3.0767    -0.9094 Cl      
  21 H21           -0.9266    -0.5136    -0.2084 H       
  22 H22            3.1371    -3.2334    -0.2011 H       
  23 H23            2.2860     2.0451    -0.4688 H       
  24 H24            6.2664     0.5791    -0.9184 H       
  25 H25            5.4739    -1.7269    -0.6389 H       
  26 H26           -2.4581     0.5328    -0.3355 H       
  27 H27           -4.5852     4.0428     0.2717 H       
  28 H28           -2.5660     5.2274     1.0289 H       
  29 H29           -0.4012     4.0149     1.1130 H       
@<TRIPOS>BOND
   1    1    2 1
   2    1   13 2
   3    1   14 1
   4    2    3 2
   5    2   21 1
   6    3    4 1
   7    3    7 1
   8    4    5 ar
   9    4    8 ar
  10    5    6 1
  11    5   11 ar
  12    6    7 am
  13    6   22 1
  14    7   12 2
  15    8    9 ar
  16    8   23 1
  17    9   10 ar
  18    9   20 1
  19   10   11 ar
  20   10   24 1
  21   11   25 1
  22   14   15 ar
  23   14   19 ar
  24   15   16 ar
  25   15   26 1
  26   16   17 ar
  27   17   18 ar
  28   17   27 1
  29   18   19 ar
  30   18   28 1
  31   19   29 1

#	End of record

