#	Name: ASD01917658
#	Creating user name:	WinNT
#	Creation time:	15. 06. 2019 20:09

#	Modifying user name:	WinNT
#	Modification time:	15. 06. 2019 20:09

#	Program:	/corina/corina34_cracker 3.40 0067  02.08.2006

@<TRIPOS>MOLECULE
ASD01917658
  60   64    0    0    0
SMALL
NO_CHARGES


@<TRIPOS>ATOM
   1 C1            -0.0166     1.3754     0.0096 C.ar    
   2 C2             0.0021    -0.0041     0.0020 C.ar    
   3 C3            -1.1966    -0.7153     0.0096 C.ar    
   4 C4            -2.4091    -0.0288     0.0249 C.ar    
   5 C5            -1.1816    -2.1989     0.0010 C.2     
   6 N6            -0.0835    -2.9815    -0.0137 N.2     
   7 C7            -2.2714    -3.0097     0.0125 C.2     
   8 N8            -1.8045    -4.2969    -0.0017 N.pl3   
   9 C9            -0.4471    -4.2335    -0.0174 C.2     
  10 C10           -2.5823    -5.4634     0.0032 C.ar    
  11 C11           -3.5974    -5.6187     0.9374 C.ar    
  12 C12           -4.3619    -6.7690     0.9398 C.ar    
  13 C13           -3.1104    -7.6112    -0.9226 C.ar    
  14 C14           -2.3426    -6.4631    -0.9298 C.ar    
  15 C15            0.4856    -5.4171    -0.0362 C.3     
  16 C16            0.7795    -5.8024    -1.4631 C.2     
  17 N17            1.5967    -6.8416    -1.7259 N.am    
  18 O18            0.2808    -5.1775    -2.3750 O.2     
  19 C19            1.8968    -7.2344    -3.1111 C.3     
  20 C20            2.2167    -7.6089    -0.6350 C.3     
  21 C21            3.7243    -7.6948    -0.8961 C.3     
  22 N22            3.9548    -8.2331    -2.2433 N.3     
  23 C23            3.4176    -7.3358    -3.2696 C.3     
  24 C24            5.3062    -8.4786    -2.4571 C.ar    
  25 C25            5.7286    -8.9926    -3.6786 C.ar    
  26 N26            6.1807    -8.2159    -1.4979 N.ar    
  27 C27            7.4718    -8.4343    -1.6601 C.ar    
  28 C28            7.9597    -8.9479    -2.8451 C.ar    
  29 C29            7.0764    -9.2322    -3.8779 C.ar    
  30 C30           -4.1170    -7.7655     0.0128 C.ar    
  31 C31           -2.4183     1.3512     0.0324 C.ar    
  32 C32           -1.2246     2.0538     0.0305 C.ar    
  33 C33            1.2787     2.1455     0.0014 C.3     
  34 F34           -1.2383     3.4048     0.0383 F       
  35 H35            0.9441    -0.5321    -0.0102 H       
  36 H36           -3.3403    -0.5759     0.0305 H       
  37 H37           -3.3057    -2.6992     0.0294 H       
  38 H38           -3.7889    -4.8409     1.6619 H       
  39 H39           -5.1515    -6.8905     1.6665 H       
  40 H40           -2.9246    -8.3890    -1.6484 H       
  41 H41           -1.5567    -6.3430    -1.6609 H       
  42 H42            1.4155    -5.1549     0.4683 H       
  43 H43            0.0176    -6.2566     0.4778 H       
  44 H44            1.4412    -8.2013    -3.3244 H       
  45 H45            1.5064    -6.4831    -3.7975 H       
  46 H46            2.0377    -7.1051     0.3148 H       
  47 H47            1.7924    -8.6125    -0.6061 H       
  48 H48            4.1635    -6.7000    -0.8218 H       
  49 H49            4.1843    -8.3520    -0.1581 H       
  50 H50            3.6504    -7.7327    -4.2577 H       
  51 H51            3.8648    -6.3479    -3.1593 H       
  52 H52            5.0139    -9.2022    -4.4608 H       
  53 H53            8.1558    -8.2080    -0.8555 H       
  54 H54            9.0183    -9.1227    -2.9690 H       
  55 H55            7.4332    -9.6345    -4.8145 H       
  56 H56           -4.7159    -8.6642     0.0168 H       
  57 H57           -3.3577     1.8840     0.0442 H       
  58 H58            1.5812     2.3367    -1.0282 H       
  59 H59            1.1412     3.0934     0.5216 H       
  60 H60            2.0507     1.5634     0.5047 H       
@<TRIPOS>BOND
   1    1    2 ar
   2    1   33 1
   3    1   32 ar
   4    2    3 ar
   5    2   35 1
   6    3    4 ar
   7    3    5 1
   8    4   31 ar
   9    4   36 1
  10    5    6 1
  11    5    7 2
  12    6    9 2
  13    7    8 1
  14    7   37 1
  15    8    9 1
  16    8   10 1
  17    9   15 1
  18   10   11 ar
  19   10   14 ar
  20   11   12 ar
  21   11   38 1
  22   12   30 ar
  23   12   39 1
  24   13   14 ar
  25   13   30 ar
  26   13   40 1
  27   14   41 1
  28   15   16 1
  29   15   42 1
  30   15   43 1
  31   16   17 am
  32   16   18 2
  33   17   19 1
  34   17   20 1
  35   19   23 1
  36   19   44 1
  37   19   45 1
  38   20   21 1
  39   20   46 1
  40   20   47 1
  41   21   22 1
  42   21   48 1
  43   21   49 1
  44   22   23 1
  45   22   24 1
  46   23   50 1
  47   23   51 1
  48   24   25 ar
  49   24   26 ar
  50   25   29 ar
  51   25   52 1
  52   26   27 ar
  53   27   28 ar
  54   27   53 1
  55   28   29 ar
  56   28   54 1
  57   29   55 1
  58   30   56 1
  59   31   32 ar
  60   31   57 1
  61   32   34 1
  62   33   58 1
  63   33   59 1
  64   33   60 1

#	End of record

