#	Name: ASD02039206
#	Creating user name:	WinNT
#	Creation time:	15. 06. 2019 20:17

#	Modifying user name:	WinNT
#	Modification time:	15. 06. 2019 20:17

#	Program:	/corina/corina34_cracker 3.40 0067  02.08.2006

@<TRIPOS>MOLECULE
ASD02039206
  36   38    0    0    0
SMALL
NO_CHARGES


@<TRIPOS>ATOM
   1 N1             0.0020     1.2625     0.3693 N.2     
   2 C2             0.0063    -0.0135     0.0889 C.2     
   3 N3             1.2922    -0.3754    -0.1076 N.2     
   4 C4             1.9960     0.7160     0.0677 C.2     
   5 O5             1.1351     1.6954     0.3611 O.3     
   6 C6             3.4937     0.8428    -0.0404 C.3     
   7 N7            -1.1049    -0.8433     0.0085 N.pl3   
   8 C8            -2.3915    -0.3043     0.1293 C.ar    
   9 C9            -2.6368     1.0037    -0.2682 C.ar    
  10 C10           -3.9068     1.5346    -0.1490 C.ar    
  11 C11           -4.9370     0.7605     0.3679 C.ar    
  12 C12           -4.6919    -0.5450     0.7651 C.ar    
  13 C13           -3.4238    -1.0788     0.6411 C.ar    
  14 O14           -6.1872     1.2834     0.4852 O.3     
  15 N15            3.8571     1.1785    -1.4194 N.pl3   
  16 N16            5.4982     1.6504    -3.0147 N.ar    
  17 C17            5.1871     1.3469    -1.7631 C.ar    
  18 Cl18          -4.2143     3.1695    -0.6450 Cl      
  19 C19           -7.1990     0.4308     1.0251 C.3     
  20 F20           -7.3388    -0.6994     0.2125 F       
  21 F21           -6.8346     0.0345     2.3163 F       
  22 C22            6.7595     1.8181    -3.3763 C.ar    
  23 C23            7.7598     1.6728    -2.4280 C.ar    
  24 C24            7.3992     1.3555    -1.1278 C.ar    
  25 N25            6.1190     1.2014    -0.8326 N.ar    
  26 H26            3.8410     1.6300     0.6287 H       
  27 H27            3.9595    -0.1025     0.2382 H       
  28 H28           -0.9895    -1.7962    -0.1314 H       
  29 H29           -1.8352     1.6057    -0.6699 H       
  30 H30           -5.4936    -1.1462     1.1678 H       
  31 H31           -3.2334    -2.0958     0.9507 H       
  32 H32            3.1655     1.2827    -2.0915 H       
  33 H33           -8.1456     0.9698     1.0639 H       
  34 H34            7.0069     2.0650    -4.3982 H       
  35 H35            8.7977     1.8039    -2.6962 H       
  36 H36            8.1543     1.2356    -0.3650 H       
@<TRIPOS>BOND
   1    1    2 2
   2    1    5 1
   3    2    3 1
   4    2    7 1
   5    3    4 2
   6    4    5 1
   7    4    6 1
   8    6   15 1
   9    6   26 1
  10    6   27 1
  11    7    8 1
  12    7   28 1
  13    8    9 ar
  14    8   13 ar
  15    9   10 ar
  16    9   29 1
  17   10   11 ar
  18   10   18 1
  19   11   12 ar
  20   11   14 1
  21   12   13 ar
  22   12   30 1
  23   13   31 1
  24   14   19 1
  25   15   17 1
  26   15   32 1
  27   16   17 ar
  28   16   22 ar
  29   17   25 ar
  30   19   20 1
  31   19   21 1
  32   19   33 1
  33   22   23 ar
  34   22   34 1
  35   23   24 ar
  36   23   35 1
  37   24   25 ar
  38   24   36 1

#	End of record

