#	Name: ASD04590518
#	Creating user name:	WinNT
#	Creation time:	15. 06. 2019 20:51

#	Modifying user name:	WinNT
#	Modification time:	15. 06. 2019 20:51

#	Program:	/corina/corina34_cracker 3.40 0067  02.08.2006

@<TRIPOS>MOLECULE
ASD04590518
  73   79    0    0    0
SMALL
NO_CHARGES


@<TRIPOS>ATOM
   1 C1            -0.0167     1.3834     0.0096 C.ar    
   2 C2             0.0021    -0.0041     0.0020 C.ar    
   3 C3             2.3948     0.0191    -0.0203 C.ar    
   4 C4             2.3756     1.4249    -0.0130 C.ar    
   5 C5             1.1624     2.0987     0.0022 C.ar    
   6 N6             3.6952    -0.3636    -0.0354 N.2     
   7 C7             4.4664     0.6967    -0.0378 C.2     
   8 N8             3.6970     1.8290    -0.0243 N.pl3   
   9 C9             5.9437     0.6731    -0.0524 C.2     
  10 C10            6.7565    -0.4840    -0.0664 C.2     
  11 C11            8.0504    -0.0800    -0.0774 C.2     
  12 N12            8.0626     1.2789    -0.0707 N.pl3   
  13 N13            6.7358     1.7273    -0.0603 N.2     
  14 N14            6.3043    -1.8135    -0.0682 N.am    
  15 C15            7.1922    -2.8273    -0.0823 C.2     
  16 O16            8.3851    -2.5907    -0.0936 O.2     
  17 C17            1.1863    -0.6848    -0.0125 C.ar    
  18 C18            6.7172    -4.2236    -0.0842 C.2     
  19 N19            5.4605    -4.6244    -0.0735 N.2     
  20 C20           -1.2971    -0.7677     0.0104 C.3     
  21 N21           -1.7325    -1.0083    -1.3718 N.3     
  22 C22           -2.8623    -1.9482    -1.4122 C.3     
  23 C23           -0.6187    -1.4969    -2.1976 C.3     
  24 C24           -1.1003    -1.6771    -3.6396 C.3     
  25 O25           -2.2180    -2.5691    -3.6557 O.3     
  26 C26           -3.3214    -2.1239    -2.8621 C.3     
  27 N27            5.4028    -5.9075    -0.0795 N.pl3   
  28 C28            6.6545    -6.4335    -0.0948 C.2     
  29 C29            7.5257    -5.3896    -0.1040 C.2     
  30 N30            8.9270    -5.4521    -0.1206 N.am    
  31 C31            9.5482    -6.6482    -0.1286 C.2     
  32 C32           11.0223    -6.7139    -0.1461 C.ar    
  33 O33            8.8939    -7.6732    -0.1215 O.2     
  34 C34           11.7633    -5.5435    -0.1541 C.ar    
  35 C35           13.1638    -5.6123    -0.1707 C.ar    
  36 C36           13.8034    -6.8787    -0.1790 C.ar    
  37 C37           13.0290    -8.0510    -0.1706 C.ar    
  38 C38           11.6681    -7.9687    -0.1486 C.ar    
  39 O39           10.9266    -9.1056    -0.1406 O.3     
  40 C40           11.6385   -10.3446    -0.1561 C.3     
  41 C41           13.9477    -4.4441    -0.1798 C.ar    
  42 C42           15.3046    -4.5433    -0.1963 C.ar    
  43 C43           15.9329    -5.7876    -0.2048 C.ar    
  44 C44           15.2078    -6.9393    -0.1960 C.ar    
  45 H45           -0.9614     1.9069     0.0170 H       
  46 H46            1.1417     3.1785     0.0079 H       
  47 H47            4.0192     2.7439    -0.0229 H       
  48 H48            8.9175    -0.7237    -0.0889 H       
  49 H49            8.8531     1.8409    -0.0753 H       
  50 H50            5.3528    -2.0021    -0.0592 H       
  51 H51            1.1893    -1.7648    -0.0177 H       
  52 H52           -1.1545    -1.7218     0.5177 H       
  53 H53           -2.0563    -0.1872     0.5346 H       
  54 H54           -2.5487    -2.9117    -1.0105 H       
  55 H55           -3.6848    -1.5545    -0.8151 H       
  56 H56            0.1965    -0.7737    -2.1738 H       
  57 H57           -0.2692    -2.4532    -1.8084 H       
  58 H58           -1.3996    -0.7113    -4.0468 H       
  59 H59           -0.2938    -2.0932    -4.2434 H       
  60 H60           -4.1213    -2.8632    -2.9036 H       
  61 H61           -3.6852    -1.1711    -3.2467 H       
  62 H62            4.5830    -6.4261    -0.0735 H       
  63 H63            6.9099    -7.4829    -0.1027 H       
  64 H64            9.4489    -4.6345    -0.1262 H       
  65 H65           11.2659    -4.5849    -0.1480 H       
  66 H66           13.5116    -9.0172    -0.1772 H       
  67 H67           12.2508   -10.4006    -1.0561 H       
  68 H68           12.2791   -10.4065     0.7236 H       
  69 H69           10.9286   -11.1716    -0.1476 H       
  70 H70           13.4747    -3.4732    -0.1741 H       
  71 H71           15.9037    -3.6447    -0.2033 H       
  72 H72           17.0116    -5.8386    -0.2182 H       
  73 H73           15.7092    -7.8959    -0.2028 H       
@<TRIPOS>BOND
   1    1    2 ar
   2    1    5 ar
   3    1   45 1
   4    2   17 ar
   5    2   20 1
   6    3    4 ar
   7    3    6 1
   8    3   17 ar
   9    4    5 ar
  10    4    8 1
  11    5   46 1
  12    6    7 2
  13    7    8 1
  14    7    9 1
  15    8   47 1
  16    9   10 1
  17    9   13 2
  18   10   11 2
  19   10   14 1
  20   11   12 1
  21   11   48 1
  22   12   13 1
  23   12   49 1
  24   14   15 am
  25   14   50 1
  26   15   16 2
  27   15   18 1
  28   17   51 1
  29   18   19 2
  30   18   29 1
  31   19   27 1
  32   20   21 1
  33   20   52 1
  34   20   53 1
  35   21   22 1
  36   21   23 1
  37   22   26 1
  38   22   54 1
  39   22   55 1
  40   23   24 1
  41   23   56 1
  42   23   57 1
  43   24   25 1
  44   24   58 1
  45   24   59 1
  46   25   26 1
  47   26   60 1
  48   26   61 1
  49   27   28 1
  50   27   62 1
  51   28   29 2
  52   28   63 1
  53   29   30 1
  54   30   31 am
  55   30   64 1
  56   31   32 1
  57   31   33 2
  58   32   34 ar
  59   32   38 ar
  60   34   35 ar
  61   34   65 1
  62   35   36 ar
  63   35   41 ar
  64   36   37 ar
  65   36   44 ar
  66   37   38 ar
  67   37   66 1
  68   38   39 1
  69   39   40 1
  70   40   67 1
  71   40   68 1
  72   40   69 1
  73   41   42 ar
  74   41   70 1
  75   42   43 ar
  76   42   71 1
  77   43   44 ar
  78   43   72 1
  79   44   73 1

#	End of record

