#	Name: ASD00069146
#	Creating user name:	WinNT
#	Creation time:	15. 06. 2019 18:29

#	Modifying user name:	WinNT
#	Modification time:	15. 06. 2019 18:29

#	Program:	/corina/corina34_cracker 3.40 0067  02.08.2006

@<TRIPOS>MOLECULE
ASD00069146
  61   65    0    0    0
SMALL
NO_CHARGES


@<TRIPOS>ATOM
   1 C1            -0.1065     1.2011    -0.5328 C.2     
   2 N2            -0.0067    -0.0031    -0.0154 N.2     
   3 C3             1.2381    -0.4578    -0.2055 C.2     
   4 C4             1.9436     0.5062    -0.8704 C.2     
   5 N5             1.1015     1.5435    -1.0747 N.pl3   
   6 C6            -1.3192     2.0395    -0.5343 C.2     
   7 O7            -1.2949     3.1430    -1.0452 O.2     
   8 N8            -2.4546     1.5832     0.0305 N.am    
   9 C9             1.4729    -3.9062     1.2928 C.ar    
  10 C10            0.9429    -2.6828     0.9041 C.ar    
  11 C11            1.7606    -1.7764     0.2296 C.ar    
  12 C12            3.0871    -2.1434    -0.0266 C.ar    
  13 C13            3.5359    -3.3765     0.3925 C.ar    
  14 N14            2.7347    -4.2111     1.0290 N.ar    
  15 N15            0.6723    -4.8184     1.9711 N.pl3   
  16 C16           -0.6875    -4.4456     2.3688 C.3     
  17 C17           -1.6697    -5.5782     2.6745 C.3     
  18 C18           -1.1035    -4.7283     3.8138 C.3     
  19 C19           -3.5710     2.4222     0.1349 C.ar    
  20 C20           -4.8562     1.8920     0.0299 C.ar    
  21 C21           -5.9587     2.7295     0.1349 C.ar    
  22 C22           -5.7790     4.0861     0.3432 C.ar    
  23 C23           -4.5037     4.6104     0.4467 C.ar    
  24 C24           -3.4011     3.7823     0.3490 C.ar    
  25 F25           -7.2061     2.2206     0.0334 F       
  26 N26           -5.0345     0.5188    -0.1813 N.3     
  27 C27           -5.8039    -0.0865     0.9132 C.3     
  28 C28           -5.8544    -1.6044     0.7246 C.3     
  29 C29           -6.5085    -1.9249    -0.6222 C.3     
  30 C30           -5.7159    -1.2431    -1.7409 C.3     
  31 C31           -5.6695     0.2643    -1.4808 C.3     
  32 C32           -6.5069    -3.4388    -0.8440 C.3     
  33 N33           -7.2399    -3.7538    -2.0775 N.3     
  34 H34            2.9784     0.4498    -1.1745 H       
  35 H35            1.3146     2.3769    -1.5228 H       
  36 H36           -2.4986     0.6736     0.3646 H       
  37 H37           -0.0864    -2.4373     1.1204 H       
  38 H38            3.7504    -1.4681    -0.5467 H       
  39 H39            4.5583    -3.6650     0.1977 H       
  40 H40            1.0141    -5.7016     2.1810 H       
  41 H41           -1.0860    -3.5477     1.8965 H       
  42 H42           -2.7144    -5.4252     2.4036 H       
  43 H43           -1.3042    -6.6007     2.5797 H       
  44 H44           -0.3655    -5.1916     4.4685 H       
  45 H45           -1.7757    -4.0162     4.2925 H       
  46 H46           -6.6371     4.7368     0.4248 H       
  47 H47           -4.3688     5.6696     0.6085 H       
  48 H48           -2.4069     4.1952     0.4348 H       
  49 H49           -5.3258     0.1455     1.8649 H       
  50 H50           -6.8177     0.3139     0.9092 H       
  51 H51           -4.8417    -2.0071     0.7423 H       
  52 H52           -6.4387    -2.0518     1.5286 H       
  53 H53           -7.5343    -1.5564    -0.6258 H       
  54 H54           -4.7010    -1.6402    -1.7619 H       
  55 H55           -6.2013    -1.4324    -2.6983 H       
  56 H56           -6.6839     0.6630    -1.4735 H       
  57 H57           -5.0937     0.7511    -2.2679 H       
  58 H58           -5.4795    -3.7921    -0.9316 H       
  59 H59           -6.9893    -3.9303     0.0009 H       
  60 H60           -6.8509    -3.2584    -2.8657 H       
  61 H61           -7.2531    -4.7485    -2.2462 H       
@<TRIPOS>BOND
   1    1    2 2
   2    1    5 1
   3    1    6 1
   4    2    3 1
   5    3    4 2
   6    3   11 1
   7    4    5 1
   8    4   34 1
   9    5   35 1
  10    6    7 2
  11    6    8 am
  12    8   19 1
  13    8   36 1
  14    9   10 ar
  15    9   14 ar
  16    9   15 1
  17   10   11 ar
  18   10   37 1
  19   11   12 ar
  20   12   13 ar
  21   12   38 1
  22   13   14 ar
  23   13   39 1
  24   15   16 1
  25   15   40 1
  26   16   17 1
  27   16   18 1
  28   16   41 1
  29   17   18 1
  30   17   42 1
  31   17   43 1
  32   18   44 1
  33   18   45 1
  34   19   20 ar
  35   19   24 ar
  36   20   21 ar
  37   20   26 1
  38   21   22 ar
  39   21   25 1
  40   22   23 ar
  41   22   46 1
  42   23   24 ar
  43   23   47 1
  44   24   48 1
  45   26   27 1
  46   26   31 1
  47   27   28 1
  48   27   49 1
  49   27   50 1
  50   28   29 1
  51   28   51 1
  52   28   52 1
  53   29   30 1
  54   29   32 1
  55   29   53 1
  56   30   31 1
  57   30   54 1
  58   30   55 1
  59   31   56 1
  60   31   57 1
  61   32   33 1
  62   32   58 1
  63   32   59 1
  64   33   60 1
  65   33   61 1

#	End of record

