#	Name: ASD03430890
#	Creating user name:	WinNT
#	Creation time:	15. 06. 2019 20:41

#	Modifying user name:	WinNT
#	Modification time:	15. 06. 2019 20:41

#	Program:	/corina/corina34_cracker 3.40 0067  02.08.2006

@<TRIPOS>MOLECULE
ASD03430890
  35   39    0    0    0
SMALL
NO_CHARGES


@<TRIPOS>ATOM
   1 O1            -0.0175     1.4361     0.0099 O.3     
   2 C2             0.0021    -0.0041     0.0020 C.3     
   3 C3             1.3452    -0.3160    -0.6713 C.3     
   4 C4             2.1588     0.9233    -0.4091 C.ar    
   5 C5             1.2625     1.9065     0.0002 C.ar    
   6 C6             1.7487     3.1680     0.3268 C.ar    
   7 C7             3.1029     3.4447     0.2345 C.ar    
   8 C8             3.9870     2.4573    -0.1831 C.ar    
   9 C9             3.5065     1.1967    -0.5043 C.ar    
  10 N10            2.1646    -2.4007    -1.1267 N.am    
  11 C11            1.9855    -1.5476    -0.0985 C.2     
  12 C12            1.1887    -0.5940    -2.1368 C.ar    
  13 C13            0.6744     0.1259    -3.1926 C.ar    
  14 C14            0.6740    -0.4166    -4.4668 C.ar    
  15 C15            1.1906    -1.6817    -4.6758 C.ar    
  16 C16            1.7049    -2.4073    -3.6209 C.ar    
  17 C17            1.7083    -1.8708    -2.3360 C.ar    
  18 O18            2.2836    -1.7374     1.0617 O.2     
  19 O19            5.3216     2.7098    -0.2791 O.3     
  20 O20            3.5519     4.6906     0.5514 O.3     
  21 C21            5.7146     4.0864    -0.3086 C.3     
  22 C22            4.9549     4.8255     0.8013 C.3     
  23 Br23          -0.0322     1.8556    -2.9018 Br      
  24 H24           -0.0216    -0.3969     1.0185 H       
  25 H25           -0.8264    -0.3990    -0.5860 H       
  26 H26            1.0655     3.9376     0.6544 H       
  27 H27            4.1903     0.4267    -0.8295 H       
  28 H28            2.5642    -3.2800    -1.0374 H       
  29 H29            0.2708     0.1471    -5.2950 H       
  30 H30            1.1914    -2.1044    -5.6696 H       
  31 H31            2.1063    -3.3951    -3.7925 H       
  32 H32            6.7878     4.1663    -0.1358 H       
  33 H33            5.4642     4.5196    -1.2770 H       
  34 H34            5.2296     5.8803     0.7950 H       
  35 H35            5.1997     4.3873     1.7688 H       
@<TRIPOS>BOND
   1    1    2 1
   2    1    5 1
   3    2    3 1
   4    2   24 1
   5    2   25 1
   6    3    4 1
   7    3   11 1
   8    3   12 1
   9    4    5 ar
  10    4    9 ar
  11    5    6 ar
  12    6    7 ar
  13    6   26 1
  14    7    8 ar
  15    7   20 1
  16    8    9 ar
  17    8   19 1
  18    9   27 1
  19   10   11 am
  20   10   17 1
  21   10   28 1
  22   11   18 2
  23   12   13 ar
  24   12   17 ar
  25   13   14 ar
  26   13   23 1
  27   14   15 ar
  28   14   29 1
  29   15   16 ar
  30   15   30 1
  31   16   17 ar
  32   16   31 1
  33   19   21 1
  34   20   22 1
  35   21   22 1
  36   21   32 1
  37   21   33 1
  38   22   34 1
  39   22   35 1

#	End of record

