#	Name: ASD03091211
#	Creating user name:	WinNT
#	Creation time:	15. 06. 2019 20:30

#	Modifying user name:	WinNT
#	Modification time:	15. 06. 2019 20:30

#	Program:	/corina/corina34_cracker 3.40 0067  02.08.2006

@<TRIPOS>MOLECULE
ASD03091211
  51   55    0    0    0
SMALL
NO_CHARGES


@<TRIPOS>ATOM
   1 N1             0.0225     1.1578     0.4540 N.2     
   2 C2             0.0600    -0.0766     0.0244 C.2     
   3 N3             1.2049    -0.6762    -0.4267 N.am    
   4 C4             2.3735     0.0063    -0.4454 C.2     
   5 C5             2.3549     1.3968     0.0329 C.ar    
   6 C6             3.5056     2.1816     0.0524 C.ar    
   7 C7             3.4304     3.4854     0.5128 C.ar    
   8 C8             2.2151     4.0096     0.9538 C.ar    
   9 C9             1.0792     3.2525     0.9406 C.ar    
  10 C10            1.1259     1.9327     0.4808 C.ar    
  11 O11            3.4011    -0.5113    -0.8429 O.2     
  12 C12            1.1652    -2.0650    -0.8913 C.3     
  13 C13           -1.1925    -0.8615     0.0263 C.ar    
  14 C14           -2.0640    -0.7881     1.1143 C.ar    
  15 C15           -3.2321    -1.5239     1.1095 C.ar    
  16 C16           -3.5393    -2.3332     0.0284 C.ar    
  17 C17           -2.6791    -2.4100    -1.0520 C.ar    
  18 C18           -1.5115    -1.6748    -1.0622 C.ar    
  19 Cl19          -4.3175    -1.4351     2.4614 Cl      
  20 N20            7.0618     5.5090    -0.5117 N.3     
  21 C21            7.0522     4.2881     0.3085 C.3     
  22 C22            5.7570     3.5166     0.1085 C.3     
  23 N23            4.5792     4.2809     0.5363 N.3     
  24 C24            4.4076     5.4784    -0.2980 C.3     
  25 C25            5.0699     6.6812     0.3573 C.3     
  26 C26            6.5830     6.6506     0.2809 C.3     
  27 C27            6.4235     5.4152    -1.8071 C.3     
  28 C28            4.9246     5.1897    -1.6955 C.3     
  29 H29            4.4473     1.7770    -0.2880 H       
  30 H30            2.1724     5.0280     1.3108 H       
  31 H31            0.1457     3.6723     1.2852 H       
  32 H32            0.8780    -2.0883    -1.9426 H       
  33 H33            2.1506    -2.5158    -0.7738 H       
  34 H34            0.4374    -2.6241    -0.3034 H       
  35 H35           -1.8248    -0.1575     1.9578 H       
  36 H36           -4.4542    -2.9070     0.0291 H       
  37 H37           -2.9241    -3.0435    -1.8917 H       
  38 H38           -0.8435    -1.7320    -1.9089 H       
  39 H39            7.8938     3.6570     0.0229 H       
  40 H40            7.1491     4.5607     1.3594 H       
  41 H41            5.6529     3.2695    -0.9480 H       
  42 H42            5.8050     2.5913     0.6825 H       
  43 H43            3.3400     5.6825    -0.3794 H       
  44 H44            4.7134     7.5869    -0.1335 H       
  45 H45            4.7735     6.7153     1.4056 H       
  46 H46            6.9889     6.5785     1.2899 H       
  47 H47            6.9349     7.5747    -0.1777 H       
  48 H48            6.6020     6.3393    -2.3569 H       
  49 H49            6.8655     4.5862    -2.3598 H       
  50 H50            4.7025     4.1529    -1.9482 H       
  51 H51            4.4144     5.8424    -2.4038 H       
@<TRIPOS>BOND
   1    1    2 2
   2    1   10 1
   3    2    3 1
   4    2   13 1
   5    3    4 am
   6    3   12 1
   7    4    5 1
   8    4   11 2
   9    5    6 ar
  10    5   10 ar
  11    6    7 ar
  12    6   29 1
  13    7    8 ar
  14    7   23 1
  15    8    9 ar
  16    8   30 1
  17    9   10 ar
  18    9   31 1
  19   12   32 1
  20   12   33 1
  21   12   34 1
  22   13   14 ar
  23   13   18 ar
  24   14   15 ar
  25   14   35 1
  26   15   16 ar
  27   15   19 1
  28   16   17 ar
  29   16   36 1
  30   17   18 ar
  31   17   37 1
  32   18   38 1
  33   20   21 1
  34   20   26 1
  35   20   27 1
  36   21   22 1
  37   21   39 1
  38   21   40 1
  39   22   23 1
  40   22   41 1
  41   22   42 1
  42   23   24 1
  43   24   25 1
  44   24   28 1
  45   24   43 1
  46   25   26 1
  47   25   44 1
  48   25   45 1
  49   26   46 1
  50   26   47 1
  51   27   28 1
  52   27   48 1
  53   27   49 1
  54   28   50 1
  55   28   51 1

#	End of record

