#	Name: ASD00100108
#	Creating user name:	WinNT
#	Creation time:	15. 06. 2019 18:30

#	Modifying user name:	WinNT
#	Modification time:	15. 06. 2019 18:30

#	Program:	/corina/corina34_cracker 3.40 0067  02.08.2006

@<TRIPOS>MOLECULE
ASD00100108
  38   40    0    0    0
SMALL
NO_CHARGES


@<TRIPOS>ATOM
   1 C1            -0.1206     1.4744    -0.1548 C.2     
   2 N2            -0.2371     0.1690    -0.1645 N.2     
   3 C3             0.9912    -0.3879    -0.0165 C.2     
   4 C4             1.8949     0.6178     0.0879 C.2     
   5 N5             1.1929     1.7953     0.0006 N.pl3   
   6 N6            -1.1612     2.3779    -0.2867 N.pl3   
   7 C7             1.2923    -1.8398     0.0244 C.ar    
   8 C8             0.2625    -2.7713    -0.0953 C.ar    
   9 C9             0.5486    -4.1209    -0.0571 C.ar    
  10 C10            1.8544    -4.5496     0.0997 C.ar    
  11 C11            2.8804    -3.6296     0.2190 C.ar    
  12 C12            2.6067    -2.2776     0.1769 C.ar    
  13 C13            1.7544     3.1469     0.0632 C.3     
  14 C14            1.6809     3.6564     1.4795 C.ar    
  15 C15            2.6818     3.3360     2.3855 C.ar    
  16 C16            2.6113     3.8064     3.6885 C.ar    
  17 C17            1.5451     4.5924     4.0811 C.ar    
  18 C18            0.5488     4.9099     3.1768 C.ar    
  19 C19            0.6200     4.4472     1.8755 C.ar    
  20 O20            3.7294     2.5622     1.9969 O.3     
  21 C21            4.7227     2.2727     2.9825 C.3     
  22 H22            2.9622     0.5130     0.2156 H       
  23 H23           -2.0627     2.0589    -0.4493 H       
  24 H24           -0.9888     3.3298    -0.2166 H       
  25 H25           -0.7574    -2.4377    -0.2174 H       
  26 H26           -0.2486    -4.8436    -0.1494 H       
  27 H27            2.0736    -5.6067     0.1295 H       
  28 H28            3.8980    -3.9699     0.3416 H       
  29 H29            3.4091    -1.5601     0.2660 H       
  30 H30            2.7948     3.1236    -0.2610 H       
  31 H31            1.1848     3.8076    -0.5906 H       
  32 H32            3.3890     3.5581     4.3955 H       
  33 H33            1.4897     4.9589     5.0955 H       
  34 H34           -0.2842     5.5239     3.4858 H       
  35 H35           -0.1571     4.7006     1.1695 H       
  36 H36            4.2627     1.7448     3.8179 H       
  37 H37            5.5003     1.6485     2.5422 H       
  38 H38            5.1629     3.2039     3.3393 H       
@<TRIPOS>BOND
   1    1    2 2
   2    1    5 1
   3    1    6 1
   4    2    3 1
   5    3    4 2
   6    3    7 1
   7    4    5 1
   8    4   22 1
   9    5   13 1
  10    6   23 1
  11    6   24 1
  12    7    8 ar
  13    7   12 ar
  14    8    9 ar
  15    8   25 1
  16    9   10 ar
  17    9   26 1
  18   10   11 ar
  19   10   27 1
  20   11   12 ar
  21   11   28 1
  22   12   29 1
  23   13   14 1
  24   13   30 1
  25   13   31 1
  26   14   15 ar
  27   14   19 ar
  28   15   16 ar
  29   15   20 1
  30   16   17 ar
  31   16   32 1
  32   17   18 ar
  33   17   33 1
  34   18   19 ar
  35   18   34 1
  36   19   35 1
  37   20   21 1
  38   21   36 1
  39   21   37 1
  40   21   38 1

#	End of record

