#	Name: ASD01410609
#	Creating user name:	WinNT
#	Creation time:	15. 06. 2019 19:18

#	Modifying user name:	WinNT
#	Modification time:	15. 06. 2019 19:18

#	Program:	/corina/corina34_cracker 3.40 0067  02.08.2006

@<TRIPOS>MOLECULE
ASD01410609
  81   84    0    0    0
SMALL
NO_CHARGES


@<TRIPOS>ATOM
   1 C1             1.8758    -2.0203    -1.2442 C.ar    
   2 O2             1.5058    -3.0455    -0.4365 O.3     
   3 C3             0.2508    -3.0248     0.0873 C.ar    
   4 C4            -0.3491    -4.2121     0.4996 C.ar    
   5 C5            -1.6245    -4.2011     1.0332 C.ar    
   6 C6            -2.3152    -3.0051     1.1608 C.ar    
   7 C7            -1.7152    -1.8054     0.7467 C.ar    
   8 C8            -0.4228    -1.8255     0.2139 C.ar    
   9 N9            -3.6015    -2.9944     1.6980 N.am    
  10 C10           -3.7790    -2.7841     3.0174 C.2     
  11 C11           -4.7604    -3.2118     0.8285 C.3     
  12 O12           -4.8979    -2.7781     3.4854 O.2     
  13 C13           -2.5872    -2.5564     3.9112 C.3     
  14 C14           -2.8610    -3.1605     5.2900 C.3     
  15 C15           -1.6510    -2.9294     6.1974 C.3     
  16 C16           -1.3998    -1.4269     6.3396 C.3     
  17 C17           -1.1260    -0.8228     4.9608 C.3     
  18 C18           -2.3360    -1.0539     4.0534 C.3     
  19 C19           -0.1898    -1.1957     7.2470 C.3     
  20 C20           -4.3074    -3.2181    -0.6329 C.3     
  21 O21           -6.0325    -4.4739     2.4501 O.3     
  22 C22           -5.4074    -4.5562     1.1677 C.3     
  23 C23           -6.6704    -5.6836     2.8644 C.3     
  24 O24           -3.8696    -1.9087    -1.0015 O.3     
  25 C25           -3.4230    -1.8047    -2.3549 C.3     
  26 F26            0.3184    -5.3803     0.3771 F       
  27 N27            0.9827    -1.1086    -1.5957 N.ar    
  28 C28            3.1877    -1.9355    -1.6882 C.ar    
  29 C29            3.5578    -0.8845    -2.5129 C.ar    
  30 C30            2.5984     0.0493    -2.8662 C.ar    
  31 C31            1.3029    -0.0919    -2.3820 C.ar    
  32 N32            0.3326     0.8402    -2.7309 N.3     
  33 C33           -0.9838     0.4531    -2.2029 C.3     
  34 C34           -2.0081     1.5340    -2.5582 C.3     
  35 O35           -2.0265     1.7186    -3.9762 O.3     
  36 C36           -0.7607     2.0968    -4.5240 C.3     
  37 C37            0.2763     1.0216    -4.1887 C.3     
  38 C38            4.1993    -2.9745    -1.2780 C.3     
  39 F39            5.4390    -2.6700    -1.8506 F       
  40 F40            4.3192    -2.9840     0.1158 F       
  41 F41            3.7790    -4.2341    -1.7185 F       
  42 C42           -2.4414    -0.5311     0.8785 C.2     
  43 O43           -3.6052    -0.5282     1.2286 O.2     
  44 O44           -1.8153     0.6321     0.6109 O.3     
  45 H45           -2.0839    -5.1254     1.3510 H       
  46 H46            0.0446    -0.9061    -0.1065 H       
  47 H47           -5.4843    -2.4114     0.9811 H       
  48 H48           -1.7092    -3.0318     3.4740 H       
  49 H49           -3.7390    -2.6851     5.7271 H       
  50 H50           -3.0399    -4.2309     5.1886 H       
  51 H51           -1.8460    -3.3597     7.1796 H       
  52 H52           -0.7729    -3.4048     5.7602 H       
  53 H53           -2.2778    -0.9515     6.7768 H       
  54 H54           -0.9471     0.2477     5.0621 H       
  55 H55           -0.2480    -1.2982     4.5237 H       
  56 H56           -2.1410    -0.6235     3.0711 H       
  57 H57           -3.2141    -0.5785     4.4906 H       
  58 H58            0.6883    -1.6711     6.8099 H       
  59 H59           -0.0108    -0.1253     7.3483 H       
  60 H60           -0.3848    -1.6261     8.2293 H       
  61 H61           -3.4859    -3.9239    -0.7556 H       
  62 H62           -5.1402    -3.5156    -1.2701 H       
  63 H63           -6.1558    -4.7997     0.4136 H       
  64 H64           -4.6431    -5.3331     1.1852 H       
  65 H65           -7.4450    -5.9506     2.1455 H       
  66 H66           -5.9323    -6.4840     2.9172 H       
  67 H67           -7.1204    -5.5391     3.8466 H       
  68 H68           -4.2374    -2.0729    -3.0279 H       
  69 H69           -3.1078    -0.7808    -2.5559 H       
  70 H70           -2.5831    -2.4812    -2.5134 H       
  71 H71            4.5725    -0.7957    -2.8717 H       
  72 H72            2.8547     0.8801    -3.5070 H       
  73 H73           -1.2882    -0.4960    -2.6442 H       
  74 H74           -0.9252     0.3492    -1.1194 H       
  75 H75           -2.9965     1.2245    -2.2186 H       
  76 H76           -1.7324     2.4703    -2.0728 H       
  77 H77           -0.8469     2.1944    -5.6062 H       
  78 H78           -0.4488     3.0494    -4.0958 H       
  79 H79            1.2547     1.3327    -4.5548 H       
  80 H80           -0.0080     0.0817    -4.6617 H       
  81 H81           -2.3541     1.4349     0.6287 H       
@<TRIPOS>BOND
   1    1    2 1
   2    1   28 ar
   3    1   27 ar
   4    2    3 1
   5    3    4 ar
   6    3    8 ar
   7    4    5 ar
   8    4   26 1
   9    5    6 ar
  10    5   45 1
  11    6    7 ar
  12    6    9 1
  13    7    8 ar
  14    7   42 1
  15    8   46 1
  16    9   10 am
  17    9   11 1
  18   10   12 2
  19   10   13 1
  20   11   20 1
  21   11   22 1
  22   11   47 1
  23   13   14 1
  24   13   18 1
  25   13   48 1
  26   14   15 1
  27   14   49 1
  28   14   50 1
  29   15   16 1
  30   15   51 1
  31   15   52 1
  32   16   17 1
  33   16   19 1
  34   16   53 1
  35   17   18 1
  36   17   54 1
  37   17   55 1
  38   18   56 1
  39   18   57 1
  40   19   58 1
  41   19   59 1
  42   19   60 1
  43   20   24 1
  44   20   61 1
  45   20   62 1
  46   21   22 1
  47   21   23 1
  48   22   63 1
  49   22   64 1
  50   23   65 1
  51   23   66 1
  52   23   67 1
  53   24   25 1
  54   25   68 1
  55   25   69 1
  56   25   70 1
  57   27   31 ar
  58   28   29 ar
  59   28   38 1
  60   29   30 ar
  61   29   71 1
  62   30   31 ar
  63   30   72 1
  64   31   32 1
  65   32   33 1
  66   32   37 1
  67   33   34 1
  68   33   73 1
  69   33   74 1
  70   34   35 1
  71   34   75 1
  72   34   76 1
  73   35   36 1
  74   36   37 1
  75   36   77 1
  76   36   78 1
  77   37   79 1
  78   37   80 1
  79   38   39 1
  80   38   40 1
  81   38   41 1
  82   42   43 2
  83   42   44 1
  84   44   81 1

#	End of record

