#	Name: ASD03331119
#	Creating user name:	WinNT
#	Creation time:	15. 06. 2019 20:38

#	Modifying user name:	WinNT
#	Modification time:	15. 06. 2019 20:38

#	Program:	/corina/corina34_cracker 3.40 0067  02.08.2006

@<TRIPOS>MOLECULE
ASD03331119
  58   61    0    0    0
SMALL
NO_CHARGES


@<TRIPOS>ATOM
   1 N1            -0.0162     1.3554     0.0202 N.pl3   
   2 C2             0.0024    -0.0040     0.0086 C.2     
   3 C3             1.2378    -0.8645    -0.0413 C.3     
   4 N4             2.2074    -0.3741     0.9507 N.3     
   5 C5             3.0786     0.6535     0.3775 C.3     
   6 C6             2.3274     1.4948    -0.6504 C.3     
   7 C7             1.1642     2.2243     0.0272 C.3     
   8 C8            -1.3234     1.7461     0.0361 C.2     
   9 N9            -2.0808     0.6745     0.0521 N.2     
  10 C10           -1.2929    -0.4230     0.0385 C.2     
  11 C11           -1.7530    -1.8228     0.0535 C.2     
  12 O12           -0.9424    -2.7295     0.0387 O.2     
  13 N13           -3.0719    -2.0985     0.0834 N.am    
  14 C14           -3.5293    -3.4902     0.0982 C.3     
  15 C15           -3.5375    -4.0090     1.5376 C.3     
  16 C16           -4.0151    -5.4624     1.5531 C.3     
  17 O17           -5.9442    -2.7539    -0.1881 O.3     
  18 N18           -6.9245    -3.0907    -0.8180 N.2     
  19 C19           -6.6522    -4.1261    -1.5545 C.2     
  20 N20           -5.3631    -4.4445    -1.3407 N.2     
  21 C21           -4.9223    -3.5672    -0.4715 C.2     
  22 C22           -7.6056    -4.8392    -2.4783 C.3     
  23 C23           -2.1232    -3.9307     2.1160 C.3     
  24 C24           -4.4823    -3.1526     2.3830 C.3     
  25 C25           -1.8064     3.1443     0.0363 C.ar    
  26 C26           -3.1163     3.4324    -0.3493 C.ar    
  27 C27           -3.5620     4.7394    -0.3468 C.ar    
  28 C28           -2.7089     5.7645     0.0383 C.ar    
  29 C29           -1.4082     5.4818     0.4210 C.ar    
  30 C30           -0.9556     4.1784     0.4273 C.ar    
  31 F31           -3.1486     7.0419     0.0394 F       
  32 F32           -4.8296     5.0208    -0.7201 F       
  33 H33            0.9724    -1.8966     0.1879 H       
  34 H34            1.6777    -0.8129    -1.0372 H       
  35 H35            1.7386    -0.0315     1.7759 H       
  36 H36            3.4406     1.3019     1.1754 H       
  37 H37            3.9292     0.1729    -0.1059 H       
  38 H38            3.0078     2.2255    -1.0876 H       
  39 H39            1.9400     0.8462    -1.4361 H       
  40 H40            0.9437     3.1428    -0.5166 H       
  41 H41            1.4340     2.4642     1.0557 H       
  42 H42           -3.7183    -1.3754     0.0952 H       
  43 H43           -2.8561    -4.1003    -0.5041 H       
  44 H44           -3.3420    -6.0725     0.9507 H       
  45 H45           -4.0210    -5.8321     2.5785 H       
  46 H46           -5.0227    -5.5182     1.1410 H       
  47 H47           -7.5543    -4.3904    -3.4704 H       
  48 H48           -7.3314    -5.8922    -2.5413 H       
  49 H49           -8.6209    -4.7506    -2.0916 H       
  50 H50           -1.7829    -2.8953     2.1049 H       
  51 H51           -2.1290    -4.3004     3.1414 H       
  52 H52           -1.4500    -4.5408     1.5137 H       
  53 H53           -5.4899    -3.2083     1.9709 H       
  54 H54           -4.4882    -3.5222     3.4084 H       
  55 H55           -4.1420    -2.1171     2.3720 H       
  56 H56           -3.7799     2.6349    -0.6492 H       
  57 H57           -0.7481     6.2828     0.7194 H       
  58 H58            0.0576     3.9595     0.7303 H       
@<TRIPOS>BOND
   1    1    2 1
   2    1    7 1
   3    1    8 1
   4    2    3 1
   5    2   10 2
   6    3    4 1
   7    3   33 1
   8    3   34 1
   9    4    5 1
  10    4   35 1
  11    5    6 1
  12    5   36 1
  13    5   37 1
  14    6    7 1
  15    6   38 1
  16    6   39 1
  17    7   40 1
  18    7   41 1
  19    8    9 2
  20    8   25 1
  21    9   10 1
  22   10   11 1
  23   11   12 2
  24   11   13 am
  25   13   14 1
  26   13   42 1
  27   14   15 1
  28   14   21 1
  29   14   43 1
  30   15   16 1
  31   15   23 1
  32   15   24 1
  33   16   44 1
  34   16   45 1
  35   16   46 1
  36   17   18 1
  37   17   21 1
  38   18   19 2
  39   19   20 1
  40   19   22 1
  41   20   21 2
  42   22   47 1
  43   22   48 1
  44   22   49 1
  45   23   50 1
  46   23   51 1
  47   23   52 1
  48   24   53 1
  49   24   54 1
  50   24   55 1
  51   25   26 ar
  52   25   30 ar
  53   26   27 ar
  54   26   56 1
  55   27   28 ar
  56   27   32 1
  57   28   29 ar
  58   28   31 1
  59   29   30 ar
  60   29   57 1
  61   30   58 1

#	End of record

