#	Name: ASD05430425
#	Creating user name:	WinNT
#	Creation time:	15. 06. 2019 21:00

#	Modifying user name:	WinNT
#	Modification time:	15. 06. 2019 21:00

#	Program:	/corina/corina34_cracker 3.40 0067  02.08.2006

@<TRIPOS>MOLECULE
ASD05430425
  60   64    0    0    0
SMALL
NO_CHARGES


@<TRIPOS>ATOM
   1 C1            -0.0168     1.3903     0.0097 C.ar    
   2 C2             0.0021    -0.0041     0.0020 C.ar    
   3 C3            -1.1893    -0.7181     0.0095 C.ar    
   4 C4            -2.3954    -0.0522     0.0241 C.ar    
   5 C5            -2.4221     1.3461     0.0319 C.ar    
   6 C6            -1.2229     2.0649     0.0306 C.ar    
   7 C7            -4.8632     1.3659     0.0543 C.2     
   8 C8            -3.7098     2.0594     0.0475 C.2     
   9 O9             1.1512     2.0860     0.0023 O.3     
  10 C10            1.6010    -1.7068     0.8216 C.2     
  11 N11            1.2260    -0.6865    -0.0138 N.pl3   
  12 C12            2.8470    -2.0685     0.4606 C.2     
  13 N13            3.2271    -1.2938    -0.5662 N.2     
  14 C14            2.2648    -0.4620    -0.8596 C.2     
  15 C15            3.6719    -3.1555     1.1002 C.3     
  16 C16           -7.3326    -0.0227    -0.3858 C.3     
  17 N17           -7.3514     1.3586     0.0770 N.pl3   
  18 C18           -6.1474     2.0773     0.0699 C.2     
  19 C19           -8.5330     2.0859     0.5004 C.3     
  20 C20           -8.5605     3.4377    -0.2156 C.3     
  21 O21           -7.3583     4.1388     0.1237 O.3     
  22 N22           -6.1745     3.3756     0.0775 N.2     
  23 C23           -9.8499     1.3640     0.4294 C.3     
  24 C24           -9.7960     0.1529    -0.4999 C.3     
  25 C25           -8.6353    -0.7394    -0.0336 C.3     
  26 C26           -8.3254     2.4006     1.9595 C.ar    
  27 C27           -9.2919     3.0977     2.6601 C.ar    
  28 C28           -7.1710     1.9868     2.5977 C.ar    
  29 C29           -6.9799     2.2740     3.9360 C.ar    
  30 C30           -7.9449     2.9768     4.6374 C.ar    
  31 C31           -9.1028     3.3864     3.9983 C.ar    
  32 F32           -7.7591     3.2581     5.9456 F       
  33 C33            1.0570     3.5119     0.0108 C.3     
  34 H34           -1.1702    -1.7980     0.0035 H       
  35 H35           -3.3202    -0.6100     0.0292 H       
  36 H36           -1.2390     3.1448     0.0369 H       
  37 H37           -4.8440     0.2861     0.0483 H       
  38 H38           -3.7289     3.1393     0.0535 H       
  39 H39            1.0120    -2.1351     1.6191 H       
  40 H40            2.2905     0.2806    -1.6434 H       
  41 H41            3.4808    -4.1019     0.5942 H       
  42 H42            4.7296    -2.9058     1.0165 H       
  43 H43            3.4018    -3.2450     2.1524 H       
  44 H44           -7.1987    -0.0355    -1.4675 H       
  45 H45           -6.4989    -0.5455     0.0829 H       
  46 H46           -8.6058     3.2833    -1.2936 H       
  47 H47           -9.4273     4.0114     0.1125 H       
  48 H48          -10.1244     1.0300     1.4300 H       
  49 H49          -10.6122     2.0538     0.0673 H       
  50 H50          -10.7337    -0.3998    -0.4418 H       
  51 H51           -9.6219     0.4806    -1.5248 H       
  52 H52           -8.6788    -1.7006    -0.5456 H       
  53 H53           -8.6947    -0.8904     1.0443 H       
  54 H54          -10.1951     3.4172     2.1613 H       
  55 H55           -6.4184     1.4387     2.0504 H       
  56 H56           -6.0783     1.9501     4.4346 H       
  57 H57           -9.8561     3.9349     4.5443 H       
  58 H58            0.5119     3.8453    -0.8722 H       
  59 H59            0.5289     3.8358     0.9076 H       
  60 H60            2.0585     3.9422     0.0036 H       
@<TRIPOS>BOND
   1    1    2 ar
   2    1    9 1
   3    1    6 ar
   4    2    3 ar
   5    2   11 1
   6    3    4 ar
   7    3   34 1
   8    4    5 ar
   9    4   35 1
  10    5    6 ar
  11    5    8 1
  12    6   36 1
  13    7    8 2
  14    7   18 1
  15    7   37 1
  16    8   38 1
  17    9   33 1
  18   10   11 1
  19   10   12 2
  20   10   39 1
  21   11   14 1
  22   12   13 1
  23   12   15 1
  24   13   14 2
  25   14   40 1
  26   15   41 1
  27   15   42 1
  28   15   43 1
  29   16   17 1
  30   16   25 1
  31   16   44 1
  32   16   45 1
  33   17   18 1
  34   17   19 1
  35   18   22 2
  36   19   20 1
  37   19   23 1
  38   19   26 1
  39   20   21 1
  40   20   46 1
  41   20   47 1
  42   21   22 1
  43   23   24 1
  44   23   48 1
  45   23   49 1
  46   24   25 1
  47   24   50 1
  48   24   51 1
  49   25   52 1
  50   25   53 1
  51   26   27 ar
  52   26   28 ar
  53   27   31 ar
  54   27   54 1
  55   28   29 ar
  56   28   55 1
  57   29   30 ar
  58   29   56 1
  59   30   31 ar
  60   30   32 1
  61   31   57 1
  62   33   58 1
  63   33   59 1
  64   33   60 1

#	End of record

