#	Name: ASD04560075
#	Creating user name:	WinNT
#	Creation time:	15. 06. 2019 20:49

#	Modifying user name:	WinNT
#	Modification time:	15. 06. 2019 20:49

#	Program:	/corina/corina34_cracker 3.40 0067  02.08.2006

@<TRIPOS>MOLECULE
ASD04560075
  59   61    0    0    0
SMALL
NO_CHARGES


@<TRIPOS>ATOM
   1 C1            -0.0063     1.7033     0.0616 C.ar    
   2 C2             0.0504     0.3336     0.0585 C.ar    
   3 C3             1.2838    -0.3138     0.0498 C.ar    
   4 C4             2.4629     0.4280     0.0441 C.ar    
   5 C5             2.4125     1.7979     0.0477 C.ar    
   6 C6             1.1757     2.4506     0.0560 C.ar    
   7 C7             1.1181     3.9240     0.0593 C.2     
   8 O8             2.1467     4.5728     0.0548 O.2     
   9 N9            -0.0745     4.5518     0.0674 N.am    
  10 C10           -0.1310     5.9454     0.1838 C.ar    
  11 C11           -1.1192     6.6592    -0.4814 C.ar    
  12 C12            0.7396     7.9909     1.0832 C.ar    
  13 C13            0.7974     6.6157     0.9693 C.ar    
  14 S14            1.3527    -2.0745     0.0464 S.3     
  15 C15           -1.1734     8.0343    -0.3647 C.ar    
  16 C16           -0.2431     8.7013     0.4145 C.ar    
  17 C17            3.1347    -2.4132     0.0347 C.3     
  18 C18            3.3664    -3.9255     0.0307 C.3     
  19 F19           -0.2980    10.0464     0.5272 F       
  20 C20            4.8695    -4.2111     0.0209 C.3     
  21 C21            5.1012    -5.7235     0.0169 C.3     
  22 C22            6.6043    -6.0091     0.0071 C.3     
  23 O23            6.8207    -7.4216     0.0033 O.3     
  24 C24            8.1088    -7.8474    -0.0054 C.ar    
  25 C25            9.1458    -6.9176    -0.0103 C.ar    
  26 C26           10.4454    -7.3327    -0.0191 C.ar    
  27 C27           10.7450    -8.7021    -0.0232 C.ar    
  28 C28            9.7000    -9.6434    -0.0178 C.ar    
  29 C29            8.3865    -9.2067    -0.0036 C.ar    
  30 O30            9.9775   -10.9707    -0.0218 O.3     
  31 C31           12.1396    -9.1504    -0.0336 C.2     
  32 O32           12.3974   -10.3327     0.0564 O.2     
  33 C33           13.2539    -8.1433    -0.1561 C.3     
  34 H34           -0.9628     2.2047     0.0639 H       
  35 H35           -0.8621    -0.2441     0.0632 H       
  36 H36            3.4177    -0.0767     0.0373 H       
  37 H37            3.3269     2.3725     0.0440 H       
  38 H38           -0.8937     4.0377    -0.0075 H       
  39 H39           -1.8445     6.1394    -1.0898 H       
  40 H40            1.4615     8.5126     1.6940 H       
  41 H41            1.5640     6.0620     1.4910 H       
  42 H42           -1.9418     8.5898    -0.8819 H       
  43 H43            3.5821    -1.9747    -0.8573 H       
  44 H44            3.5931    -1.9777     0.9226 H       
  45 H45            2.9191    -4.3640     0.9228 H       
  46 H46            2.9080    -4.3610    -0.8572 H       
  47 H47            5.3168    -3.7727    -0.8712 H       
  48 H48            5.3279    -3.7757     0.9088 H       
  49 H49            4.6539    -6.1620     0.9089 H       
  50 H50            4.6428    -6.1590    -0.8710 H       
  51 H51            7.0516    -5.5707    -0.8850 H       
  52 H52            7.0627    -5.5737     0.8949 H       
  53 H53            8.9198    -5.8615    -0.0074 H       
  54 H54           11.2440    -6.6057    -0.0232 H       
  55 H55            7.5786    -9.9234     0.0010 H       
  56 H56           10.0639   -11.3571     0.8604 H       
  57 H57           12.8374    -7.1363    -0.1358 H       
  58 H58           13.9478    -8.2663     0.6754 H       
  59 H59           13.7826    -8.2990    -1.0965 H       
@<TRIPOS>BOND
   1    1    2 ar
   2    1    6 ar
   3    1   34 1
   4    2    3 ar
   5    2   35 1
   6    3    4 ar
   7    3   14 1
   8    4    5 ar
   9    4   36 1
  10    5    6 ar
  11    5   37 1
  12    6    7 1
  13    7    8 2
  14    7    9 am
  15    9   10 1
  16    9   38 1
  17   10   11 ar
  18   10   13 ar
  19   11   15 ar
  20   11   39 1
  21   12   13 ar
  22   12   16 ar
  23   12   40 1
  24   13   41 1
  25   14   17 1
  26   15   16 ar
  27   15   42 1
  28   16   19 1
  29   17   18 1
  30   17   43 1
  31   17   44 1
  32   18   20 1
  33   18   45 1
  34   18   46 1
  35   20   21 1
  36   20   47 1
  37   20   48 1
  38   21   22 1
  39   21   49 1
  40   21   50 1
  41   22   23 1
  42   22   51 1
  43   22   52 1
  44   23   24 1
  45   24   25 ar
  46   24   29 ar
  47   25   26 ar
  48   25   53 1
  49   26   27 ar
  50   26   54 1
  51   27   28 ar
  52   27   31 1
  53   28   29 ar
  54   28   30 1
  55   29   55 1
  56   30   56 1
  57   31   32 2
  58   31   33 1
  59   33   57 1
  60   33   58 1
  61   33   59 1

#	End of record

