#	Name: ASD05740117
#	Creating user name:	WinNT
#	Creation time:	15. 06. 2019 21:02

#	Modifying user name:	WinNT
#	Modification time:	15. 06. 2019 21:02

#	Program:	/corina/corina34_cracker 3.40 0067  02.08.2006

@<TRIPOS>MOLECULE
ASD05740117
  47   50    0    0    0
SMALL
NO_CHARGES


@<TRIPOS>ATOM
   1 C1            -0.0101     1.7896     0.4188 C.3     
   2 C2             1.2311     1.4994    -4.0809 C.ar    
   3 C3             0.2398    -0.5672     1.3113 C.2     
   4 C4             0.3985    -1.9266     1.1094 C.2     
   5 C5             0.1637     0.3079     0.2055 C.2     
   6 C6             0.2485    -0.2007    -1.0578 C.2     
   7 C7             0.4105    -1.5907    -1.2278 C.2     
   8 O8             0.4805    -2.4041    -0.1671 O.3     
   9 O9             0.1774     0.6225    -2.1386 O.3     
  10 C10            1.2878     0.7610    -2.9091 C.ar    
  11 C11            2.4800     0.1628    -2.5234 C.ar    
  12 O12            0.4871    -2.0566    -2.3520 O.2     
  13 C13            2.3676     1.6385    -4.8660 C.ar    
  14 C14            3.5577     1.0375    -4.4748 C.ar    
  15 C15            3.6099     0.3024    -3.3061 C.ar    
  16 N16            2.3146     2.3812    -6.0476 N.am    
  17 S17            3.0111     1.7902    -7.4290 S.o2    
  18 O18            2.7593     2.7490    -8.4471 O.2     
  19 O19            4.3179     1.3639    -7.0687 O.2     
  20 C20            0.4551    -2.6499     2.3028 C.2     
  21 C21            0.3498    -1.9334     3.4207 C.2     
  22 S22            0.1568    -0.2310     3.0376 S.3     
  23 O23            0.6079    -4.0035     2.3222 O.3     
  24 C24            1.8662    -4.5020     2.2745 C.ar    
  25 N25            2.0392    -5.8114     2.1896 N.ar    
  26 N26            2.8930    -3.6676     2.3085 N.ar    
  27 C27            4.1350    -4.1209     2.2632 C.ar    
  28 C28            4.3530    -5.4871     2.1793 C.ar    
  29 C29            3.2545    -6.3315     2.1406 C.ar    
  30 N30            2.1748     0.4257    -7.8545 N.am    
  31 C31            0.7679     0.5227    -8.2513 C.3     
  32 H32            0.9646     2.2503     0.5796 H       
  33 H33           -0.4798     2.2306    -0.4604 H       
  34 H34           -0.6407     1.9596     1.2914 H       
  35 H35            0.3036     1.9617    -4.3849 H       
  36 H36            2.5242    -0.4121    -1.6102 H       
  37 H37            4.4424     1.1447    -5.0849 H       
  38 H38            4.5360    -0.1637    -3.0036 H       
  39 H39            1.8699     3.2431    -6.0592 H       
  40 H40            0.3747    -2.3420     4.4201 H       
  41 H41            4.9687    -3.4350     2.2909 H       
  42 H42            5.3564    -5.8846     2.1405 H       
  43 H43            3.3893    -7.4011     2.0757 H       
  44 H44            2.6164    -0.4378    -7.8410 H       
  45 H45            0.3895    -0.4703    -8.4939 H       
  46 H46            0.1868     0.9423    -7.4300 H       
  47 H47            0.6805     1.1684    -9.1251 H       
@<TRIPOS>BOND
   1    1    5 1
   2    1   32 1
   3    1   33 1
   4    1   34 1
   5    2   10 ar
   6    2   13 ar
   7    2   35 1
   8    3    4 2
   9    3    5 1
  10    3   22 1
  11    4   20 1
  12    4    8 1
  13    5    6 2
  14    6    7 1
  15    6    9 1
  16    7    8 1
  17    7   12 2
  18    9   10 1
  19   10   11 ar
  20   11   15 ar
  21   11   36 1
  22   13   14 ar
  23   13   16 1
  24   14   15 ar
  25   14   37 1
  26   15   38 1
  27   16   17 am
  28   16   39 1
  29   17   18 2
  30   17   19 2
  31   17   30 am
  32   20   21 2
  33   20   23 1
  34   21   22 1
  35   21   40 1
  36   23   24 1
  37   24   25 ar
  38   24   26 ar
  39   25   29 ar
  40   26   27 ar
  41   27   28 ar
  42   27   41 1
  43   28   29 ar
  44   28   42 1
  45   29   43 1
  46   30   31 1
  47   30   44 1
  48   31   45 1
  49   31   46 1
  50   31   47 1

#	End of record

