#	Name: ASD04220014
#	Creating user name:	WinNT
#	Creation time:	15. 06. 2019 20:48

#	Modifying user name:	WinNT
#	Modification time:	15. 06. 2019 20:48

#	Program:	/corina/corina34_cracker 3.40 0067  02.08.2006

@<TRIPOS>MOLECULE
ASD04220014
  22   22    0    0    0
SMALL
NO_CHARGES


@<TRIPOS>ATOM
   1 C1            -0.0169     1.3987     0.0097 C.ar    
   2 C2             0.0021    -0.0041     0.0020 C.ar    
   3 C3            -1.1982    -0.7083     0.0102 C.ar    
   4 C4            -2.4019    -0.0249     0.0258 C.ar    
   5 C5            -2.4216     1.3611     0.0330 C.ar    
   6 C6            -1.2443     2.0741     0.0309 C.ar    
   7 O7             1.1840    -0.6704    -0.0138 O.3     
   8 C8             1.7622    -0.9957     1.2519 C.3     
   9 O9            -1.1886    -2.0682     0.0023 O.3     
  10 C10           -2.4572    -2.7260     0.0115 C.3     
  11 C11            1.2416     2.1543     0.0018 C.2     
  12 O12            1.2210     3.3670     0.0085 O.2     
  13 H13           -3.3313    -0.5749     0.0321 H       
  14 H14           -3.3662     1.8846     0.0448 H       
  15 H15           -1.2666     3.1539     0.0365 H       
  16 H16            2.7020    -1.5256     1.0965 H       
  17 H17            1.9499    -0.0796     1.8119 H       
  18 H18            1.0758    -1.6302     1.8126 H       
  19 H19           -3.0072    -2.4422     0.9087 H       
  20 H20           -3.0253    -2.4321    -0.8711 H       
  21 H21           -2.3068    -3.8056     0.0038 H       
  22 H22            2.1859     1.6303    -0.0101 H       
@<TRIPOS>BOND
   1    1    2 ar
   2    1   11 1
   3    1    6 ar
   4    2    3 ar
   5    2    7 1
   6    3    4 ar
   7    3    9 1
   8    4    5 ar
   9    4   13 1
  10    5    6 ar
  11    5   14 1
  12    6   15 1
  13    7    8 1
  14    8   16 1
  15    8   17 1
  16    8   18 1
  17    9   10 1
  18   10   19 1
  19   10   20 1
  20   10   21 1
  21   11   12 2
  22   11   22 1

#	End of record

