#	Name: ASD09740359
#	Creating user name:	WinNT
#	Creation time:	15. 06. 2019 21:23

#	Modifying user name:	WinNT
#	Modification time:	15. 06. 2019 21:23

#	Program:	/corina/corina34_cracker 3.40 0067  02.08.2006

@<TRIPOS>MOLECULE
ASD09740359
  53   56    0    0    0
SMALL
NO_CHARGES


@<TRIPOS>ATOM
   1 O1            -0.0157     1.4665    -0.2546 O.3     
   2 O2             0.0997     4.1564    -0.8239 O.3     
   3 N3             6.1133    -0.4061     0.1193 N.2     
   4 O4             4.9450    -0.0871     0.0563 O.3     
   5 C5             6.8809     0.6315    -0.1026 C.2     
   6 N6             6.0728     1.6902    -0.3231 N.2     
   7 C7             4.8425     1.2226    -0.2198 C.2     
   8 C8             3.5924     1.9930    -0.3782 C.ar    
   9 C9             8.3628     0.6416    -0.1098 C.ar    
  10 C10            9.0750    -0.2920    -0.8835 C.ar    
  11 C11           10.4810    -0.2738    -0.8833 C.ar    
  12 C12           11.1536     0.6709    -0.1158 C.ar    
  13 C13           10.4456     1.5825     0.6391 C.ar    
  14 C14            9.0609     1.5771     0.6433 C.ar    
  15 C15            2.3561     1.3573    -0.2394 C.ar    
  16 C16            1.1895     2.0823    -0.3886 C.ar    
  17 C17            1.2478     3.4448    -0.6770 C.ar    
  18 C18            2.4757     4.0758    -0.8148 C.ar    
  19 C19            3.6437     3.3591    -0.6614 C.ar    
  20 C20            0.2324     5.5483    -1.1187 C.3     
  21 C21           -1.1565     6.1770    -1.2473 C.3     
  22 C22           -0.0006     0.0684     0.0406 C.3     
  23 C23           -1.4376    -0.4445     0.1537 C.3     
  24 N24           10.8998    -1.2865    -1.7180 N.pl3   
  25 C25            9.8160    -1.9366    -2.2396 C.2     
  26 C26            8.6832    -1.3832    -1.7741 C.2     
  27 C27            7.2759    -1.8074    -2.1066 C.3     
  28 N28            6.6710    -0.8263    -3.0174 N.3     
  29 C29            5.2955    -1.2080    -3.3642 C.3     
  30 H30           12.2334     0.6905    -0.1105 H       
  31 H31           10.9779     2.3117     1.2318 H       
  32 H32            8.5219     2.2980     1.2401 H       
  33 H33            2.3124     0.3015    -0.0163 H       
  34 H34            2.5168     5.1317    -1.0382 H       
  35 H35            4.5982     3.8527    -0.7692 H       
  36 H36            0.7805     6.0394    -0.3146 H       
  37 H37            0.7750     5.6711    -2.0560 H       
  38 H38           -1.7046     5.6860    -2.0514 H       
  39 H39           -1.6991     6.0543    -0.3099 H       
  40 H40           -1.0553     7.2388    -1.4722 H       
  41 H41            0.5141    -0.4660    -0.7579 H       
  42 H42            0.5199    -0.0982     0.9837 H       
  43 H43           -1.9524     0.0899     0.9522 H       
  44 H44           -1.9582    -0.2778    -0.7894 H       
  45 H45           -1.4261    -1.5109     0.3788 H       
  46 H46           11.8255    -1.5056    -1.9077 H       
  47 H47            9.8631    -2.7705    -2.9243 H       
  48 H48            7.2952    -2.7856    -2.5872 H       
  49 H49            6.6875    -1.8640    -1.1908 H       
  50 H50            6.6998     0.1010    -2.6209 H       
  51 H51            4.8714    -0.4648    -4.0393 H       
  52 H52            5.3010    -2.1820    -3.8534 H       
  53 H53            4.6933    -1.2605    -2.4571 H       
@<TRIPOS>BOND
   1    1   22 1
   2    1   16 1
   3    2   20 1
   4    2   17 1
   5    3    4 1
   6    3    5 2
   7    4    7 1
   8    5    6 1
   9    5    9 1
  10    6    7 2
  11    7    8 1
  12    8   15 ar
  13    8   19 ar
  14    9   10 ar
  15    9   14 ar
  16   10   11 ar
  17   10   26 1
  18   11   12 ar
  19   11   24 1
  20   12   13 ar
  21   12   30 1
  22   13   14 ar
  23   13   31 1
  24   14   32 1
  25   15   16 ar
  26   15   33 1
  27   16   17 ar
  28   17   18 ar
  29   18   19 ar
  30   18   34 1
  31   19   35 1
  32   20   21 1
  33   20   36 1
  34   20   37 1
  35   21   38 1
  36   21   39 1
  37   21   40 1
  38   22   23 1
  39   22   41 1
  40   22   42 1
  41   23   43 1
  42   23   44 1
  43   23   45 1
  44   24   25 1
  45   24   46 1
  46   25   26 2
  47   25   47 1
  48   26   27 1
  49   27   28 1
  50   27   48 1
  51   27   49 1
  52   28   29 1
  53   28   50 1
  54   29   51 1
  55   29   52 1
  56   29   53 1

#	End of record

