#	Name: ASD01882977
#	Creating user name:	WinNT
#	Creation time:	15. 06. 2019 19:45

#	Modifying user name:	WinNT
#	Modification time:	15. 06. 2019 19:45

#	Program:	/corina/corina34_cracker 3.40 0067  02.08.2006

@<TRIPOS>MOLECULE
ASD01882977
  39   41    0    0    0
SMALL
NO_CHARGES


@<TRIPOS>ATOM
   1 C1            -0.0170     1.4009     0.0097 C.2     
   2 C2             0.0021    -0.0041     0.0020 C.2     
   3 C3            -1.2235    -0.6971     0.0105 C.2     
   4 C4            -2.3887    -0.0099     0.0258 C.2     
   5 N5            -2.4085     1.3474     0.0332 N.am    
   6 C6            -1.2693     2.0642     0.0312 C.2     
   7 C7            -3.6960     2.0462     0.0498 C.3     
   8 C8            -4.1298     2.2817     1.4980 C.3     
   9 C9             1.2048     2.1477     0.0021 C.1     
  10 N10            2.1741     2.7402    -0.0040 N.1     
  11 O11           -1.3147     3.2825     0.0387 O.2     
  12 C12           -5.4542     3.0006     1.5150 C.ar    
  13 C13            1.2848    -0.7407    -0.0152 C.ar    
  14 C14           -6.6327     2.2781     1.5228 C.ar    
  15 C15           -7.8476     2.9375     1.5384 C.ar    
  16 C16           -7.8839     4.3193     1.5466 C.ar    
  17 C17           -6.7054     5.0418     1.5397 C.ar    
  18 C18           -5.4905     4.3824     1.5285 C.ar    
  19 C19            1.6499    -1.5380     1.0708 C.ar    
  20 C20            2.8472    -2.2227     1.0482 C.ar    
  21 C21            3.6858    -2.1201    -0.0476 C.ar    
  22 C22            3.3301    -1.3311    -1.1272 C.ar    
  23 C23            2.1327    -0.6461    -1.1199 C.ar    
  24 H24           -1.2335    -1.7771     0.0044 H       
  25 H25           -3.3225    -0.5523     0.0318 H       
  26 H26           -3.5958     3.0044    -0.4599 H       
  27 H27           -4.4449     1.4401    -0.4599 H       
  28 H28           -4.2300     1.3235     2.0077 H       
  29 H29           -3.3809     2.8878     2.0076 H       
  30 H30           -6.6043     1.1985     1.5165 H       
  31 H31           -8.7683     2.3730     1.5438 H       
  32 H32           -8.8331     4.8345     1.5581 H       
  33 H33           -6.7338     6.1214     1.5457 H       
  34 H34           -4.5698     4.9468     1.5231 H       
  35 H35            0.9965    -1.6184     1.9270 H       
  36 H36            3.1309    -2.8400     1.8879 H       
  37 H37            4.6223    -2.6579    -0.0601 H       
  38 H38            3.9893    -1.2550    -1.9793 H       
  39 H39            1.8560    -0.0309    -1.9633 H       
@<TRIPOS>BOND
   1    1    2 2
   2    1    9 1
   3    1    6 1
   4    2    3 1
   5    2   13 1
   6    3    4 2
   7    3   24 1
   8    4    5 1
   9    4   25 1
  10    5    7 1
  11    5    6 am
  12    6   11 2
  13    7    8 1
  14    7   26 1
  15    7   27 1
  16    8   12 1
  17    8   28 1
  18    8   29 1
  19    9   10 3
  20   12   14 ar
  21   12   18 ar
  22   13   19 ar
  23   13   23 ar
  24   14   15 ar
  25   14   30 1
  26   15   16 ar
  27   15   31 1
  28   16   17 ar
  29   16   32 1
  30   17   18 ar
  31   17   33 1
  32   18   34 1
  33   19   20 ar
  34   19   35 1
  35   20   21 ar
  36   20   36 1
  37   21   22 ar
  38   21   37 1
  39   22   23 ar
  40   22   38 1
  41   23   39 1

#	End of record

