#	Name: ASD01001087
#	Creating user name:	WinNT
#	Creation time:	15. 06. 2019 18:55

#	Modifying user name:	WinNT
#	Modification time:	15. 06. 2019 18:55

#	Program:	/corina/corina34_cracker 3.40 0067  02.08.2006

@<TRIPOS>MOLECULE
ASD01001087
  38   40    0    0    0
SMALL
NO_CHARGES


@<TRIPOS>ATOM
   1 C1            -0.0166     1.3749     0.0096 C.ar    
   2 C2             0.0021    -0.0041     0.0020 C.ar    
   3 C3             1.1853     2.0867     0.0019 C.ar    
   4 C4             1.2077    -0.6836    -0.0127 C.ar    
   5 C5             2.3994     1.3944    -0.0134 C.ar    
   6 C6             1.1732     3.5614     0.0095 C.2     
   7 C7             2.4023     0.0135    -0.0199 C.ar    
   8 N8             2.2189     4.3131     0.0031 N.2     
   9 N9             1.9391     5.6780     0.0122 N.am    
  10 C10            0.4795     5.8644     0.0270 C.3     
  11 C11           -0.0688     4.4236     0.0194 C.3     
  12 C12            2.8556     6.6662     0.0085 C.2     
  13 C13            0.0505     6.5937     1.2741 C.ar    
  14 C14            0.6666     6.3195     2.4809 C.ar    
  15 C15            0.2750     6.9868     3.6271 C.ar    
  16 C16           -0.7332     7.9291     3.5687 C.ar    
  17 C17           -1.3528     8.2064     2.3586 C.ar    
  18 C18           -0.9543     7.5398     1.2092 C.ar    
  19 Cl19           3.8995     2.2681    -0.0236 Cl      
  20 O20           -2.3453     9.1328     2.2986 O.3     
  21 O21            2.4972     7.8274     0.0178 O.2     
  22 O22            4.1686     6.3668    -0.0055 O.3     
  23 C23            5.0989     7.4816    -0.0087 C.3     
  24 H24           -0.9585     1.9033     0.0169 H       
  25 H25           -0.9267    -0.5552     0.0079 H       
  26 H26            1.2158    -1.7635    -0.0182 H       
  27 H27            3.3394    -0.5233    -0.0306 H       
  28 H28            0.1521     6.4003    -0.8639 H       
  29 H29           -0.6698     4.2479    -0.8728 H       
  30 H30           -0.6535     4.2323     0.9192 H       
  31 H31            1.4548     5.5828     2.5287 H       
  32 H32            0.7576     6.7706     4.5688 H       
  33 H33           -1.0392     8.4494     4.4643 H       
  34 H34           -1.4350     7.7539     0.2661 H       
  35 H35           -2.0347    10.0309     2.1195 H       
  36 H36            6.1207     7.1022    -0.0204 H       
  37 H37            4.9288     8.0943    -0.8940 H       
  38 H38            4.9457     8.0853     0.8859 H       
@<TRIPOS>BOND
   1    1    2 ar
   2    1    3 ar
   3    1   24 1
   4    2    4 ar
   5    2   25 1
   6    3    6 1
   7    3    5 ar
   8    4    7 ar
   9    4   26 1
  10    5   19 1
  11    5    7 ar
  12    6    8 2
  13    6   11 1
  14    7   27 1
  15    8    9 1
  16    9   10 1
  17    9   12 am
  18   10   11 1
  19   10   13 1
  20   10   28 1
  21   11   29 1
  22   11   30 1
  23   12   21 2
  24   12   22 1
  25   13   14 ar
  26   13   18 ar
  27   14   15 ar
  28   14   31 1
  29   15   16 ar
  30   15   32 1
  31   16   17 ar
  32   16   33 1
  33   17   18 ar
  34   17   20 1
  35   18   34 1
  36   20   35 1
  37   22   23 1
  38   23   36 1
  39   23   37 1
  40   23   38 1

#	End of record

