#	Name: ASD02198767
#	Creating user name:	WinNT
#	Creation time:	15. 06. 2019 20:20

#	Modifying user name:	WinNT
#	Modification time:	15. 06. 2019 20:20

#	Program:	/corina/corina34_cracker 3.40 0067  02.08.2006

@<TRIPOS>MOLECULE
ASD02198767
  47   51    0    0    0
SMALL
NO_CHARGES


@<TRIPOS>ATOM
   1 F1             2.2532    -1.7090     2.4707 F       
   2 C2            -0.0432     1.5016    -0.1151 C.2     
   3 C3            -0.0730     0.1620     0.0974 C.2     
   4 N4             1.0716    -0.5398     0.2598 N.pl3   
   5 N5             2.2361    -0.0051     0.2261 N.2     
   6 C6             2.4077     1.2841     0.0280 C.2     
   7 C7             1.2218     2.1355    -0.1606 C.2     
   8 C8             0.9802    -1.9177     0.4756 C.ar    
   9 C9             1.5815    -2.4877     1.5946 C.ar    
  10 C10            1.4916    -3.8487     1.8085 C.ar    
  11 C11            0.7984    -4.6507     0.9032 C.ar    
  12 C12            0.1973    -4.0765    -0.2166 C.ar    
  13 C13            0.2841    -2.7167    -0.4242 C.ar    
  14 C14            3.7647     1.8663    -0.0042 C.2     
  15 N15            4.3070     2.6064    -1.0170 N.pl3   
  16 N16            5.6086     2.9583    -0.6387 N.2     
  17 C17            5.8520     2.4588     0.5468 C.2     
  18 C18            4.7201     1.7707     0.9838 C.2     
  19 C19            3.6744     2.9509    -2.2183 C.ar    
  20 C20            3.8082     4.2341    -2.7321 C.ar    
  21 C21            3.1833     4.5707    -3.9168 C.ar    
  22 C22            2.4249     3.6314    -4.5913 C.ar    
  23 C23            2.2894     2.3529    -4.0821 C.ar    
  24 C24            2.9169     2.0083    -2.9010 C.ar    
  25 O25            1.3248     3.3385    -0.3484 O.2     
  26 C26            0.7008    -6.1128     1.1303 C.ar    
  27 C27            0.0064    -6.9084     0.2213 C.ar    
  28 C28           -0.0762    -8.2717     0.4467 C.ar    
  29 C29            0.5391    -8.7950     1.5750 C.ar    
  30 C30            1.2119    -7.9470     2.4355 C.ar    
  31 N31            1.2800    -6.6536     2.1948 N.ar    
  32 H32           -0.9546     2.0652    -0.2496 H       
  33 H33           -1.0229    -0.3504     0.1377 H       
  34 H34            1.9581    -4.2915     2.6761 H       
  35 H35           -0.3400    -4.6967    -0.9187 H       
  36 H36           -0.1816    -2.2727    -1.2915 H       
  37 H37            6.7752     2.5653     1.0971 H       
  38 H38            4.6139     1.2513     1.9247 H       
  39 H39            4.4001     4.9682    -2.2056 H       
  40 H40            3.2866     5.5686    -4.3167 H       
  41 H41            1.9372     3.8971    -5.5176 H       
  42 H42            1.6959     1.6218    -4.6109 H       
  43 H43            2.8106     1.0097    -2.5038 H       
  44 H44           -0.4611    -6.4676    -0.6467 H       
  45 H45           -0.6079    -8.9136    -0.2400 H       
  46 H46            0.4926    -9.8544     1.7793 H       
  47 H47            1.6915    -8.3511     3.3148 H       
@<TRIPOS>BOND
   1    1    9 1
   2    2    3 2
   3    2    7 1
   4    2   32 1
   5    3    4 1
   6    3   33 1
   7    4    5 1
   8    4    8 1
   9    5    6 2
  10    6    7 1
  11    6   14 1
  12    7   25 2
  13    8    9 ar
  14    8   13 ar
  15    9   10 ar
  16   10   11 ar
  17   10   34 1
  18   11   12 ar
  19   11   26 1
  20   12   13 ar
  21   12   35 1
  22   13   36 1
  23   14   15 1
  24   14   18 2
  25   15   16 1
  26   15   19 1
  27   16   17 2
  28   17   18 1
  29   17   37 1
  30   18   38 1
  31   19   20 ar
  32   19   24 ar
  33   20   21 ar
  34   20   39 1
  35   21   22 ar
  36   21   40 1
  37   22   23 ar
  38   22   41 1
  39   23   24 ar
  40   23   42 1
  41   24   43 1
  42   26   27 ar
  43   26   31 ar
  44   27   28 ar
  45   27   44 1
  46   28   29 ar
  47   28   45 1
  48   29   30 ar
  49   29   46 1
  50   30   31 ar
  51   30   47 1

#	End of record

