#	Name: ASD02198201
#	Creating user name:	WinNT
#	Creation time:	15. 06. 2019 20:19

#	Modifying user name:	WinNT
#	Modification time:	15. 06. 2019 20:19

#	Program:	/corina/corina34_cracker 3.40 0067  02.08.2006

@<TRIPOS>MOLECULE
ASD02198201
  39   41    0    0    0
SMALL
NO_CHARGES


@<TRIPOS>ATOM
   1 C1            -0.2635     1.3688    -0.4966 C.2     
   2 C2            -0.2972    -0.0081    -0.5380 C.2     
   3 C3            -1.4360    -0.7740    -0.1294 C.1     
   4 S4             1.2375     1.9561    -1.0526 S.3     
   5 C5             1.8374     0.3321    -1.3483 C.2     
   6 C6             0.8783    -0.5880    -1.0146 C.2     
   7 C7             3.1171     0.0210    -1.8544 C.2     
   8 N8             3.9839     1.0100    -2.1492 N.am    
   9 O9             3.4387    -1.1420    -2.0250 O.2     
  10 N10            1.0585    -1.9586    -1.1383 N.pl3   
  11 N11           -1.3038     2.1634    -0.0693 N.pl3   
  12 N12           -2.3394    -1.3817     0.1948 N.1     
  13 C13           -1.1239     3.5459     0.0526 C.ar    
  14 C14           -2.1583     4.4128    -0.2755 C.ar    
  15 C15           -1.9802     5.7766    -0.1545 C.ar    
  16 C16           -0.7683     6.2812     0.2948 C.ar    
  17 C17            0.2656     5.4159     0.6224 C.ar    
  18 C18            0.0871     4.0516     0.5073 C.ar    
  19 O19           -0.5938     7.6243     0.4137 O.3     
  20 C20            0.1138     8.2638    -0.5541 C.ar    
  21 C21            0.3713     9.6228    -0.4437 C.ar    
  22 C22            1.0908    10.2705    -1.4291 C.ar    
  23 C23            1.5545     9.5658    -2.5247 C.ar    
  24 C24            1.2989     8.2115    -2.6373 C.ar    
  25 C25            0.5852     7.5578    -1.6518 C.ar    
  26 H26            3.7279     1.9357    -2.0135 H       
  27 H27            4.8637     0.7961    -2.4972 H       
  28 H28            1.8976    -2.3089    -1.4760 H       
  29 H29            0.3452    -2.5662    -0.8871 H       
  30 H30           -2.1613     1.7650     0.1471 H       
  31 H31           -3.1016     4.0202    -0.6256 H       
  32 H32           -2.7843     6.4508    -0.4099 H       
  33 H33            1.2089     5.8094     0.9714 H       
  34 H34            0.8920     3.3781     0.7623 H       
  35 H35            0.0091    10.1738     0.4116 H       
  36 H36            1.2912    11.3283    -1.3438 H       
  37 H37            2.1168    10.0740    -3.2939 H       
  38 H38            1.6616     7.6635    -3.4944 H       
  39 H39            0.3862     6.4999    -1.7401 H       
@<TRIPOS>BOND
   1    1    2 2
   2    1    4 1
   3    1   11 1
   4    2    3 1
   5    2    6 1
   6    3   12 3
   7    4    5 1
   8    5    6 2
   9    5    7 1
  10    6   10 1
  11    7    8 am
  12    7    9 2
  13    8   26 1
  14    8   27 1
  15   10   28 1
  16   10   29 1
  17   11   13 1
  18   11   30 1
  19   13   14 ar
  20   13   18 ar
  21   14   15 ar
  22   14   31 1
  23   15   16 ar
  24   15   32 1
  25   16   17 ar
  26   16   19 1
  27   17   18 ar
  28   17   33 1
  29   18   34 1
  30   19   20 1
  31   20   21 ar
  32   20   25 ar
  33   21   22 ar
  34   21   35 1
  35   22   23 ar
  36   22   36 1
  37   23   24 ar
  38   23   37 1
  39   24   25 ar
  40   24   38 1
  41   25   39 1

#	End of record

