#	Name: ASD09720068
#	Creating user name:	WinNT
#	Creation time:	15. 06. 2019 21:22

#	Modifying user name:	WinNT
#	Modification time:	15. 06. 2019 21:22

#	Program:	/corina/corina34_cracker 3.40 0067  02.08.2006

@<TRIPOS>MOLECULE
ASD09720068
  43   45    0    0    0
SMALL
NO_CHARGES


@<TRIPOS>ATOM
   1 C1            -0.0107     1.4522     0.1799 C.2     
   2 C2             0.0210    -0.0135     0.0659 C.2     
   3 N3             1.1558    -0.6317    -0.0252 N.2     
   4 C4            -1.2666    -0.7965     0.0551 C.3     
   5 O5             2.3657     0.1040    -0.0151 O.3     
   6 S6            -0.9037    -2.5533    -0.2141 S.3     
   7 C7            -2.5017    -3.2954    -0.1959 C.ar    
   8 C8            -2.6348    -4.6672    -0.3747 C.ar    
   9 C9            -3.8887    -5.2452    -0.3599 C.ar    
  10 C10           -5.0114    -4.4608    -0.1678 C.ar    
  11 C11           -4.8829    -3.0953     0.0101 C.ar    
  12 C12           -3.6317    -2.5112     0.0030 C.ar    
  13 C13            1.0752     2.2847     0.3595 C.2     
  14 C14            0.6001     3.5935     0.4148 C.2     
  15 N15           -0.7018     3.5747     0.2779 N.2     
  16 N16           -1.1198     2.2472     0.1222 N.pl3   
  17 C17            1.4452     4.8270     0.6023 C.3     
  18 F18            1.8436     5.3137    -0.6474 F       
  19 F19            0.7001     5.8061     1.2681 F       
  20 F20            2.5767     4.5064     1.3601 F       
  21 C21           -3.4366     2.9668     0.0602 C.ar    
  22 C22           -3.8542     3.6366    -1.0746 C.ar    
  23 C23           -4.7174     4.7107    -0.9649 C.ar    
  24 C24           -5.1636     5.1146     0.2796 C.ar    
  25 C25           -4.7467     4.4441     1.4143 C.ar    
  26 C26           -3.8823     3.3710     1.3047 C.ar    
  27 C27           -2.5004     1.7920    -0.0599 C.3     
  28 H28           -1.7750    -0.6729     1.0113 H       
  29 H29           -1.9075    -0.4308    -0.7471 H       
  30 H30            3.1595    -0.4435    -0.0877 H       
  31 H31           -1.7585    -5.2802    -0.5255 H       
  32 H32           -3.9928    -6.3112    -0.4988 H       
  33 H33           -5.9909    -4.9156    -0.1570 H       
  34 H34           -5.7618    -2.4858     0.1594 H       
  35 H35           -3.5321    -1.4448     0.1420 H       
  36 H36            2.1072     1.9772     0.4428 H       
  37 H37           -3.5056     3.3211    -2.0469 H       
  38 H38           -5.0431     5.2345    -1.8515 H       
  39 H39           -5.8375     5.9541     0.3653 H       
  40 H40           -5.0947     4.7601     2.3867 H       
  41 H41           -3.5561     2.8476     2.1914 H       
  42 H42           -2.6073     1.3415    -1.0467 H       
  43 H43           -2.7434     1.0541     0.7047 H       
@<TRIPOS>BOND
   1    1    2 1
   2    1   13 2
   3    1   16 1
   4    2    3 2
   5    2    4 1
   6    3    5 1
   7    4    6 1
   8    4   28 1
   9    4   29 1
  10    5   30 1
  11    6    7 1
  12    7    8 ar
  13    7   12 ar
  14    8    9 ar
  15    8   31 1
  16    9   10 ar
  17    9   32 1
  18   10   11 ar
  19   10   33 1
  20   11   12 ar
  21   11   34 1
  22   12   35 1
  23   13   14 1
  24   13   36 1
  25   14   15 2
  26   14   17 1
  27   15   16 1
  28   16   27 1
  29   17   18 1
  30   17   19 1
  31   17   20 1
  32   21   22 ar
  33   21   26 ar
  34   21   27 1
  35   22   23 ar
  36   22   37 1
  37   23   24 ar
  38   23   38 1
  39   24   25 ar
  40   24   39 1
  41   25   26 ar
  42   25   40 1
  43   26   41 1
  44   27   42 1
  45   27   43 1

#	End of record

