#	Name: ASD01916992
#	Creating user name:	WinNT
#	Creation time:	15. 06. 2019 20:08

#	Modifying user name:	WinNT
#	Modification time:	15. 06. 2019 20:08

#	Program:	/corina/corina34_cracker 3.40 0067  02.08.2006

@<TRIPOS>MOLECULE
ASD01916992
  55   59    0    0    0
SMALL
NO_CHARGES


@<TRIPOS>ATOM
   1 C1            -0.0165     1.3081     0.0933 C.2     
   2 N2            -0.0002     0.0190    -0.1697 N.2     
   3 N3            -1.3364    -0.4127    -0.1792 N.pl3   
   4 C4            -2.0927     0.6775     0.0867 C.2     
   5 N5            -1.2844     1.7028     0.2530 N.2     
   6 C6             1.1786     2.1813     0.2017 C.ar    
   7 C7             1.0297     3.5372     0.4860 C.ar    
   8 C8             2.4530     1.6464     0.0250 C.ar    
   9 C9             3.5614     2.4617     0.1265 C.ar    
  10 C10            3.4086     3.8105     0.4041 C.ar    
  11 C11           -1.8167    -1.7742    -0.4283 C.3     
  12 C12           -1.8531    -2.5393     0.8695 C.2     
  13 N13           -2.2652    -3.8225     0.8839 N.am    
  14 O14           -1.5114    -2.0005     1.9009 O.2     
  15 C15           -2.3084    -4.5874     2.1394 C.3     
  16 C16           -3.6959    -5.2237     2.2743 C.3     
  17 N17           -3.9950    -5.9998     1.0635 N.3     
  18 C18           -4.0565    -5.1348    -0.1223 C.3     
  19 C19           -2.6896    -4.4930    -0.3544 C.3     
  20 C20           -5.1672    -6.7204     1.2131 C.ar    
  21 N21           -5.5912    -7.4804     0.2141 N.ar    
  22 C22           -6.7073    -8.1817     0.3246 C.ar    
  23 C23           -7.4344    -8.1141     1.5026 C.ar    
  24 C24           -6.9623    -7.3093     2.5275 C.ar    
  25 N25           -5.8358    -6.6379     2.3540 N.ar    
  26 C26           -3.5694     0.7102     0.1791 C.ar    
  27 C27            2.1435     4.3455     0.5857 C.ar    
  28 C28           -4.2531     1.9183     0.0418 C.ar    
  29 C29           -5.6300     1.9422     0.1290 C.ar    
  30 C30           -6.3322     0.7714     0.3524 C.ar    
  31 C31           -5.6599    -0.4299     0.4894 C.ar    
  32 C32           -4.2837    -0.4679     0.3980 C.ar    
  33 F33            4.4966     4.6053     0.5031 F       
  34 H34            0.0439     3.9550     0.6277 H       
  35 H35            2.5730     0.5950    -0.1908 H       
  36 H36            4.5496     2.0480    -0.0103 H       
  37 H37           -2.8192    -1.7335    -0.8544 H       
  38 H38           -1.1453    -2.2743    -1.1263 H       
  39 H39           -1.5480    -5.3681     2.1188 H       
  40 H40           -2.1285    -3.9192     2.9816 H       
  41 H41           -3.7108    -5.8832     3.1420 H       
  42 H42           -4.4444    -4.4411     2.3988 H       
  43 H43           -4.3329    -5.7299    -0.9927 H       
  44 H44           -4.7999    -4.3535     0.0356 H       
  45 H45           -2.7597    -3.7642    -1.1619 H       
  46 H46           -1.9630    -5.2629    -0.6144 H       
  47 H47           -7.0480    -8.7991    -0.4934 H       
  48 H48           -8.3493    -8.6761     1.6192 H       
  49 H49           -7.5054    -7.2343     3.4580 H       
  50 H50            2.0288     5.3974     0.8020 H       
  51 H51           -3.7059     2.8331    -0.1319 H       
  52 H52           -6.1605     2.8769     0.0229 H       
  53 H53           -7.4098     0.7954     0.4205 H       
  54 H54           -6.2137    -1.3405     0.6640 H       
  55 H55           -3.7599    -1.4063     0.5051 H       
@<TRIPOS>BOND
   1    1    2 2
   2    1    6 1
   3    1    5 1
   4    2    3 1
   5    3    4 1
   6    3   11 1
   7    4    5 2
   8    4   26 1
   9    6    7 ar
  10    6    8 ar
  11    7   27 ar
  12    7   34 1
  13    8    9 ar
  14    8   35 1
  15    9   10 ar
  16    9   36 1
  17   10   27 ar
  18   10   33 1
  19   11   12 1
  20   11   37 1
  21   11   38 1
  22   12   13 am
  23   12   14 2
  24   13   15 1
  25   13   19 1
  26   15   16 1
  27   15   39 1
  28   15   40 1
  29   16   17 1
  30   16   41 1
  31   16   42 1
  32   17   18 1
  33   17   20 1
  34   18   19 1
  35   18   43 1
  36   18   44 1
  37   19   45 1
  38   19   46 1
  39   20   21 ar
  40   20   25 ar
  41   21   22 ar
  42   22   23 ar
  43   22   47 1
  44   23   24 ar
  45   23   48 1
  46   24   25 ar
  47   24   49 1
  48   26   28 ar
  49   26   32 ar
  50   27   50 1
  51   28   29 ar
  52   28   51 1
  53   29   30 ar
  54   29   52 1
  55   30   31 ar
  56   30   53 1
  57   31   32 ar
  58   31   54 1
  59   32   55 1

#	End of record

