#	Name: ASD02588008
#	Creating user name:	WinNT
#	Creation time:	15. 06. 2019 20:25

#	Modifying user name:	WinNT
#	Modification time:	15. 06. 2019 20:25

#	Program:	/corina/corina34_cracker 3.40 0067  02.08.2006

@<TRIPOS>MOLECULE
ASD02588008
  32   34    0    0    0
SMALL
NO_CHARGES


@<TRIPOS>ATOM
   1 C1            -0.0165     1.3678     0.0096 C.2     
   2 N2             0.0021    -0.0041     0.0020 N.pl3   
   3 N3            -1.2203    -0.6903     0.0096 N.2     
   4 C4            -2.3454    -0.0233     0.0235 C.2     
   5 N5            -2.3783     1.3070     0.0306 N.2     
   6 C6            -1.2694     2.0262     0.0303 C.2     
   7 C7             1.2977     1.8215    -0.0005 C.2     
   8 C8             2.1222     0.7091    -0.0144 C.2     
   9 C9             1.3045    -0.4200    -0.0126 C.2     
  10 N10           -1.3326     3.4054     0.0377 N.pl3   
  11 Cl11           1.8112     3.4798     0.0029 Cl      
  12 Cl12           3.8580     0.7187    -0.0314 Cl      
  13 Cl13          -3.8430    -0.9012     0.0326 Cl      
  14 C14            1.7468    -1.7664    -0.0237 C.2     
  15 O15            2.9378    -2.0154    -0.0364 O.2     
  16 O16            0.8471    -2.7723    -0.0200 O.3     
  17 C17            1.3635    -4.1047    -0.0317 C.3     
  18 C18            0.2203    -5.0866    -0.0256 C.ar    
  19 C19           -0.3156    -5.5309    -1.2199 C.ar    
  20 C20           -1.3642    -6.4316    -1.2143 C.ar    
  21 C21           -1.8767    -6.8883    -0.0144 C.ar    
  22 C22           -1.3402    -6.4446     1.1799 C.ar    
  23 C23           -0.2887    -5.5473     1.1742 C.ar    
  24 H24           -2.1939     3.8515     0.0431 H       
  25 H25           -0.5156     3.9283     0.0374 H       
  26 H26            1.9653    -4.2533    -0.9283 H       
  27 H27            1.9825    -4.2622     0.8516 H       
  28 H28            0.0848    -5.1742    -2.1573 H       
  29 H29           -1.7833    -6.7782    -2.1473 H       
  30 H30           -2.6965    -7.5914    -0.0100 H       
  31 H31           -1.7408    -6.8011     2.1173 H       
  32 H32            0.1329    -5.2035     2.1072 H       
@<TRIPOS>BOND
   1    1    2 1
   2    1    7 2
   3    1    6 1
   4    2    3 1
   5    2    9 1
   6    3    4 2
   7    4    5 1
   8    4   13 1
   9    5    6 2
  10    6   10 1
  11    7    8 1
  12    7   11 1
  13    8    9 2
  14    8   12 1
  15    9   14 1
  16   10   24 1
  17   10   25 1
  18   14   15 2
  19   14   16 1
  20   16   17 1
  21   17   18 1
  22   17   26 1
  23   17   27 1
  24   18   19 ar
  25   18   23 ar
  26   19   20 ar
  27   19   28 1
  28   20   21 ar
  29   20   29 1
  30   21   22 ar
  31   21   30 1
  32   22   23 ar
  33   22   31 1
  34   23   32 1

#	End of record

