#	Name: ASD01885611
#	Creating user name:	WinNT
#	Creation time:	15. 06. 2019 19:49

#	Modifying user name:	WinNT
#	Modification time:	15. 06. 2019 19:49

#	Program:	/corina/corina34_cracker 3.40 0067  02.08.2006

@<TRIPOS>MOLECULE
ASD01885611
  54   58    0    0    0
SMALL
NO_CHARGES


@<TRIPOS>ATOM
   1 C1            -0.0168     1.3905     0.0097 C.ar    
   2 C2             0.0021    -0.0041     0.0020 C.ar    
   3 C3            -1.1828    -0.7093     0.0100 C.ar    
   4 C4            -2.3960    -0.0324     0.0253 C.ar    
   5 C5            -2.4189     1.3600     0.0330 C.ar    
   6 C6            -1.2360     2.0696     0.0308 C.ar    
   7 C7             1.2551     2.1496     0.0016 C.2     
   8 N8            -3.5945    -0.7494     0.0324 N.pl3   
   9 C9             2.1445     2.0665     1.1007 C.2     
  10 C10            3.2996     2.7576     1.0915 C.2     
  11 N11            3.6342     3.5467     0.0288 N.pl3   
  12 C12            2.7992     3.6542    -1.0572 C.2     
  13 C13            1.5884     2.9417    -1.0813 C.2     
  14 C14            4.7078     4.3373    -0.2484 C.2     
  15 N15            4.5095     4.8728    -1.4251 N.2     
  16 N16            3.3864     4.4772    -1.9126 N.2     
  17 C17            5.9058     4.5561     0.6393 C.3     
  18 C18            6.9757     3.5103     0.3191 C.3     
  19 C19           -3.5718    -2.2142     0.0238 C.3     
  20 C20            8.3221     3.6349     1.0350 C.3     
  21 C21            7.3489     2.5202     1.4242 C.3     
  22 C22           -4.9845    -2.7386     0.0341 C.ar    
  23 C23           -5.6516    -2.9753    -1.1527 C.ar    
  24 N24           -6.8880    -3.4342    -1.1517 N.ar    
  25 C25           -7.5338    -3.6846    -0.0297 C.ar    
  26 C26           -6.9305    -3.4725     1.1958 C.ar    
  27 C27           -5.6295    -2.9952     1.2346 C.ar    
  28 C28           -8.9460    -4.2077    -0.0840 C.3     
  29 F29           -3.5998     2.0160     0.0478 F       
  30 C30            0.6615     3.0487    -2.2647 C.3     
  31 F31           -0.1611     4.1701    -2.1129 F       
  32 F32            1.4145     3.1779    -3.4366 F       
  33 F33           -0.1294     1.8974    -2.3431 F       
  34 H34            0.9445    -0.5314    -0.0105 H       
  35 H35           -1.1678    -1.7892     0.0041 H       
  36 H36           -1.2532     3.1495     0.0368 H       
  37 H37           -4.4419    -0.2776     0.0431 H       
  38 H38            1.8949     1.4468     1.9493 H       
  39 H39            3.9699     2.6872     1.9355 H       
  40 H40            6.3094     5.5537     0.4656 H       
  41 H41            5.6066     4.4619     1.6832 H       
  42 H42            6.9837     3.1452    -0.7079 H       
  43 H43           -3.0607    -2.5644    -0.8730 H       
  44 H44           -3.0440    -2.5746     0.9069 H       
  45 H45            9.2158     3.3514     0.4792 H       
  46 H46            8.4457     4.4619     1.7342 H       
  47 H47            6.8323     2.6140     2.3794 H       
  48 H48            7.6024     1.5034     1.1244 H       
  49 H49           -5.1548    -2.7819    -2.0919 H       
  50 H50           -7.4647    -3.6791     2.1114 H       
  51 H51           -5.1328    -2.8201     2.1775 H       
  52 H52           -8.9293    -5.2973    -0.1065 H       
  53 H53           -9.4924    -3.8708     0.7970 H       
  54 H54           -9.4379    -3.8332    -0.9817 H       
@<TRIPOS>BOND
   1    1    2 ar
   2    1    7 1
   3    1    6 ar
   4    2    3 ar
   5    2   34 1
   6    3    4 ar
   7    3   35 1
   8    4    5 ar
   9    4    8 1
  10    5    6 ar
  11    5   29 1
  12    6   36 1
  13    7    9 1
  14    7   13 2
  15    8   19 1
  16    8   37 1
  17    9   10 2
  18    9   38 1
  19   10   11 1
  20   10   39 1
  21   11   12 1
  22   11   14 1
  23   12   13 1
  24   12   16 2
  25   13   30 1
  26   14   15 2
  27   14   17 1
  28   15   16 1
  29   17   18 1
  30   17   40 1
  31   17   41 1
  32   18   20 1
  33   18   21 1
  34   18   42 1
  35   19   22 1
  36   19   43 1
  37   19   44 1
  38   20   21 1
  39   20   45 1
  40   20   46 1
  41   21   47 1
  42   21   48 1
  43   22   23 ar
  44   22   27 ar
  45   23   24 ar
  46   23   49 1
  47   24   25 ar
  48   25   26 ar
  49   25   28 1
  50   26   27 ar
  51   26   50 1
  52   27   51 1
  53   28   52 1
  54   28   53 1
  55   28   54 1
  56   30   31 1
  57   30   32 1
  58   30   33 1

#	End of record

