#	Name: ASD02038788
#	Creating user name:	WinNT
#	Creation time:	15. 06. 2019 20:17

#	Modifying user name:	WinNT
#	Modification time:	15. 06. 2019 20:17

#	Program:	/corina/corina34_cracker 3.40 0067  02.08.2006

@<TRIPOS>MOLECULE
ASD02038788
  43   45    0    0    0
SMALL
NO_CHARGES


@<TRIPOS>ATOM
   1 C1             1.3107    -0.8012    -0.4487 C.2     
   2 C2             0.0620    -0.0234    -0.2990 C.2     
   3 N3            -1.1172    -0.6616    -0.1621 N.am    
   4 C4            -1.1749    -2.1224    -0.2573 C.3     
   5 C5            -1.1401    -2.7178     1.1266 C.ar    
   6 C6            -2.3412     0.1054     0.0820 C.3     
   7 O7             0.0990     1.1916    -0.2993 O.2     
   8 N8             2.5494    -0.2926    -0.5795 N.2     
   9 C9             3.3749    -1.3026    -0.6849 C.2     
  10 N10            2.6468    -2.4326    -0.6192 N.pl3   
  11 N11            1.4075    -2.1125    -0.4719 N.2     
  12 C12           -2.3188    -3.0744     1.7543 C.ar    
  13 C13           -2.1710     0.9536     1.3461 C.3     
  14 C14           -3.4236     1.8100     1.5491 C.3     
  15 O15           -3.6347     2.6242     0.3938 O.3     
  16 C16           -3.8473     1.8846    -0.8103 C.3     
  17 C17           -2.6117     1.0311    -1.1081 C.3     
  18 C18            0.0709    -2.9118     1.7641 C.ar    
  19 C19            0.1070    -3.4579     3.0342 C.ar    
  20 C20           -1.0695    -3.8117     3.6691 C.ar    
  21 C21           -2.2872    -3.6221     3.0273 C.ar    
  22 F22           -1.0346    -4.3457     4.9097 F       
  23 O23           -3.4458    -3.9684     3.6487 O.3     
  24 C24           -4.6599    -3.7451     2.9289 C.3     
  25 F25           -4.6378    -4.4794     1.7383 F       
  26 F26           -5.7466    -4.1543     3.7091 F       
  27 F27           -4.7837    -2.3831     2.6345 F       
  28 H28           -2.0975    -2.4177    -0.7569 H       
  29 H29           -0.3203    -2.4832    -0.8297 H       
  30 H30           -3.1802    -0.5782     0.2118 H       
  31 H31            4.4466    -1.2406    -0.8034 H       
  32 H32            2.9966    -3.3359    -0.6703 H       
  33 H33           -3.2640    -2.9260     1.2533 H       
  34 H34           -2.0330     0.3000     2.2074 H       
  35 H35           -1.3010     1.6010     1.2359 H       
  36 H36           -4.2868     1.1617     1.6996 H       
  37 H37           -3.2905     2.4472     2.4234 H       
  38 H38           -4.7160     1.2372    -0.6907 H       
  39 H39           -4.0194     2.5754    -1.6356 H       
  40 H40           -1.7506     1.6801    -1.2678 H       
  41 H41           -2.7890     0.4330    -2.0019 H       
  42 H42            0.9906    -2.6366     1.2694 H       
  43 H43            1.0545    -3.6085     3.5303 H       
@<TRIPOS>BOND
   1    1    2 1
   2    1    8 1
   3    1   11 2
   4    2    3 am
   5    2    7 2
   6    3    4 1
   7    3    6 1
   8    4    5 1
   9    4   28 1
  10    4   29 1
  11    5   12 ar
  12    5   18 ar
  13    6   13 1
  14    6   17 1
  15    6   30 1
  16    8    9 2
  17    9   10 1
  18    9   31 1
  19   10   11 1
  20   10   32 1
  21   12   21 ar
  22   12   33 1
  23   13   14 1
  24   13   34 1
  25   13   35 1
  26   14   15 1
  27   14   36 1
  28   14   37 1
  29   15   16 1
  30   16   17 1
  31   16   38 1
  32   16   39 1
  33   17   40 1
  34   17   41 1
  35   18   19 ar
  36   18   42 1
  37   19   20 ar
  38   19   43 1
  39   20   21 ar
  40   20   22 1
  41   21   23 1
  42   23   24 1
  43   24   25 1
  44   24   26 1
  45   24   27 1

#	End of record

