#	Name: ASD01000009
#	Creating user name:	WinNT
#	Creation time:	15. 06. 2019 18:54

#	Modifying user name:	WinNT
#	Modification time:	15. 06. 2019 18:54

#	Program:	/corina/corina34_cracker 3.40 0067  02.08.2006

@<TRIPOS>MOLECULE
ASD01000009
  39   41    0    0    0
SMALL
NO_CHARGES


@<TRIPOS>ATOM
   1 C1            -0.5331     1.9711    -1.1304 C.ar    
   2 C2            -0.3459     0.6536    -0.7390 C.ar    
   3 C3            -1.4383    -0.1686    -0.5396 C.ar    
   4 C4            -2.7171     0.3209    -0.7299 C.ar    
   5 C5            -2.9064     1.6339    -1.1206 C.ar    
   6 C6            -1.8179     2.4616    -1.3151 C.ar    
   7 C7            -1.2356    -1.6002    -0.1149 C.3     
   8 N8            -2.1729    -1.8846     0.9848 N.am    
   9 C9            -1.3407    -2.4731    -1.3491 C.2     
  10 C10           -2.2815    -3.4453    -1.3537 C.2     
  11 N11           -3.1060    -3.6316    -0.2834 N.am    
  12 C12           -3.0564    -2.8905     0.8306 C.2     
  13 C13           -0.4850    -2.2779    -2.4582 C.2     
  14 C14            0.9683    -2.5226    -2.3236 C.ar    
  15 O15           -0.9442    -1.9085    -3.5239 O.2     
  16 S16           -4.1514    -3.2323     2.1014 S.2     
  17 O17            0.5397     2.7817    -1.3271 O.3     
  18 C18            1.8299    -2.2243    -3.3801 C.ar    
  19 C19            1.4837    -3.0472    -1.1375 C.ar    
  20 C20            2.8394    -3.2730    -1.0185 C.ar    
  21 C21            3.6877    -2.9800    -2.0717 C.ar    
  22 C22            3.1837    -2.4547    -3.2483 C.ar    
  23 C23           -4.1025    -4.7030    -0.3568 C.3     
  24 H24            0.6530     0.2706    -0.5905 H       
  25 H25           -3.5697    -0.3233    -0.5736 H       
  26 H26           -3.9064     2.0137    -1.2693 H       
  27 H27           -1.9662     3.4870    -1.6198 H       
  28 H28           -0.2219    -1.6915     0.2754 H       
  29 H29           -2.1545    -1.3607     1.8008 H       
  30 H30           -2.3816    -4.0838    -2.2190 H       
  31 H31            0.8817     2.7690    -2.2315 H       
  32 H32            1.4377    -1.8142    -4.2991 H       
  33 H33            0.8227    -3.2757    -0.3145 H       
  34 H34            3.2396    -3.6790    -0.1012 H       
  35 H35            4.7483    -3.1583    -1.9733 H       
  36 H36            3.8510    -2.2282    -4.0667 H       
  37 H37           -3.6727    -5.6262     0.0319 H       
  38 H38           -4.9743    -4.4297     0.2375 H       
  39 H39           -4.4018    -4.8503    -1.3945 H       
@<TRIPOS>BOND
   1    1    2 ar
   2    1   17 1
   3    1    6 ar
   4    2    3 ar
   5    2   24 1
   6    3    4 ar
   7    3    7 1
   8    4    5 ar
   9    4   25 1
  10    5    6 ar
  11    5   26 1
  12    6   27 1
  13    7    8 1
  14    7    9 1
  15    7   28 1
  16    8   12 am
  17    8   29 1
  18    9   10 2
  19    9   13 1
  20   10   11 1
  21   10   30 1
  22   11   12 am
  23   11   23 1
  24   12   16 2
  25   13   14 1
  26   13   15 2
  27   14   18 ar
  28   14   19 ar
  29   17   31 1
  30   18   22 ar
  31   18   32 1
  32   19   20 ar
  33   19   33 1
  34   20   21 ar
  35   20   34 1
  36   21   22 ar
  37   21   35 1
  38   22   36 1
  39   23   37 1
  40   23   38 1
  41   23   39 1

#	End of record

