#	Name: ASD00170327
#	Creating user name:	WinNT
#	Creation time:	15. 06. 2019 18:31

#	Modifying user name:	WinNT
#	Modification time:	15. 06. 2019 18:31

#	Program:	/corina/corina34_cracker 3.40 0067  02.08.2006

@<TRIPOS>MOLECULE
ASD00170327
  36   38    0    0    0
SMALL
NO_CHARGES


@<TRIPOS>ATOM
   1 C1            -0.0185     1.5119     0.0104 C.3     
   2 C2             0.0021    -0.0041     0.0020 C.2     
   3 C3             1.0770    -0.7297    -0.3285 C.2     
   4 C4             2.3993    -0.0974    -0.7343 C.3     
   5 C5             2.1392     1.3716    -1.0831 C.3     
   6 N6             1.3686     1.9997    -0.0003 N.3     
   7 C7             0.8280    -2.1568    -0.2534 C.2     
   8 C8            -0.4494    -2.4621     0.1378 C.2     
   9 S9            -1.3495    -1.0433     0.4150 S.3     
  10 C10            1.8380    -3.1678    -0.5642 C.2     
  11 O11            2.5673    -3.5892     0.3138 O.2     
  12 O12            1.9612    -3.6331    -1.8245 O.3     
  13 C13            1.4109     3.4643    -0.1051 C.3     
  14 C14            0.8259     4.0743     1.1426 C.ar    
  15 C15            1.6424     4.3590     2.2211 C.ar    
  16 C16            1.1058     4.9185     3.3656 C.ar    
  17 C17           -0.2473     5.1937     3.4315 C.ar    
  18 C18           -1.0637     4.9098     2.3527 C.ar    
  19 C19           -0.5263     4.3543     1.2065 C.ar    
  20 N20           -0.9399    -3.7448     0.2865 N.pl3   
  21 H21           -0.5411     1.8757    -0.8743 H       
  22 H22           -0.5241     1.8661     0.9087 H       
  23 H23            3.1060    -0.1593     0.0933 H       
  24 H24            2.8036    -0.6159    -1.6036 H       
  25 H25            3.0900     1.8912    -1.2017 H       
  26 H26            1.5738     1.4300    -2.0132 H       
  27 H27            2.6550    -4.2980    -1.9323 H       
  28 H28            2.4446     3.7908    -0.2189 H       
  29 H29            0.8316     3.7834    -0.9715 H       
  30 H30            2.6996     4.1440     2.1696 H       
  31 H31            1.7436     5.1403     4.2084 H       
  32 H32           -0.6666     5.6302     4.3259 H       
  33 H33           -2.1208     5.1245     2.4043 H       
  34 H34           -1.1635     4.1359     0.3623 H       
  35 H35           -0.3664    -4.5069     0.1097 H       
  36 H36           -1.8578    -3.8836     0.5677 H       
@<TRIPOS>BOND
   1    1    2 1
   2    1    6 1
   3    1   21 1
   4    1   22 1
   5    2    3 2
   6    2    9 1
   7    3    4 1
   8    3    7 1
   9    4    5 1
  10    4   23 1
  11    4   24 1
  12    5    6 1
  13    5   25 1
  14    5   26 1
  15    6   13 1
  16    7    8 2
  17    7   10 1
  18    8    9 1
  19    8   20 1
  20   10   11 2
  21   10   12 1
  22   12   27 1
  23   13   14 1
  24   13   28 1
  25   13   29 1
  26   14   15 ar
  27   14   19 ar
  28   15   16 ar
  29   15   30 1
  30   16   17 ar
  31   16   31 1
  32   17   18 ar
  33   17   32 1
  34   18   19 ar
  35   18   33 1
  36   19   34 1
  37   20   35 1
  38   20   36 1

#	End of record

