#	Name: ASD01813081
#	Creating user name:	WinNT
#	Creation time:	15. 06. 2019 19:29

#	Modifying user name:	WinNT
#	Modification time:	15. 06. 2019 19:29

#	Program:	/corina/corina34_cracker 3.40 0067  02.08.2006

@<TRIPOS>MOLECULE
ASD01813081
  61   66    0    0    0
SMALL
NO_CHARGES


@<TRIPOS>ATOM
   1 C1             0.0307     1.3999    -0.4440 C.ar    
   2 C2             0.0793     0.0432    -0.6948 C.ar    
   3 C3             1.2983    -0.6164    -0.7410 C.ar    
   4 C4             2.4661     0.0782    -0.5376 C.ar    
   5 C5             2.4357     1.4527    -0.2828 C.ar    
   6 C6             1.2013     2.1147    -0.2367 C.ar    
   7 C7             3.9194    -0.3253    -0.5217 C.3     
   8 N8             4.6810     0.8982    -0.2454 N.am    
   9 C9             3.8202     1.9215    -0.1083 C.2     
  10 C10            6.1391     0.9893    -0.1364 C.3     
  11 C11            6.7271     1.2806    -1.4930 C.ar    
  12 O12            1.1515     3.4479     0.0091 O.3     
  13 O13            4.1397     3.0709     0.1267 O.2     
  14 C14            6.9064     2.5905    -1.8996 C.ar    
  15 C15            7.4449     2.8628    -3.1409 C.ar    
  16 C16            7.8079     1.8157    -3.9848 C.ar    
  17 C17            7.6252     0.4984    -3.5704 C.ar    
  18 C18            7.0907     0.2372    -2.3249 C.ar    
  19 C19            8.7843     1.1786    -6.2433 C.2     
  20 C20            8.3872     2.1027    -5.3215 C.2     
  21 C21            8.6267     3.3784    -5.8683 C.2     
  22 N22            9.1417     3.2196    -7.0587 N.2     
  23 N23            9.2505     1.8478    -7.3170 N.pl3   
  24 C24            9.7800     1.2438    -8.5421 C.3     
  25 C25           -0.1276     4.0779    -0.0868 C.3     
  26 C26           -0.7368     4.1767     1.2873 C.ar    
  27 C27           -1.3948     5.3036     1.7271 C.ar    
  28 C28           -1.5530     6.5349     0.8740 C.3     
  29 C29           -1.2991     6.2061    -0.5958 C.3     
  30 C30            0.0396     5.4661    -0.7012 C.3     
  31 C31           -0.6203     3.0767     2.1270 C.ar    
  32 C32           -1.1611     3.1030     3.3961 C.ar    
  33 C33           -1.8247     4.2327     3.8362 C.ar    
  34 C34           -1.9400     5.3273     3.0041 C.ar    
  35 H35           -0.9221     1.9075    -0.4136 H       
  36 H36           -0.8361    -0.5070    -0.8553 H       
  37 H37            1.3298    -1.6781    -0.9369 H       
  38 H38            4.0954    -1.0614     0.2627 H       
  39 H39            4.2055    -0.7339    -1.4908 H       
  40 H40            6.4025     1.7911     0.5535 H       
  41 H41            6.5353     0.0447     0.2361 H       
  42 H42            6.6242     3.4016    -1.2446 H       
  43 H43            7.5842     3.8859    -3.4575 H       
  44 H44            7.9050    -0.3171    -4.2209 H       
  45 H45            6.9524    -0.7838    -2.0010 H       
  46 H46            8.7378     0.1054    -6.1315 H       
  47 H47            8.4203     4.3232    -5.3876 H       
  48 H48            8.9684     1.0957    -9.2544 H       
  49 H49           10.5299     1.9039    -8.9779 H       
  50 H50           10.2358     0.2823    -8.3056 H       
  51 H51           -0.7764     3.4785    -0.7254 H       
  52 H52           -2.5658     6.9221     0.9860 H       
  53 H53           -0.8410     7.2927     1.2010 H       
  54 H54           -2.1004     5.5710    -0.9736 H       
  55 H55           -1.2559     7.1278    -1.1760 H       
  56 H56            0.8075     6.0177    -0.1588 H       
  57 H57            0.3255     5.3719    -1.7488 H       
  58 H58           -0.1025     2.1933     1.7836 H       
  59 H59           -1.0664     2.2435     4.0433 H       
  60 H60           -2.2516     4.2586     4.8279 H       
  61 H61           -2.4584     6.2098     3.3488 H       
@<TRIPOS>BOND
   1    1    2 ar
   2    1    6 ar
   3    1   35 1
   4    2    3 ar
   5    2   36 1
   6    3    4 ar
   7    3   37 1
   8    4    7 1
   9    4    5 ar
  10    5    6 ar
  11    5    9 1
  12    6   12 1
  13    7    8 1
  14    7   38 1
  15    7   39 1
  16    8    9 am
  17    8   10 1
  18    9   13 2
  19   10   11 1
  20   10   40 1
  21   10   41 1
  22   11   14 ar
  23   11   18 ar
  24   12   25 1
  25   14   15 ar
  26   14   42 1
  27   15   16 ar
  28   15   43 1
  29   16   17 ar
  30   16   20 1
  31   17   18 ar
  32   17   44 1
  33   18   45 1
  34   19   20 2
  35   19   23 1
  36   19   46 1
  37   20   21 1
  38   21   22 2
  39   21   47 1
  40   22   23 1
  41   23   24 1
  42   24   48 1
  43   24   49 1
  44   24   50 1
  45   25   26 1
  46   25   30 1
  47   25   51 1
  48   26   31 ar
  49   26   27 ar
  50   27   28 1
  51   27   34 ar
  52   28   29 1
  53   28   52 1
  54   28   53 1
  55   29   30 1
  56   29   54 1
  57   29   55 1
  58   30   56 1
  59   30   57 1
  60   31   32 ar
  61   31   58 1
  62   32   33 ar
  63   32   59 1
  64   33   34 ar
  65   33   60 1
  66   34   61 1

#	End of record

