#	Name: ASD01913819
#	Creating user name:	WinNT
#	Creation time:	15. 06. 2019 20:02

#	Modifying user name:	WinNT
#	Modification time:	15. 06. 2019 20:02

#	Program:	/corina/corina34_cracker 3.40 0067  02.08.2006

@<TRIPOS>MOLECULE
ASD01913819
  49   52    0    0    0
SMALL
NO_CHARGES


@<TRIPOS>ATOM
   1 C1            -0.0230     1.4277    -0.0323 C.ar    
   2 C2            -0.0020    -0.0041    -0.0276 C.1     
   3 C3             0.0153    -1.1780    -0.0238 C.1     
   4 C4             0.0363    -2.6098    -0.0191 C.ar    
   5 C5            -1.1325    -3.3383     0.2483 C.ar    
   6 C6             0.1560    -5.3344    -0.0280 C.ar    
   7 N7             1.2411    -4.6189    -0.2830 N.ar    
   8 C8             1.2193    -3.3023    -0.2863 C.ar    
   9 C9            -1.0617    -4.7169     0.2415 C.ar    
  10 C10            1.1454     2.1462    -0.2996 C.ar    
  11 C11            1.1174     3.5251    -0.3028 C.ar    
  12 C12           -0.0638     4.1972    -0.0418 C.ar    
  13 C13           -1.2247     3.4924     0.2241 C.ar    
  14 C14           -1.2133     2.1133     0.2247 C.ar    
  15 N15            0.2331    -6.7250    -0.0369 N.am    
  16 C16           -0.8139    -7.5604    -0.0260 C.2     
  17 N17           -0.4747    -8.8562    -0.0383 N.am    
  18 C18            0.9911    -8.9718    -0.0608 C.3     
  19 C19            1.4767    -7.5092    -0.0663 C.3     
  20 C20           -1.4148    -9.9798    -0.0306 C.3     
  21 O21           -1.9675    -7.1773    -0.0063 O.2     
  22 C22            1.4912    -9.7045     1.1857 C.3     
  23 C23            0.9160   -11.1312     1.2248 C.3     
  24 C24            2.1215   -12.0934     1.1947 C.3     
  25 C25            3.2967   -11.2471     1.7438 C.3     
  26 C26            3.0261    -9.8495     1.1332 C.3     
  27 H27           -2.0644    -2.8331     0.4547 H       
  28 H28            2.1247    -2.7528    -0.4980 H       
  29 H29           -1.9416    -5.3097     0.4435 H       
  30 H30            2.0681     1.6230    -0.5027 H       
  31 H31            2.0196     4.0817    -0.5092 H       
  32 H32           -0.0797     5.2770    -0.0454 H       
  33 H33           -2.1427     4.0237     0.4276 H       
  34 H34           -2.1201     1.5645     0.4321 H       
  35 H35            1.3207    -9.4838    -0.9649 H       
  36 H36            2.0471    -7.2989    -0.9709 H       
  37 H37            2.0744    -7.3013     0.8212 H       
  38 H38           -2.4360    -9.5990    -0.0137 H       
  39 H39           -1.2669   -10.5834    -0.9261 H       
  40 H40           -1.2409   -10.5929     0.8537 H       
  41 H41            1.1974    -9.1588     2.0823 H       
  42 H42            0.3438   -11.2781     2.1408 H       
  43 H43            0.2805   -11.3015     0.3557 H       
  44 H44            1.9384   -12.9544     1.8375 H       
  45 H45            2.3274   -12.4151     0.1738 H       
  46 H46            3.2670   -11.2053     2.8326 H       
  47 H47            4.2519   -11.6417     1.3972 H       
  48 H48            3.3782    -9.8089     0.1024 H       
  49 H49            3.5033    -9.0731     1.7312 H       
@<TRIPOS>BOND
   1    1    2 1
   2    1   10 ar
   3    1   14 ar
   4    2    3 3
   5    3    4 1
   6    4    5 ar
   7    4    8 ar
   8    5    9 ar
   9    5   27 1
  10    6    7 ar
  11    6   15 1
  12    6    9 ar
  13    7    8 ar
  14    8   28 1
  15    9   29 1
  16   10   11 ar
  17   10   30 1
  18   11   12 ar
  19   11   31 1
  20   12   13 ar
  21   12   32 1
  22   13   14 ar
  23   13   33 1
  24   14   34 1
  25   15   16 am
  26   15   19 1
  27   16   17 am
  28   16   21 2
  29   17   18 1
  30   17   20 1
  31   18   19 1
  32   18   22 1
  33   18   35 1
  34   19   36 1
  35   19   37 1
  36   20   38 1
  37   20   39 1
  38   20   40 1
  39   22   23 1
  40   22   26 1
  41   22   41 1
  42   23   24 1
  43   23   42 1
  44   23   43 1
  45   24   25 1
  46   24   44 1
  47   24   45 1
  48   25   26 1
  49   25   46 1
  50   25   47 1
  51   26   48 1
  52   26   49 1

#	End of record

