#	Name: ASD09116392
#	Creating user name:	WinNT
#	Creation time:	15. 06. 2019 21:21

#	Modifying user name:	WinNT
#	Modification time:	15. 06. 2019 21:21

#	Program:	/corina/corina34_cracker 3.40 0067  02.08.2006

@<TRIPOS>MOLECULE
ASD09116392
  62   68    0    0    0
SMALL
NO_CHARGES


@<TRIPOS>ATOM
   1 N1            -0.0291     1.4172     0.1396 N.2     
   2 N2            -0.0198     0.0178     0.2550 N.pl3   
   3 C3             1.2228     1.8072     0.1108 C.2     
   4 N4             2.0163     0.7334     0.2013 N.2     
   5 C5             1.2812    -0.3544     0.2890 C.2     
   6 N6             1.7540    -1.6485     0.3973 N.pl3   
   7 C7            -1.1324    -0.8233     0.3217 C.ar    
   8 N8             1.6572     3.1284     0.0026 N.pl3   
   9 C9             3.0213     3.4264     0.0969 C.ar    
  10 C10            3.5364     4.5183    -0.5789 C.ar    
  11 C11            3.8541     2.6259     0.8752 C.ar    
  12 C12            5.1994     2.9096     0.9762 C.ar    
  13 C13            5.7306     3.9973     0.3001 C.ar    
  14 C14            4.8969     4.8115    -0.4820 C.ar    
  15 N15           -1.0316    -2.0876    -0.0596 N.ar    
  16 N16           -2.0260    -2.9010    -0.0263 N.ar    
  17 C17           -3.2227    -2.5228     0.3935 C.ar    
  18 C18           -3.4176    -1.2042     0.8349 C.ar    
  19 C19           -2.3521    -0.3335     0.7965 C.ar    
  20 C20           -4.3780    -3.4475     0.3875 C.ar    
  21 C21           -5.5885    -3.0083    -0.1695 C.ar    
  22 O22           -5.6667    -1.7573    -0.6889 O.3     
  23 C23           -5.7607    -0.6613     0.2105 C.3     
  24 C24           -4.7650    -0.7906     1.3602 C.3     
  25 C25           -4.2831    -4.7275     0.9189 C.ar    
  26 C26           -5.3841    -5.5619     0.8971 C.ar    
  27 C27           -6.5778    -5.1270     0.3491 C.ar    
  28 C28           -6.6824    -3.8548    -0.1828 C.ar    
  29 O29            6.9725     4.5228     0.2004 O.3     
  30 C30            6.9091     5.5967    -0.6020 C.2     
  31 N31            5.6904     5.7813    -1.0126 N.2     
  32 C32            8.0829     6.4673    -0.9699 C.3     
  33 N33            8.2114     7.5553     0.0089 N.3     
  34 C34            9.4790     8.2853    -0.1760 C.3     
  35 C35            7.0932     8.5145    -0.1154 C.3     
  36 C36            7.7123     9.8910     0.2333 C.3     
  37 C37            9.1230     9.7699    -0.4009 C.3     
  38 H38            2.7093    -1.8161     0.4136 H       
  39 H39            1.1306    -2.3892     0.4570 H       
  40 H40            1.0138     3.8405    -0.1379 H       
  41 H41            2.8886     5.1404    -1.1787 H       
  42 H42            3.4433     1.7779     1.4031 H       
  43 H43            5.8392     2.2851     1.5821 H       
  44 H44           -2.4570     0.6933     1.1145 H       
  45 H45           -5.5596     0.2625    -0.3321 H       
  46 H46           -6.7710    -0.6206     0.6175 H       
  47 H47           -5.1233    -1.5402     2.0658 H       
  48 H48           -4.6752     0.1686     1.8700 H       
  49 H49           -3.3523    -5.0691     1.3470 H       
  50 H50           -5.3126    -6.5576     1.3093 H       
  51 H51           -7.4336    -5.7856     0.3365 H       
  52 H52           -7.6177    -3.5224    -0.6085 H       
  53 H53            8.9937     5.8686    -0.9692 H       
  54 H54            7.9257     6.8886    -1.9628 H       
  55 H55           10.0988     8.1835     0.7149 H       
  56 H56           10.0083     7.8951    -1.0452 H       
  57 H57            6.7085     8.5189    -1.1352 H       
  58 H58            6.2998     8.2658     0.5894 H       
  59 H59            7.1461    10.7014    -0.2257 H       
  60 H60            7.7799    10.0266     1.3128 H       
  61 H61            9.8331    10.4185     0.1120 H       
  62 H62            9.0879    10.0008    -1.4656 H       
@<TRIPOS>BOND
   1    1    2 1
   2    1    3 2
   3    2    7 1
   4    2    5 1
   5    3    4 1
   6    3    8 1
   7    4    5 2
   8    5    6 1
   9    6   38 1
  10    6   39 1
  11    7   15 ar
  12    7   19 ar
  13    8    9 1
  14    8   40 1
  15    9   10 ar
  16    9   11 ar
  17   10   14 ar
  18   10   41 1
  19   11   12 ar
  20   11   42 1
  21   12   13 ar
  22   12   43 1
  23   13   14 ar
  24   13   29 1
  25   14   31 1
  26   15   16 ar
  27   16   17 ar
  28   17   18 ar
  29   17   20 1
  30   18   19 ar
  31   18   24 1
  32   19   44 1
  33   20   21 ar
  34   20   25 ar
  35   21   22 1
  36   21   28 ar
  37   22   23 1
  38   23   24 1
  39   23   45 1
  40   23   46 1
  41   24   47 1
  42   24   48 1
  43   25   26 ar
  44   25   49 1
  45   26   27 ar
  46   26   50 1
  47   27   28 ar
  48   27   51 1
  49   28   52 1
  50   29   30 1
  51   30   31 2
  52   30   32 1
  53   32   33 1
  54   32   53 1
  55   32   54 1
  56   33   34 1
  57   33   35 1
  58   34   37 1
  59   34   55 1
  60   34   56 1
  61   35   36 1
  62   35   57 1
  63   35   58 1
  64   36   37 1
  65   36   59 1
  66   36   60 1
  67   37   61 1
  68   37   62 1

#	End of record

