#	Name: ASD01913398
#	Creating user name:	WinNT
#	Creation time:	15. 06. 2019 20:01

#	Modifying user name:	WinNT
#	Modification time:	15. 06. 2019 20:01

#	Program:	/corina/corina34_cracker 3.40 0067  02.08.2006

@<TRIPOS>MOLECULE
ASD01913398
  38   40    0    0    0
SMALL
NO_CHARGES


@<TRIPOS>ATOM
   1 C1            -0.0144    -0.9682    -2.2318 C.ar    
   2 C2            -0.4691    -0.1634    -1.1921 C.ar    
   3 C3            -0.3521     1.2147    -1.3061 C.ar    
   4 N4             0.1812     1.7576    -2.3823 N.ar    
   5 C5             0.6217     1.0232    -3.3852 C.ar    
   6 C6             0.5398    -0.3559    -3.3445 C.ar    
   7 C7            -1.1964    -2.0661    -0.0615 C.ar    
   8 C8            -0.0939    -2.9099    -0.0590 C.ar    
   9 C9            -0.2668    -4.2816    -0.0338 C.ar    
  10 C10           -1.5364    -4.8210    -0.0105 C.ar    
  11 C11           -2.6514    -3.9805    -0.0124 C.ar    
  12 C12           -2.4756    -2.5969    -0.0382 C.ar    
  13 C13           -4.0133    -4.5548     0.0120 C.2     
  14 N14           -4.1804    -5.8920     0.0361 N.am    
  15 C15           -5.4573    -6.4325     0.1854 C.ar    
  16 O16           -4.9824    -3.8211     0.0103 O.2     
  17 O17           -1.0204    -0.7187    -0.0810 O.3     
  18 C18           -5.7578    -7.7027    -0.3041 C.ar    
  19 C19           -7.0330    -8.2016    -0.1357 C.ar    
  20 N20           -7.9609    -7.4928     0.4790 N.ar    
  21 C21           -7.7156    -6.2869     0.9561 C.ar    
  22 C22           -6.4649    -5.7188     0.8332 C.ar    
  23 C23           -8.8146    -5.5234     1.6492 C.3     
  24 H24           -0.0874    -2.0441    -2.1712 H       
  25 H25           -0.7019     1.8489    -0.5049 H       
  26 H26            1.0524     1.5060    -4.2500 H       
  27 H27            0.9035    -0.9494    -4.1703 H       
  28 H28            0.9025    -2.4935    -0.0771 H       
  29 H29            0.5948    -4.9329    -0.0327 H       
  30 H30           -1.6679    -5.8928     0.0087 H       
  31 H31           -3.3341    -1.9417    -0.0394 H       
  32 H32           -3.4126    -6.4783    -0.0504 H       
  33 H33           -5.0030    -8.2879    -0.8084 H       
  34 H34           -7.2749    -9.1846    -0.5119 H       
  35 H35           -6.2708    -4.7318     1.2262 H       
  36 H36           -8.7995    -5.7519     2.7148 H       
  37 H37           -8.6611    -4.4540     1.5046 H       
  38 H38           -9.7782    -5.8121     1.2293 H       
@<TRIPOS>BOND
   1    1    2 ar
   2    1    6 ar
   3    1   24 1
   4    2    3 ar
   5    2   17 1
   6    3    4 ar
   7    3   25 1
   8    4    5 ar
   9    5    6 ar
  10    5   26 1
  11    6   27 1
  12    7    8 ar
  13    7   12 ar
  14    7   17 1
  15    8    9 ar
  16    8   28 1
  17    9   10 ar
  18    9   29 1
  19   10   11 ar
  20   10   30 1
  21   11   12 ar
  22   11   13 1
  23   12   31 1
  24   13   14 am
  25   13   16 2
  26   14   15 1
  27   14   32 1
  28   15   18 ar
  29   15   22 ar
  30   18   19 ar
  31   18   33 1
  32   19   20 ar
  33   19   34 1
  34   20   21 ar
  35   21   22 ar
  36   21   23 1
  37   22   35 1
  38   23   36 1
  39   23   37 1
  40   23   38 1

#	End of record

