#	Name: ASD01903026
#	Creating user name:	WinNT
#	Creation time:	15. 06. 2019 19:54

#	Modifying user name:	WinNT
#	Modification time:	15. 06. 2019 19:54

#	Program:	/corina/corina34_cracker 3.40 0067  02.08.2006

@<TRIPOS>MOLECULE
ASD01903026
  34   36    0    0    0
SMALL
NO_CHARGES


@<TRIPOS>ATOM
   1 C1             0.1164     1.4262    -0.1558 C.ar    
   2 C2             0.0782     0.0453    -0.1660 C.ar    
   3 C3             1.2541    -0.6826    -0.0407 C.ar    
   4 C4             2.4668    -0.0239     0.0948 C.ar    
   5 C5             2.5061     1.3568     0.1052 C.ar    
   6 C6             1.3311     2.0858    -0.0200 C.ar    
   7 N7             1.3708     3.4854    -0.0100 N.am    
   8 C8             0.3771     4.1836     0.5744 C.2     
   9 O9            -0.5946     3.6024     1.0192 O.2     
  10 C10            0.4676     5.6498     0.6746 C.2     
  11 O11            1.2163    -2.0420    -0.0503 O.3     
  12 C12            1.2400    -2.6703    -1.2501 C.ar    
  13 N13            1.1552    -3.9904    -1.2893 N.ar    
  14 C14            1.1754    -4.6357    -2.4440 C.ar    
  15 C15            1.2868    -3.9118    -3.6207 C.ar    
  16 C16            1.3734    -2.5307    -3.5424 C.ar    
  17 N17            1.3419    -1.9488    -2.3548 N.ar    
  18 Cl18          -1.4398    -0.7799    -0.3350 Cl      
  19 N19            1.5041     6.3510     0.2078 N.2     
  20 C20            1.4358     7.6254     0.3702 C.2     
  21 S21           -0.0149     8.0519     1.1639 S.3     
  22 C22           -0.4934     6.4128     1.2426 C.2     
  23 C23            2.4896     8.6054    -0.0772 C.3     
  24 H24           -0.7975     1.9927    -0.2577 H       
  25 H25            3.3810    -0.5906     0.1926 H       
  26 H26            3.4508     1.8693     0.2108 H       
  27 H27            2.1135     3.9525    -0.4237 H       
  28 H28            1.1062    -5.7131    -2.4694 H       
  29 H29            1.3060    -4.4128    -4.5772 H       
  30 H30            1.4616    -1.9367    -4.4401 H       
  31 H31           -1.4110     6.0462     1.6786 H       
  32 H32            2.2733     8.9323    -1.0943 H       
  33 H33            2.4901     9.4679     0.5893 H       
  34 H34            3.4675     8.1248    -0.0503 H       
@<TRIPOS>BOND
   1    1    2 ar
   2    1    6 ar
   3    1   24 1
   4    2    3 ar
   5    2   18 1
   6    3    4 ar
   7    3   11 1
   8    4    5 ar
   9    4   25 1
  10    5    6 ar
  11    5   26 1
  12    6    7 1
  13    7    8 am
  14    7   27 1
  15    8    9 2
  16    8   10 1
  17   10   19 1
  18   10   22 2
  19   11   12 1
  20   12   13 ar
  21   12   17 ar
  22   13   14 ar
  23   14   15 ar
  24   14   28 1
  25   15   16 ar
  26   15   29 1
  27   16   17 ar
  28   16   30 1
  29   19   20 2
  30   20   21 1
  31   20   23 1
  32   21   22 1
  33   22   31 1
  34   23   32 1
  35   23   33 1
  36   23   34 1

#	End of record

