#	Name: ASD01910749
#	Creating user name:	WinNT
#	Creation time:	15. 06. 2019 19:56

#	Modifying user name:	WinNT
#	Modification time:	15. 06. 2019 19:56

#	Program:	/corina/corina34_cracker 3.40 0067  02.08.2006

@<TRIPOS>MOLECULE
ASD01910749
  43   45    0    0    0
SMALL
NO_CHARGES


@<TRIPOS>ATOM
   1 C1            -0.3933    -7.0381     3.4357 C.3     
   2 N2             0.6169    -6.1946     2.7829 N.3     
   3 C3             0.2116    -4.7827     2.7955 C.3     
   4 C4             1.3645    -3.9192     2.2727 C.3     
   5 N5             1.7770    -4.4361     0.9590 N.am    
   6 C6             2.0677    -5.8727     0.8365 C.3     
   7 C7             0.8871    -6.6594     1.4158 C.3     
   8 C8             1.8862    -3.6152    -0.1043 C.2     
   9 C9             2.4210    -4.1292    -1.3835 C.ar    
  10 O10            1.5450    -2.4522    -0.0118 O.2     
  11 C11            1.8567    -3.7186    -2.5933 C.ar    
  12 C12            2.3547    -4.1969    -3.7895 C.ar    
  13 C13            3.4126    -5.0833    -3.7991 C.ar    
  14 C14            3.9876    -5.5031    -2.5955 C.ar    
  15 C15            3.4925    -5.0195    -1.3845 C.ar    
  16 C16            5.0849    -6.4231    -2.6064 C.1     
  17 C17            5.9845    -7.1774    -2.6154 C.1     
  18 C18            7.0818    -8.0974    -2.6263 C.ar    
  19 C19            7.6574    -8.5178    -1.4244 C.ar    
  20 C20            8.7137    -9.4045    -1.4428 C.ar    
  21 C21            9.2039    -9.8772    -2.6474 C.ar    
  22 C22            8.6392    -9.4649    -3.8416 C.ar    
  23 C23            7.5784    -8.5834    -3.8386 C.ar    
  24 H24           -1.3424    -6.9423     2.9084 H       
  25 H25           -0.0681    -8.0782     3.4124 H       
  26 H26           -0.5188    -6.7197     4.4705 H       
  27 H27           -0.6615    -4.6492     2.1567 H       
  28 H28           -0.0336    -4.4837     3.8146 H       
  29 H29            1.0316    -2.8862     2.1716 H       
  30 H30            2.2039    -3.9701     2.9662 H       
  31 H31            2.1997    -6.1313    -0.2141 H       
  32 H32            2.9746    -6.1114     1.3920 H       
  33 H33            1.1318    -7.7214     1.4344 H       
  34 H34            0.0046    -6.4997     0.7963 H       
  35 H35            1.0284    -3.0255    -2.5934 H       
  36 H36            1.9139    -3.8761    -4.7218 H       
  37 H37            3.7968    -5.4536    -4.7380 H       
  38 H38            3.9324    -5.3401    -0.4517 H       
  39 H39            7.2764    -8.1492    -0.4836 H       
  40 H40            9.1596    -9.7303    -0.5147 H       
  41 H41           10.0315   -10.5710    -2.6557 H       
  42 H42            9.0274    -9.8374    -4.7780 H       
  43 H43            7.1386    -8.2625    -4.7714 H       
@<TRIPOS>BOND
   1    1    2 1
   2    1   24 1
   3    1   25 1
   4    1   26 1
   5    2    3 1
   6    2    7 1
   7    3    4 1
   8    3   27 1
   9    3   28 1
  10    4    5 1
  11    4   29 1
  12    4   30 1
  13    5    6 1
  14    5    8 am
  15    6    7 1
  16    6   31 1
  17    6   32 1
  18    7   33 1
  19    7   34 1
  20    8    9 1
  21    8   10 2
  22    9   11 ar
  23    9   15 ar
  24   11   12 ar
  25   11   35 1
  26   12   13 ar
  27   12   36 1
  28   13   14 ar
  29   13   37 1
  30   14   15 ar
  31   14   16 1
  32   15   38 1
  33   16   17 3
  34   17   18 1
  35   18   19 ar
  36   18   23 ar
  37   19   20 ar
  38   19   39 1
  39   20   21 ar
  40   20   40 1
  41   21   22 ar
  42   21   41 1
  43   22   23 ar
  44   22   42 1
  45   23   43 1

#	End of record

