#	Name: ASD01900426
#	Creating user name:	WinNT
#	Creation time:	15. 06. 2019 19:51

#	Modifying user name:	WinNT
#	Modification time:	15. 06. 2019 19:51

#	Program:	/corina/corina34_cracker 3.40 0067  02.08.2006

@<TRIPOS>MOLECULE
ASD01900426
  29   31    0    0    0
SMALL
NO_CHARGES


@<TRIPOS>ATOM
   1 C1            -0.7003     1.1875     1.0250 C.ar    
   2 C2            -0.2173    -0.0701     0.4350 C.ar    
   3 C3             0.6645    -0.8699     1.1967 C.ar    
   4 C4             1.0190    -0.4321     2.4362 C.ar    
   5 C5             0.5227     0.7732     2.9357 C.ar    
   6 N6            -0.2937     1.5337     2.2532 N.ar    
   7 N7            -1.5722     0.9480    -0.9927 N.pl3   
   8 N8            -0.7617    -0.1694    -0.7632 N.2     
   9 C9            -1.5357     1.7668     0.0724 C.2     
  10 N10           -2.2153     2.9698     0.2033 N.pl3   
  11 C11           -2.3414     1.1922    -2.2153 C.3     
  12 C12           -1.5727     4.1727    -0.1042 C.ar    
  13 C13           -2.2877     5.3638    -0.1015 C.ar    
  14 C14           -1.6503     6.5514    -0.4059 C.ar    
  15 C15           -0.2988     6.5542    -0.7140 C.ar    
  16 C16            0.4147     5.3680    -0.7175 C.ar    
  17 C17           -0.2172     4.1793    -0.4073 C.ar    
  18 F18            0.3227     7.7161    -1.0118 F       
  19 Cl19          -2.5425     8.0406    -0.4029 Cl      
  20 H20            1.0461    -1.8021     0.8068 H       
  21 H21            1.6912    -1.0240     3.0398 H       
  22 H22            0.8245     1.0900     3.9232 H       
  23 H23           -3.1361     2.9760     0.5082 H       
  24 H24           -3.3624     0.8356    -2.0795 H       
  25 H25           -2.3552     2.2611    -2.4285 H       
  26 H26           -1.8790     0.6616    -3.0476 H       
  27 H27           -3.3409     5.3615     0.1379 H       
  28 H28            1.4675     5.3725    -0.9582 H       
  29 H29            0.3413     3.2550    -0.4056 H       
@<TRIPOS>BOND
   1    1    2 ar
   2    1    6 ar
   3    1    9 2
   4    2    3 ar
   5    2    8 2
   6    3    4 ar
   7    3   20 1
   8    4    5 ar
   9    4   21 1
  10    5    6 ar
  11    5   22 1
  12    7    8 1
  13    7    9 1
  14    7   11 1
  15    9   10 1
  16   10   12 1
  17   10   23 1
  18   11   24 1
  19   11   25 1
  20   11   26 1
  21   12   13 ar
  22   12   17 ar
  23   13   14 ar
  24   13   27 1
  25   14   15 ar
  26   14   19 1
  27   15   16 ar
  28   15   18 1
  29   16   17 ar
  30   16   28 1
  31   17   29 1

#	End of record

