#	Name: ASD03091922
#	Creating user name:	WinNT
#	Creation time:	15. 06. 2019 20:31

#	Modifying user name:	WinNT
#	Modification time:	15. 06. 2019 20:31

#	Program:	/corina/corina34_cracker 3.40 0067  02.08.2006

@<TRIPOS>MOLECULE
ASD03091922
  61   64    0    0    0
SMALL
NO_CHARGES


@<TRIPOS>ATOM
   1 C1            -0.0170     1.3989     0.0097 C.ar    
   2 C2            -1.2292     2.0674     0.0172 C.ar    
   3 C3            -2.4097     1.3492     0.0075 C.ar    
   4 C4            -2.3924    -0.0361    -0.0097 C.ar    
   5 C5            -1.1928    -0.7181    -0.0124 C.ar    
   6 C6             0.0021    -0.0041     0.0020 C.ar    
   7 O7             1.1598     2.0716     0.0021 O.3     
   8 C8             2.2743     1.4627     0.6521 C.3     
   9 N9             2.4122     0.0612     0.2540 N.am    
  10 C10            1.3112    -0.6873     0.0165 C.2     
  11 C11           -3.6902    -0.8019    -0.0249 C.3     
  12 C12           -4.1796    -0.9329    -1.4442 C.ar    
  13 C13           -3.7998    -2.0207    -2.2187 C.ar    
  14 O14            1.3965    -1.8842    -0.1793 O.2     
  15 C15           -3.7280     2.0794     0.0161 C.3     
  16 C16            3.7444    -0.5315     0.1122 C.3     
  17 C17           -5.0151     0.0256    -1.9852 C.ar    
  18 C18           -4.2712    -2.1040    -3.5167 C.ar    
  19 C19           -5.1066    -1.0985    -3.9997 C.ar    
  20 N20           -5.4506    -0.0780    -3.2249 N.ar    
  21 C21           -5.6200    -1.1728    -5.3892 C.2     
  22 C22            4.1793    -1.1346     1.4494 C.3     
  23 O23            3.3390    -2.2475     1.7767 O.3     
  24 C24            4.1224    -3.4494     1.8481 C.3     
  25 C25            5.5633    -2.9751     2.1635 C.3     
  26 C26            5.6272    -1.6592     1.3411 C.3     
  27 N27           -5.3746    -2.1410    -6.2908 N.2     
  28 N28           -5.9937    -1.8569    -7.3818 N.2     
  29 N29           -6.6396    -0.7512    -7.2583 N.pl3   
  30 C30           -6.4418    -0.2755    -6.0092 C.2     
  31 C31           -7.4571    -0.1174    -8.2957 C.3     
  32 H32           -1.2522     3.1471     0.0309 H       
  33 H33           -1.1810    -1.7980    -0.0257 H       
  34 H34            3.1831     2.0019     0.3847 H       
  35 H35            2.1321     1.5159     1.7315 H       
  36 H36           -3.5317    -1.7940     0.3978 H       
  37 H37           -4.4336    -0.2689     0.5679 H       
  38 H38           -3.1506    -2.7846    -1.8169 H       
  39 H39           -4.0453     2.2685    -1.0094 H       
  40 H40           -4.4773     1.4705     0.5219 H       
  41 H41           -3.6148     3.0274     0.5421 H       
  42 H42            3.7153    -1.3134    -0.6467 H       
  43 H43            4.4549     0.2390    -0.1871 H       
  44 H44           -5.3157     0.8710    -1.3840 H       
  45 H45           -3.9953    -2.9365    -4.1471 H       
  46 H46            4.1156    -0.3800     2.2333 H       
  47 H47            3.7535    -4.0947     2.6454 H       
  48 H48            4.0975    -3.9745     0.8933 H       
  49 H49            5.6882    -2.7792     3.2285 H       
  50 H50            6.3005    -3.6957     1.8095 H       
  51 H51            5.8894    -1.8629     0.3029 H       
  52 H52            6.3292    -0.9556     1.7887 H       
  53 H53           -6.8489     0.6315    -5.5875 H       
  54 H54           -8.4830    -0.4779    -8.2206 H       
  55 H55           -7.4411     0.9641    -8.1606 H       
  56 H56           -7.0553    -0.3669    -9.2778 H       
  57 C57           11.8563     9.2369     9.1116 C.3     
  58 H58           11.8711     8.1471     9.1056 H       
  59 H59           12.8789     9.6142     9.1038 H       
  60 H60           11.3292     9.5980     8.2285 H       
  61 H61           11.3462     9.5885    10.0084 H       
@<TRIPOS>BOND
   1    1    6 ar
   2    1    7 1
   3    1    2 ar
   4    2    3 ar
   5    2   32 1
   6    3    4 ar
   7    3   15 1
   8    4    5 ar
   9    4   11 1
  10    5    6 ar
  11    5   33 1
  12    6   10 1
  13    7    8 1
  14    8    9 1
  15    8   34 1
  16    8   35 1
  17    9   10 am
  18    9   16 1
  19   10   14 2
  20   11   12 1
  21   11   36 1
  22   11   37 1
  23   12   13 ar
  24   12   17 ar
  25   13   18 ar
  26   13   38 1
  27   15   39 1
  28   15   40 1
  29   15   41 1
  30   16   22 1
  31   16   42 1
  32   16   43 1
  33   17   20 ar
  34   17   44 1
  35   18   19 ar
  36   18   45 1
  37   19   20 ar
  38   19   21 1
  39   21   30 2
  40   21   27 1
  41   22   23 1
  42   22   26 1
  43   22   46 1
  44   23   24 1
  45   24   25 1
  46   24   47 1
  47   24   48 1
  48   25   26 1
  49   25   49 1
  50   25   50 1
  51   26   51 1
  52   26   52 1
  53   27   28 2
  54   28   29 1
  55   29   30 1
  56   29   31 1
  57   30   53 1
  58   31   54 1
  59   31   55 1
  60   31   56 1
  61   57   58 1
  62   57   59 1
  63   57   60 1
  64   57   61 1

#	End of record

