#	Name: ASD01890041
#	Creating user name:	WinNT
#	Creation time:	15. 06. 2019 19:50

#	Modifying user name:	WinNT
#	Modification time:	15. 06. 2019 19:50

#	Program:	/corina/corina34_cracker 3.40 0067  02.08.2006

@<TRIPOS>MOLECULE
ASD01890041
  36   38    0    0    0
SMALL
NO_CHARGES


@<TRIPOS>ATOM
   1 C1            -0.6169    -0.3035    -1.3625 C.2     
   2 C2             0.0483     0.0775    -0.0650 C.3     
   3 C3             1.4142    -0.6056     0.0276 C.3     
   4 C4             2.1534    -0.1015     1.2687 C.3     
   5 O5            -0.0153    -0.9584    -2.1803 O.2     
   6 O6            -1.8797     0.0801    -1.6072 O.3     
   7 C7             1.2241    -2.0973     0.1274 C.ar    
   8 C8             1.7639    -2.9286    -0.8362 C.ar    
   9 C9             1.5899    -4.2967    -0.7452 C.ar    
  10 C10            0.8753    -4.8342     0.3105 C.ar    
  11 C11            0.3353    -4.0017     1.2746 C.ar    
  12 C12            0.5148    -2.6341     1.1856 C.ar    
  13 Cl13           0.6559    -6.5524     0.4252 Cl      
  14 S14            3.8362     1.9689     0.2898 S.3     
  15 C15            2.4657     1.3639     1.1068 C.2     
  16 N16            1.7362     2.3100     1.5644 N.2     
  17 C17            2.1378     3.5764     1.3444 C.ar    
  18 C18            3.3352     3.6242     0.6219 C.ar    
  19 C19            1.5347     4.7907     1.7295 C.ar    
  20 C20            2.1172     5.9891     1.3982 C.ar    
  21 C21            3.3058     6.0231     0.6809 C.ar    
  22 C22            3.9122     4.8491     0.2952 C.ar    
  23 Cl23           1.3607     7.4755     1.8800 Cl      
  24 H24            0.1797     1.1589    -0.0279 H       
  25 H25           -0.5749    -0.2417     0.7703 H       
  26 H26            1.9982    -0.3725    -0.8628 H       
  27 H27            1.5259    -0.2443     2.1484 H       
  28 H28            3.0819    -0.6596     1.3903 H       
  29 H29           -2.2639    -0.1881    -2.4530 H       
  30 H30            2.3214    -2.5089    -1.6605 H       
  31 H31            2.0114    -4.9460    -1.4983 H       
  32 H32           -0.2226    -4.4206     2.0990 H       
  33 H33            0.0971    -1.9845     1.9405 H       
  34 H34            0.6100     4.7785     2.2874 H       
  35 H35            3.7549     6.9715     0.4255 H       
  36 H36            4.8368     4.8778    -0.2623 H       
@<TRIPOS>BOND
   1    1    2 1
   2    1    5 2
   3    1    6 1
   4    2    3 1
   5    2   24 1
   6    2   25 1
   7    3    4 1
   8    3    7 1
   9    3   26 1
  10    4   15 1
  11    4   27 1
  12    4   28 1
  13    6   29 1
  14    7    8 ar
  15    7   12 ar
  16    8    9 ar
  17    8   30 1
  18    9   10 ar
  19    9   31 1
  20   10   11 ar
  21   10   13 1
  22   11   12 ar
  23   11   32 1
  24   12   33 1
  25   14   15 1
  26   14   18 1
  27   15   16 2
  28   16   17 1
  29   17   18 ar
  30   17   19 ar
  31   18   22 ar
  32   19   20 ar
  33   19   34 1
  34   20   21 ar
  35   20   23 1
  36   21   22 ar
  37   21   35 1
  38   22   36 1

#	End of record

