#	Name: ASD09900033
#	Creating user name:	WinNT
#	Creation time:	15. 06. 2019 21:24

#	Modifying user name:	WinNT
#	Modification time:	15. 06. 2019 21:24

#	Program:	/corina/corina34_cracker 3.40 0067  02.08.2006

@<TRIPOS>MOLECULE
ASD09900033
  35   38    0    0    0
SMALL
NO_CHARGES


@<TRIPOS>ATOM
   1 C1            -1.5936     7.6810     0.2534 C.ar    
   2 C2            -2.1834     8.9045     0.3029 C.ar    
   3 C3            -1.4182    10.0642     0.3327 C.ar    
   4 C4            -0.0457     9.9848     0.3122 C.ar    
   5 C5            -0.1832     7.5633     0.2315 C.ar    
   6 N6             0.5629     6.4592     0.1844 N.2     
   7 C7             0.5810     8.7392     0.2614 C.ar    
   8 S8             2.2847     8.2924     0.2229 S.3     
   9 C9             1.8460     6.5901     0.1730 C.2     
  10 C10            2.8091     5.4705     0.1232 C.2     
  11 O11            2.4164     4.3255     0.2346 O.2     
  12 N12            4.1230     5.7188    -0.0458 N.am    
  13 C13            4.6990     7.0360    -0.3293 C.3     
  14 C14            6.2146     6.7994    -0.4330 C.3     
  15 C15            6.3853     5.3163    -0.1922 C.ar    
  16 C16            5.1354     4.7590     0.0295 C.ar    
  17 C17            5.0394     3.3893     0.2828 C.ar    
  18 C18            7.5189     4.5278    -0.1633 C.ar    
  19 C19            7.4151     3.1709     0.0818 C.ar    
  20 C20            6.1742     2.6071     0.3149 C.ar    
  21 C21            4.1549     7.5798    -1.6518 C.3     
  22 H22           -2.2058     6.7914     0.2351 H       
  23 H23           -3.2609     8.9764     0.3190 H       
  24 H24           -1.9022    11.0289     0.3717 H       
  25 H25            0.5476    10.8870     0.3350 H       
  26 H26            4.4791     7.7278     0.4839 H       
  27 H27            6.5741     7.0672    -1.4266 H       
  28 H28            6.7419     7.3717     0.3301 H       
  29 H29            4.0721     2.9408     0.4547 H       
  30 H30            8.4886     4.9719    -0.3330 H       
  31 H31            8.3022     2.5552     0.1038 H       
  32 H32            6.0926     1.5482     0.5113 H       
  33 H33            3.0667     7.5186    -1.6496 H       
  34 H34            4.4601     8.6195    -1.7702 H       
  35 H35            4.5505     6.9888    -2.4779 H       
@<TRIPOS>BOND
   1    1    2 ar
   2    1    5 ar
   3    1   22 1
   4    2    3 ar
   5    2   23 1
   6    3    4 ar
   7    3   24 1
   8    4    7 ar
   9    4   25 1
  10    5    7 ar
  11    5    6 1
  12    6    9 2
  13    7    8 1
  14    8    9 1
  15    9   10 1
  16   10   11 2
  17   10   12 am
  18   12   13 1
  19   12   16 1
  20   13   14 1
  21   13   21 1
  22   13   26 1
  23   14   15 1
  24   14   27 1
  25   14   28 1
  26   15   18 ar
  27   15   16 ar
  28   16   17 ar
  29   17   20 ar
  30   17   29 1
  31   18   19 ar
  32   18   30 1
  33   19   20 ar
  34   19   31 1
  35   20   32 1
  36   21   33 1
  37   21   34 1
  38   21   35 1

#	End of record

