#	Name: ASD02570003
#	Creating user name:	WinNT
#	Creation time:	15. 06. 2019 20:25

#	Modifying user name:	WinNT
#	Modification time:	15. 06. 2019 20:25

#	Program:	/corina/corina34_cracker 3.40 0067  02.08.2006

@<TRIPOS>MOLECULE
ASD02570003
  54   56    0    0    0
SMALL
NO_CHARGES


@<TRIPOS>ATOM
   1 C1            -0.1578     1.5508    -0.2436 C.3     
   2 C2             0.1303     0.1159     0.2137 C.3     
   3 C3             0.8303    -0.6212    -0.9260 C.3     
   4 C4             2.0077     0.1741    -1.4280 C.ar    
   5 C5             2.1608     1.5183    -1.1622 C.ar    
   6 C6             1.1694     2.3003    -0.3403 C.3     
   7 C7             2.9614    -0.4962    -2.1872 C.ar    
   8 C8             4.0609     0.1666    -2.6817 C.ar    
   9 C9             4.2210     1.5302    -2.4188 C.ar    
  10 C10            3.2627     2.1981    -1.6570 C.ar    
  11 C11            0.9328     3.6620    -0.9964 C.3     
  12 C12            1.7343     2.5102     1.0661 C.3     
  13 C13            1.3181    -1.9812    -0.4226 C.3     
  14 C14           -0.1601    -0.8343    -2.0724 C.3     
  15 C15            5.3921     2.2553    -2.9417 C.2     
  16 C16            6.4091     2.8303    -1.9898 C.3     
  17 C17            5.5535     2.4040    -4.2677 C.2     
  18 C18            6.7998     2.9805    -4.7973 C.ar    
  19 C19            8.0205     2.7036    -4.1714 C.ar    
  20 C20            9.1766     3.2383    -4.6634 C.ar    
  21 C21            9.1409     4.0631    -5.7924 C.ar    
  22 C22            7.9212     4.3401    -6.4183 C.ar    
  23 C23            6.7653     3.8012    -5.9304 C.ar    
  24 C24           10.3898     4.6412    -6.3229 C.2     
  25 O25           11.4495     4.4010    -5.7791 O.2     
  26 O26           10.3557     5.4359    -7.4107 O.3     
  27 H27           -0.6425     1.5349    -1.2197 H       
  28 H28           -0.8060     2.0439     0.4808 H       
  29 H29            0.7763     0.1330     1.0915 H       
  30 H30           -0.8059    -0.3871     0.4560 H       
  31 H31            2.8373    -1.5496    -2.3905 H       
  32 H32            4.7960    -0.3635    -3.2690 H       
  33 H33            3.3803     3.2516    -1.4506 H       
  34 H34            0.5395     3.5171    -2.0026 H       
  35 H35            0.2159     4.2309    -0.4045 H       
  36 H36            1.8746     4.2082    -1.0497 H       
  37 H37            2.6720     3.0622     1.0023 H       
  38 H38            1.0197     3.0758     1.6640 H       
  39 H39            1.9137     1.5421     1.5338 H       
  40 H40            0.4667    -2.5674    -0.0770 H       
  41 H41            1.8186    -2.5105    -1.2334 H       
  42 H42            2.0167    -1.8345     0.4012 H       
  43 H43           -0.5181     0.1320    -2.4277 H       
  44 H44            0.3360    -1.3603    -2.8881 H       
  45 H45           -1.0039    -1.4265    -1.7182 H       
  46 H46            7.1918     2.0943    -1.8062 H       
  47 H47            6.8489     3.7272    -2.4261 H       
  48 H48            5.9222     3.0854    -1.0485 H       
  49 H49            4.7686     2.1004    -4.9446 H       
  50 H50            8.0480     2.0673    -3.2992 H       
  51 H51           10.1187     3.0246    -4.1804 H       
  52 H52            7.8940     4.9773    -7.2899 H       
  53 H53            5.8235     4.0149    -6.4140 H       
  54 H54           11.1996     5.7914    -7.7213 H       
@<TRIPOS>BOND
   1    1    2 1
   2    1    6 1
   3    1   27 1
   4    1   28 1
   5    2    3 1
   6    2   29 1
   7    2   30 1
   8    3    4 1
   9    3   13 1
  10    3   14 1
  11    4    5 ar
  12    4    7 ar
  13    5    6 1
  14    5   10 ar
  15    6   11 1
  16    6   12 1
  17    7    8 ar
  18    7   31 1
  19    8    9 ar
  20    8   32 1
  21    9   10 ar
  22    9   15 1
  23   10   33 1
  24   11   34 1
  25   11   35 1
  26   11   36 1
  27   12   37 1
  28   12   38 1
  29   12   39 1
  30   13   40 1
  31   13   41 1
  32   13   42 1
  33   14   43 1
  34   14   44 1
  35   14   45 1
  36   15   16 1
  37   15   17 2
  38   16   46 1
  39   16   47 1
  40   16   48 1
  41   17   18 1
  42   17   49 1
  43   18   19 ar
  44   18   23 ar
  45   19   20 ar
  46   19   50 1
  47   20   21 ar
  48   20   51 1
  49   21   22 ar
  50   21   24 1
  51   22   23 ar
  52   22   52 1
  53   23   53 1
  54   24   25 2
  55   24   26 1
  56   26   54 1

#	End of record

