#	Name: ASD01230669
#	Creating user name:	WinNT
#	Creation time:	15. 06. 2019 19:14

#	Modifying user name:	WinNT
#	Modification time:	15. 06. 2019 19:14

#	Program:	/corina/corina34_cracker 3.40 0067  02.08.2006

@<TRIPOS>MOLECULE
ASD01230669
  46   49    0    0    0
SMALL
NO_CHARGES


@<TRIPOS>ATOM
   1 C1            -0.0166     1.3739     0.0096 C.2     
   2 C2             0.0021    -0.0041     0.0020 C.2     
   3 C3            -1.2143    -0.6999     0.0083 C.2     
   4 C4            -2.3848    -0.0389     0.0110 C.2     
   5 N5            -2.4623     1.3310     0.0018 N.pl3   
   6 C6            -1.3175     2.0759     0.0320 C.2     
   7 C7            -3.8100     1.9041    -0.0477 C.3     
   8 C8            -3.8781     3.1897     0.7818 C.3     
   9 S9            -2.6223     4.3260     0.1134 S.o2    
  10 N10           -1.2621     3.3847     0.0819 N.am    
  11 C11            1.2496     2.1412     0.0016 C.ar    
  12 C12            2.1024     2.0740    -1.1004 C.ar    
  13 C13            3.2810     2.7914    -1.1018 C.ar    
  14 C14            3.6177     3.5762    -0.0132 C.ar    
  15 C15            2.7765     3.6466     1.0829 C.ar    
  16 C16            1.5921     2.9389     1.0938 C.ar    
  17 C17            4.9066     4.3571    -0.0213 C.3     
  18 C18            4.6632     5.7219    -0.6121 C.ar    
  19 C19            4.2999     6.7743     0.2071 C.ar    
  20 C20            4.0769     8.0266    -0.3336 C.ar    
  21 C21            4.2176     8.2267    -1.6962 C.ar    
  22 C22            4.5816     7.1717    -2.5160 C.ar    
  23 C23            4.8092     5.9218    -1.9725 C.ar    
  24 F24            3.9994     9.4503    -2.2259 F       
  25 C25            4.7348     7.3878    -3.9995 C.3     
  26 F26            5.3775     4.4934     1.2890 F       
  27 F27            5.8580     3.6788    -0.7907 F       
  28 O28           -2.8878     4.6254    -1.2501 O.2     
  29 O29           -2.3212     5.3519     1.0494 O.2     
  30 H30            0.9399    -0.5395    -0.0090 H       
  31 H31           -1.2112    -1.7799     0.0107 H       
  32 H32           -3.3018    -0.6095     0.0204 H       
  33 H33           -4.0669     2.1299    -1.0826 H       
  34 H34           -4.5228     1.1816     0.3497 H       
  35 H35           -4.8682     3.6368     0.6934 H       
  36 H36           -3.6609     2.9693     1.8269 H       
  37 H37            1.8408     1.4615    -1.9506 H       
  38 H38            3.9422     2.7399    -1.9541 H       
  39 H39            3.0452     4.2605     1.9299 H       
  40 H40            0.9362     2.9947     1.9500 H       
  41 H41            4.1898     6.6178     1.2700 H       
  42 H42            3.7926     8.8487     0.3066 H       
  43 H43            5.0931     5.0988    -2.6116 H       
  44 H44            5.7626     7.6757    -4.2206 H       
  45 H45            4.4942     6.4652    -4.5278 H       
  46 H46            4.0583     8.1788    -4.3232 H       
@<TRIPOS>BOND
   1    1    2 2
   2    1   11 1
   3    1    6 1
   4    2    3 1
   5    2   30 1
   6    3    4 2
   7    3   31 1
   8    4    5 1
   9    4   32 1
  10    5    6 1
  11    5    7 1
  12    6   10 2
  13    7    8 1
  14    7   33 1
  15    7   34 1
  16    8    9 1
  17    8   35 1
  18    8   36 1
  19    9   10 am
  20    9   28 2
  21    9   29 2
  22   11   12 ar
  23   11   16 ar
  24   12   13 ar
  25   12   37 1
  26   13   14 ar
  27   13   38 1
  28   14   15 ar
  29   14   17 1
  30   15   16 ar
  31   15   39 1
  32   16   40 1
  33   17   18 1
  34   17   26 1
  35   17   27 1
  36   18   19 ar
  37   18   23 ar
  38   19   20 ar
  39   19   41 1
  40   20   21 ar
  41   20   42 1
  42   21   22 ar
  43   21   24 1
  44   22   23 ar
  45   22   25 1
  46   23   43 1
  47   25   44 1
  48   25   45 1
  49   25   46 1

#	End of record

