#	Name: ASD03091963
#	Creating user name:	WinNT
#	Creation time:	15. 06. 2019 20:31

#	Modifying user name:	WinNT
#	Modification time:	15. 06. 2019 20:31

#	Program:	/corina/corina34_cracker 3.40 0067  02.08.2006

@<TRIPOS>MOLECULE
ASD03091963
  53   56    0    0    0
SMALL
NO_CHARGES


@<TRIPOS>ATOM
   1 C1            -0.0170     1.3998     0.0097 C.ar    
   2 C2            -1.2283     2.0682     0.0306 C.ar    
   3 C3            -2.4087     1.3494     0.0435 C.ar    
   4 C4            -2.3914    -0.0360     0.0356 C.ar    
   5 C5            -1.1918    -0.7183     0.0148 C.ar    
   6 C6             0.0021    -0.0041     0.0020 C.ar    
   7 O7             1.1631     2.0665     0.0021 O.3     
   8 C8             2.2620     1.4580     0.6804 C.3     
   9 N9             2.4081     0.0565     0.2863 N.am    
  10 C10            1.3144    -0.6822    -0.0142 C.2     
  11 C11           -3.6892    -0.8018     0.0501 C.3     
  12 C12           -4.2052    -0.9426    -1.3588 C.ar    
  13 C13           -5.0425     0.0191    -1.8946 C.ar    
  14 C14           -3.8400    -2.0354    -2.1322 C.ar    
  15 C15           -4.3349    -2.1277    -3.4213 C.ar    
  16 C16           -5.1794    -1.1241    -3.8962 C.ar    
  17 N17           -5.5005    -0.0918    -3.1245 N.ar    
  18 O18            1.4088    -1.8630    -0.2883 O.2     
  19 C19            3.7406    -0.5484     0.2167 C.3     
  20 C20            3.8138    -1.7368     1.1790 C.3     
  21 O21            5.0948    -2.3604     1.0671 O.3     
  22 C22            4.0061    -1.0394    -1.2098 C.3     
  23 C23            5.3683    -1.7386    -1.2521 C.3     
  24 C24            5.3787    -2.8810    -0.2331 C.3     
  25 O25            4.0123     0.0743    -2.1052 O.3     
  26 C26           -3.7269     2.0794     0.0669 C.3     
  27 C27           -5.7000    -1.2048    -5.2278 C.1     
  28 C28           -1.2604     3.5748     0.0397 C.3     
  29 C29           -6.1268    -1.2709    -6.3195 C.1     
  30 H30           -1.1800    -1.7983     0.0090 H       
  31 H31            3.1773     1.9966     0.4346 H       
  32 H32            2.0934     1.5120     1.7559 H       
  33 H33           -3.5226    -1.7910     0.4766 H       
  34 H34           -4.4213    -0.2647     0.6532 H       
  35 H35           -5.3249     0.8726    -1.2961 H       
  36 H36           -3.1839    -2.7968    -1.7370 H       
  37 H37           -4.0707    -2.9646    -4.0508 H       
  38 H38            4.4916     0.1918     0.4928 H       
  39 H39            3.6681    -1.3867     2.2008 H       
  40 H40            3.0356    -2.4572     0.9269 H       
  41 H41            3.2264    -1.7417    -1.5047 H       
  42 H42            5.5409    -2.1397    -2.2508 H       
  43 H43            6.1528    -1.0232    -1.0053 H       
  44 H44            6.3601    -3.3551    -0.2285 H       
  45 H45            4.6209    -3.6163    -0.5037 H       
  46 H46            4.1751    -0.1640    -3.0281 H       
  47 H47           -4.0596     2.2614    -0.9550 H       
  48 H48           -4.4684     1.4737     0.5879 H       
  49 H49           -3.6062     3.0309     0.5846 H       
  50 H50           -1.2825     3.9440    -0.9856 H       
  51 H51           -2.1506     3.9161     0.5681 H       
  52 H52           -0.3712     3.9541     0.5433 H       
  53 H53           -6.5085    -1.3300    -7.2959 H       
@<TRIPOS>BOND
   1    1    6 ar
   2    1    7 1
   3    1    2 ar
   4    2    3 ar
   5    2   28 1
   6    3    4 ar
   7    3   26 1
   8    4    5 ar
   9    4   11 1
  10    5    6 ar
  11    5   30 1
  12    6   10 1
  13    7    8 1
  14    8    9 1
  15    8   31 1
  16    8   32 1
  17    9   10 am
  18    9   19 1
  19   10   18 2
  20   11   12 1
  21   11   33 1
  22   11   34 1
  23   12   14 ar
  24   12   13 ar
  25   13   17 ar
  26   13   35 1
  27   14   15 ar
  28   14   36 1
  29   15   16 ar
  30   15   37 1
  31   16   17 ar
  32   16   27 1
  33   19   22 1
  34   19   20 1
  35   19   38 1
  36   20   21 1
  37   20   39 1
  38   20   40 1
  39   21   24 1
  40   22   23 1
  41   22   25 1
  42   22   41 1
  43   23   24 1
  44   23   42 1
  45   23   43 1
  46   24   44 1
  47   24   45 1
  48   25   46 1
  49   26   47 1
  50   26   48 1
  51   26   49 1
  52   27   29 3
  53   28   50 1
  54   28   51 1
  55   28   52 1
  56   29   53 1

#	End of record

