#	Name: ASD07930394
#	Creating user name:	WinNT
#	Creation time:	15. 06. 2019 21:12

#	Modifying user name:	WinNT
#	Modification time:	15. 06. 2019 21:12

#	Program:	/corina/corina34_cracker 3.40 0067  02.08.2006

@<TRIPOS>MOLECULE
ASD07930394
  45   47    0    0    0
SMALL
NO_CHARGES


@<TRIPOS>ATOM
   1 N1             0.0005     1.2712     0.0036 N.2     
   2 N2            -1.1611    -0.7565     0.0076 N.pl3   
   3 C3            -1.3888    -1.7915    -1.0064 C.3     
   4 C4            -0.2711    -2.8399    -0.9192 C.3     
   5 S5             1.3268    -1.9883    -1.1092 S.o2    
   6 N6             1.2083    -0.7373    -0.0149 N.am    
   7 C7             0.0133    -0.0321    -0.0009 C.2     
   8 C8             2.3111    -0.3990     0.8883 C.3     
   9 C9            -1.3840    -1.1539    -2.3972 C.3     
  10 C10           -2.7200    -2.4534    -0.7598 C.ar    
  11 C11           -3.4610    -2.1182     0.3561 C.ar    
  12 C12           -4.6880    -2.7283     0.5827 C.ar    
  13 C13           -5.1669    -3.6742    -0.3140 C.ar    
  14 C14           -4.4225    -4.0065    -1.4290 C.ar    
  15 C15           -3.2020    -3.3933    -1.6557 C.ar    
  16 N16           -5.4404    -2.3905     1.7132 N.am    
  17 C17           -6.7862    -2.3666     1.6446 C.2     
  18 O18           -7.3437    -2.5428     0.5788 O.2     
  19 C19           -7.5845    -2.1262     2.8656 C.ar    
  20 N20           -6.9694    -1.9289     4.0265 N.ar    
  21 O21            2.3891    -2.7939    -0.6176 O.2     
  22 O22            1.4101    -1.3489    -2.3755 O.2     
  23 C23           -8.9786    -2.1026     2.7879 C.ar    
  24 C24           -9.7140    -1.8756     3.9433 C.ar    
  25 C25           -9.0300    -1.6804     5.1343 C.ar    
  26 C26           -7.6404    -1.7118     5.1349 C.ar    
  27 F27           -9.7078    -1.4564     6.2813 F       
  28 F28           -2.4754    -3.7197    -2.7469 F       
  29 F29           -9.6026    -2.2975     1.6055 F       
  30 H30            0.8358     1.7644    -0.0028 H       
  31 H31           -1.8367    -0.5788     0.6806 H       
  32 H32           -0.3091    -3.3379     0.0496 H       
  33 H33           -0.3931    -3.5741    -1.7155 H       
  34 H34            2.9602     0.3346     0.4102 H       
  35 H35            1.9095     0.0182     1.8117 H       
  36 H36            2.8840    -1.2982     1.1148 H       
  37 H37           -0.4200    -0.6773    -2.5751 H       
  38 H38           -1.5532    -1.9236    -3.1503 H       
  39 H39           -2.1753    -0.4067    -2.4572 H       
  40 H40           -3.0865    -1.3826     1.0525 H       
  41 H41           -6.1207    -4.1500    -0.1395 H       
  42 H42           -4.7946    -4.7421    -2.1267 H       
  43 H43           -4.9933    -2.1735     2.5463 H       
  44 H44          -10.7934    -1.8513     3.9154 H       
  45 H45           -7.1049    -1.5606     6.0604 H       
@<TRIPOS>BOND
   1    1    7 2
   2    1   30 1
   3    2    3 1
   4    2    7 1
   5    2   31 1
   6    3    4 1
   7    3    9 1
   8    3   10 1
   9    4    5 1
  10    4   32 1
  11    4   33 1
  12    5    6 am
  13    5   21 2
  14    5   22 2
  15    6    7 1
  16    6    8 1
  17    8   34 1
  18    8   35 1
  19    8   36 1
  20    9   37 1
  21    9   38 1
  22    9   39 1
  23   10   11 ar
  24   10   15 ar
  25   11   12 ar
  26   11   40 1
  27   12   13 ar
  28   12   16 1
  29   13   14 ar
  30   13   41 1
  31   14   15 ar
  32   14   42 1
  33   15   28 1
  34   16   17 am
  35   16   43 1
  36   17   18 2
  37   17   19 1
  38   19   23 ar
  39   19   20 ar
  40   20   26 ar
  41   23   24 ar
  42   23   29 1
  43   24   25 ar
  44   24   44 1
  45   25   26 ar
  46   25   27 1
  47   26   45 1

#	End of record

