#	Name: ASD03540196
#	Creating user name:	WinNT
#	Creation time:	15. 06. 2019 20:42

#	Modifying user name:	WinNT
#	Modification time:	15. 06. 2019 20:42

#	Program:	/corina/corina34_cracker 3.40 0067  02.08.2006

@<TRIPOS>MOLECULE
ASD03540196
  77   80    0    0    0
SMALL
NO_CHARGES


@<TRIPOS>ATOM
   1 C1             1.1483     0.0184    -2.2743 C.2     
   2 C2             1.8693     0.2374    -0.9692 C.3     
   3 C3             3.3431    -0.1400    -1.1312 C.3     
   4 O4             0.2227    -0.7561    -2.3306 O.2     
   5 O5             1.5309     0.6879    -3.3730 O.3     
   6 C6             1.7610     1.7098    -0.5676 C.3     
   7 O7             1.2775    -0.5776     0.0445 O.3     
   8 C8             1.3097    -1.9225    -0.1483 C.ar    
   9 C9             0.8657    -2.7782     0.8494 C.ar    
  10 C10            0.8995    -4.1449     0.6510 C.ar    
  11 C11            1.3753    -4.6602    -0.5406 C.ar    
  12 C12            1.8187    -3.8094    -1.5362 C.ar    
  13 C13            1.7813    -2.4418    -1.3452 C.ar    
  14 C14            1.4110    -6.1515    -0.7543 C.3     
  15 C15            0.3222    -7.7194     0.7436 C.2     
  16 N16           -0.7463    -8.3078     1.3001 N.am    
  17 C17           -2.0335    -7.9476     0.9430 C.2     
  18 C18           -2.2170    -6.9551    -0.0124 C.2     
  19 C19           -1.0060    -6.3367    -0.5972 C.2     
  20 N20            0.2044    -6.7556    -0.1838 N.am    
  21 C21           -3.5635    -6.6934    -0.2759 C.2     
  22 C22           -4.4220    -7.4423     0.4362 C.2     
  23 S23           -3.5417    -8.5327     1.4919 S.3     
  24 O24           -1.1033    -5.4627    -1.4382 O.2     
  25 O25            1.4336    -8.0664     1.0936 O.2     
  26 C26            1.4711    -6.4506    -2.2536 C.3     
  27 C27           -5.8817    -7.3603     0.3444 C.2     
  28 N28           -6.6509    -8.1617     1.1077 N.am    
  29 O29           -6.3998    -6.5685    -0.4212 O.2     
  30 C30           -8.1107    -8.0797     1.0159 C.3     
  31 C31           -8.7303    -9.0730     1.9649 C.ar    
  32 C32           -9.0217    -8.6986     3.2626 C.ar    
  33 C33           -9.5920    -9.6134     4.1356 C.ar    
  34 C34           -9.8682   -10.9025     3.7030 C.ar    
  35 C35           -9.5750   -11.2718     2.4048 C.ar    
  36 C36           -9.0117   -10.3563     1.5347 C.ar    
  37 O37           -9.8791    -9.2477     5.4126 O.3     
  38 C38          -10.4653   -10.2414     6.2557 C.3     
  39 C39            0.7912     0.4271    -4.5949 C.3     
  40 C40           -0.6812     0.7866    -4.3864 C.3     
  41 C41            1.3673     1.2750    -5.7307 C.3     
  42 C42            0.9081    -1.0553    -4.9553 C.3     
  43 H43            3.7390     0.3213    -2.0359 H       
  44 H44            3.9057     0.2133    -0.2671 H       
  45 H45            3.4346    -1.2236    -1.2060 H       
  46 H46            0.7114     2.0020    -0.5375 H       
  47 H47            2.2060     1.8514     0.4173 H       
  48 H48            2.2886     2.3250    -1.2965 H       
  49 H49            0.4943    -2.3762     1.7804 H       
  50 H50            0.5543    -4.8115     1.4275 H       
  51 H51            2.1906    -4.2144    -2.4658 H       
  52 H52            2.1232    -1.7775    -2.1251 H       
  53 H53            2.2918    -6.5676    -0.2652 H       
  54 H54           -0.6141    -9.0003     1.9663 H       
  55 H55           -3.8870    -5.9517    -0.9911 H       
  56 H56            0.5903    -6.0344    -2.7426 H       
  57 H57            2.3688    -6.0011    -2.6780 H       
  58 H58            1.4969    -7.5292    -2.4081 H       
  59 H59           -6.2380    -8.7927     1.7177 H       
  60 H60           -8.4355    -7.0734     1.2802 H       
  61 H61           -8.4240    -8.3067    -0.0031 H       
  62 H62           -8.8054    -7.6948     3.5970 H       
  63 H63          -10.3119   -11.6166     4.3810 H       
  64 H64           -9.7895   -12.2752     2.0677 H       
  65 H65           -8.7875   -10.6456     0.5186 H       
  66 H66          -11.4111   -10.5709     5.8257 H       
  67 H67           -9.7886   -11.0918     6.3397 H       
  68 H68          -10.6433    -9.8196     7.2449 H       
  69 H69           -0.7645     1.8427    -4.1296 H       
  70 H70           -1.2365     0.5908    -5.3036 H       
  71 H71           -1.0916     0.1826    -3.5772 H       
  72 H72            2.4163     1.0189    -5.8793 H       
  73 H73            0.8120     1.0792    -6.6480 H       
  74 H74            1.2840     2.3311    -5.4740 H       
  75 H75            0.4977    -1.6593    -4.1461 H       
  76 H76            0.3529    -1.2511    -5.8726 H       
  77 H77            1.9572    -1.3114    -5.1039 H       
@<TRIPOS>BOND
   1    1    2 1
   2    1    4 2
   3    1    5 1
   4    2    3 1
   5    2    6 1
   6    2    7 1
   7    3   43 1
   8    3   44 1
   9    3   45 1
  10    5   39 1
  11    6   46 1
  12    6   47 1
  13    6   48 1
  14    7    8 1
  15    8    9 ar
  16    8   13 ar
  17    9   10 ar
  18    9   49 1
  19   10   11 ar
  20   10   50 1
  21   11   12 ar
  22   11   14 1
  23   12   13 ar
  24   12   51 1
  25   13   52 1
  26   14   20 1
  27   14   26 1
  28   14   53 1
  29   15   16 am
  30   15   20 am
  31   15   25 2
  32   16   17 1
  33   16   54 1
  34   17   18 2
  35   17   23 1
  36   18   19 1
  37   18   21 1
  38   19   20 am
  39   19   24 2
  40   21   22 2
  41   21   55 1
  42   22   23 1
  43   22   27 1
  44   26   56 1
  45   26   57 1
  46   26   58 1
  47   27   28 am
  48   27   29 2
  49   28   30 1
  50   28   59 1
  51   30   31 1
  52   30   60 1
  53   30   61 1
  54   31   32 ar
  55   31   36 ar
  56   32   33 ar
  57   32   62 1
  58   33   34 ar
  59   33   37 1
  60   34   35 ar
  61   34   63 1
  62   35   36 ar
  63   35   64 1
  64   36   65 1
  65   37   38 1
  66   38   66 1
  67   38   67 1
  68   38   68 1
  69   39   40 1
  70   39   42 1
  71   39   41 1
  72   40   69 1
  73   40   70 1
  74   40   71 1
  75   41   72 1
  76   41   73 1
  77   41   74 1
  78   42   75 1
  79   42   76 1
  80   42   77 1

#	End of record

