#	Name: ASD05303049
#	Creating user name:	WinNT
#	Creation time:	15. 06. 2019 20:58

#	Modifying user name:	WinNT
#	Modification time:	15. 06. 2019 20:58

#	Program:	/corina/corina34_cracker 3.40 0067  02.08.2006

@<TRIPOS>MOLECULE
ASD05303049
  27   28    0    0    0
SMALL
NO_CHARGES


@<TRIPOS>ATOM
   1 C1            -0.0127     1.3830     0.0699 C.ar    
   2 C2             0.1009     0.1417     0.6676 C.ar    
   3 C3             1.3042    -0.5380     0.6340 C.ar    
   4 C4             2.4011     0.0258    -0.0007 C.ar    
   5 C5             2.2858     1.2772    -0.6030 C.ar    
   6 C6             1.0766     1.9514    -0.5647 C.ar    
   7 O7             3.3578     1.8350    -1.2262 O.3     
   8 N8             3.6214    -0.6605    -0.0357 N.am    
   9 C9             3.6415    -2.0048     0.0590 C.2     
  10 O10            2.6080    -2.6163     0.2487 O.2     
  11 C11            4.9201    -2.7357    -0.0676 C.ar    
  12 C12            4.9443    -4.1279     0.0301 C.ar    
  13 C13            6.1410    -4.8039    -0.0895 C.ar    
  14 C14            7.3153    -4.1049    -0.3053 C.ar    
  15 C15            7.2983    -2.7248    -0.4031 C.ar    
  16 C16            6.1077    -2.0370    -0.2911 C.ar    
  17 H17           -0.9560     1.9083     0.0948 H       
  18 H18           -0.7524    -0.2981     1.1624 H       
  19 H19            1.3903    -1.5074     1.1020 H       
  20 H20            0.9843     2.9214    -1.0306 H       
  21 H21            3.4287     1.6098    -2.1640 H       
  22 H22            4.4522    -0.1684    -0.1282 H       
  23 H23            4.0284    -4.6747     0.1992 H       
  24 H24            6.1612    -5.8811    -0.0142 H       
  25 H25            8.2496    -4.6389    -0.3975 H       
  26 H26            8.2185    -2.1852    -0.5716 H       
  27 H27            6.0956    -0.9598    -0.3680 H       
@<TRIPOS>BOND
   1    1    2 ar
   2    1    6 ar
   3    1   17 1
   4    2    3 ar
   5    2   18 1
   6    3    4 ar
   7    3   19 1
   8    4    5 ar
   9    4    8 1
  10    5    6 ar
  11    5    7 1
  12    6   20 1
  13    7   21 1
  14    8    9 am
  15    8   22 1
  16    9   10 2
  17    9   11 1
  18   11   12 ar
  19   11   16 ar
  20   12   13 ar
  21   12   23 1
  22   13   14 ar
  23   13   24 1
  24   14   15 ar
  25   14   25 1
  26   15   16 ar
  27   15   26 1
  28   16   27 1

#	End of record

