#	Name: ASD07300955
#	Creating user name:	WinNT
#	Creation time:	15. 06. 2019 21:10

#	Modifying user name:	WinNT
#	Modification time:	15. 06. 2019 21:10

#	Program:	/corina/corina34_cracker 3.40 0067  02.08.2006

@<TRIPOS>MOLECULE
ASD07300955
  45   49    0    0    0
SMALL
NO_CHARGES


@<TRIPOS>ATOM
   1 N1            -0.0268     1.3759     0.1538 N.am    
   2 C2            -0.0004     0.0255     0.0238 C.2     
   3 N3             1.1016    -0.6535    -0.1047 N.2     
   4 C4             2.3042    -0.0572    -0.1180 C.2     
   5 C5             2.3773     1.3388     0.0101 C.2     
   6 C6             1.1268     2.0841     0.1539 C.2     
   7 N7             3.5818    -0.5035    -0.2346 N.pl3   
   8 N8             4.4405     0.6016    -0.1797 N.2     
   9 C9             3.7389     1.6918    -0.0355 C.2     
  10 O10            1.1236     3.2970     0.2687 O.2     
  11 C11            3.9913    -1.9014    -0.3905 C.3     
  12 C12            4.6463    -2.0912    -1.7601 C.3     
  13 C13            5.0741    -3.5511    -1.9230 C.3     
  14 C14            6.0748    -3.9149    -0.8243 C.3     
  15 C15            5.4198    -3.7251     0.5454 C.3     
  16 C16            4.9920    -2.2652     0.7082 C.3     
  17 C17           -1.3087    -0.7225     0.0289 C.3     
  18 C18           -1.8258    -1.0496     1.4397 C.3     
  19 C19           -2.2509    -2.4179     0.8813 C.3     
  20 C20           -1.1526    -2.2381    -0.1799 C.3     
  21 C21           -0.7364    -1.1331     2.4776 C.2     
  22 O22           -0.5689    -0.3057     3.5229 O.3     
  23 C23            0.5164    -0.7440     4.1826 C.2     
  24 N24            0.9651    -1.7882     3.5458 N.2     
  25 N25            0.2125    -2.0243     2.5292 N.2     
  26 F26            6.4659    -5.2499    -0.9732 F       
  27 F27            7.1976    -3.0862    -0.9231 F       
  28 H28           -0.8760     1.8360     0.2430 H       
  29 H29            4.1350     2.6939     0.0365 H       
  30 H30            3.1165    -2.5470    -0.3135 H       
  31 H31            3.9334    -1.8320    -2.5429 H       
  32 H32            5.5211    -1.4455    -1.8371 H       
  33 H33            4.1993    -4.1968    -1.8460 H       
  34 H34            5.5407    -3.6863    -2.8987 H       
  35 H35            4.5449    -4.3708     0.6223 H       
  36 H36            6.1327    -3.9844     1.3281 H       
  37 H37            5.8668    -1.6195     0.6312 H       
  38 H38            4.5254    -2.1300     1.6839 H       
  39 H39           -2.0595    -0.2665    -0.6165 H       
  40 H40           -2.6635    -0.4265     1.7530 H       
  41 H41           -2.0653    -3.2456     1.5658 H       
  42 H42           -3.2597    -2.4268     0.4685 H       
  43 H43           -1.4468    -2.5745    -1.1741 H       
  44 H44           -0.1806    -2.6234     0.1280 H       
  45 H45            0.9392    -0.3103     5.0768 H       
@<TRIPOS>BOND
   1    1    2 1
   2    1    6 am
   3    1   28 1
   4    2    3 2
   5    2   17 1
   6    3    4 1
   7    4    5 2
   8    4    7 1
   9    5    6 1
  10    5    9 1
  11    6   10 2
  12    7    8 1
  13    7   11 1
  14    8    9 2
  15    9   29 1
  16   11   12 1
  17   11   16 1
  18   11   30 1
  19   12   13 1
  20   12   31 1
  21   12   32 1
  22   13   14 1
  23   13   33 1
  24   13   34 1
  25   14   15 1
  26   14   26 1
  27   14   27 1
  28   15   16 1
  29   15   35 1
  30   15   36 1
  31   16   37 1
  32   16   38 1
  33   17   18 1
  34   17   20 1
  35   17   39 1
  36   18   19 1
  37   18   21 1
  38   18   40 1
  39   19   20 1
  40   19   41 1
  41   19   42 1
  42   20   43 1
  43   20   44 1
  44   21   22 1
  45   21   25 2
  46   22   23 1
  47   23   24 2
  48   23   45 1
  49   24   25 1

#	End of record

