#	Name: ASD01815542
#	Creating user name:	WinNT
#	Creation time:	15. 06. 2019 19:33

#	Modifying user name:	WinNT
#	Modification time:	15. 06. 2019 19:33

#	Program:	/corina/corina34_cracker 3.40 0067  02.08.2006

@<TRIPOS>MOLECULE
ASD01815542
  65   70    0    0    0
SMALL
NO_CHARGES


@<TRIPOS>ATOM
   1 C1            -0.6097     0.4372     0.4660 C.ar    
   2 C2            -0.3438    -0.9268     0.4006 C.ar    
   3 C3             0.9338    -1.3878     0.2857 C.ar    
   4 C4             2.0005    -0.4775     0.2321 C.ar    
   5 C5             1.7259     0.9103     0.2989 C.ar    
   6 C6             0.4034     1.3497     0.4166 C.ar    
   7 C7             3.3329    -0.9250     0.1129 C.ar    
   8 C8             4.3642    -0.0486     0.0605 C.ar    
   9 C9             4.1468     1.3366     0.1227 C.ar    
  10 C10            2.8423     1.8495     0.2424 C.ar    
  11 C11            5.2572     2.2961     0.0658 C.2     
  12 N12            4.9483     3.6120     0.1321 N.am    
  13 C13            3.6570     4.0111     0.2471 C.2     
  14 N14            2.6579     3.1791     0.2989 N.2     
  15 O15            6.4115     1.9219    -0.0367 O.2     
  16 C16            6.0167     4.6130     0.0798 C.3     
  17 C17            5.9965     5.4479     1.3618 C.3     
  18 C18            7.1123     6.4933     1.3072 C.3     
  19 C19            6.8958     7.4076     0.0996 C.3     
  20 C20            6.9160     6.5727    -1.1823 C.3     
  21 C21            5.8003     5.5273    -1.1277 C.3     
  22 O22            6.1986     4.5940     2.4896 O.3     
  23 C23            3.6138    -2.4040     0.0431 C.3     
  24 N24            3.3627    -2.8862    -1.3215 N.3     
  25 C25            3.8480    -4.2629    -1.4912 C.3     
  26 C26            3.4972    -4.7550    -2.8974 C.3     
  27 N27            4.1036    -3.8595    -3.8924 N.3     
  28 C28            3.6183    -2.4828    -3.7227 C.3     
  29 C29            3.9691    -1.9907    -2.3165 C.3     
  30 C30            3.8658    -4.3161    -5.1844 C.2     
  31 C31            4.7952    -4.2251    -6.3080 C.2     
  32 N32            4.2331    -4.7536    -7.3522 N.2     
  33 O33            2.9443    -5.2037    -6.9734 O.3     
  34 N34            2.7761    -4.9043    -5.5986 N.2     
  35 C35            6.1743    -3.6193    -6.2626 C.3     
  36 H36           -1.6309     0.7780     0.5524 H       
  37 H37           -1.1617    -1.6308     0.4418 H       
  38 H38            1.1244    -2.4497     0.2364 H       
  39 H39            0.1852     2.4061     0.4679 H       
  40 H40            5.3732    -0.4228    -0.0306 H       
  41 H41            3.4482     5.0695     0.2980 H       
  42 H42            6.9801     4.1116    -0.0121 H       
  43 H43            5.0330     5.9493     1.4537 H       
  44 H44            7.0979     7.0881     2.2205 H       
  45 H45            8.0757     5.9920     1.2153 H       
  46 H46            5.9324     7.9090     0.1916 H       
  47 H47            7.6907     8.1524     0.0607 H       
  48 H48            6.7619     7.2241    -2.0426 H       
  49 H49            7.8795     6.0713    -1.2742 H       
  50 H50            5.8146     4.9325    -2.0410 H       
  51 H51            4.8368     6.0286    -1.0358 H       
  52 H52            6.1977     5.0569     3.3386 H       
  53 H53            4.6548    -2.5890     0.3080 H       
  54 H54            2.9623    -2.9308     0.7403 H       
  55 H55            4.9294    -4.2865    -1.3569 H       
  56 H56            3.3752    -4.9090    -0.7514 H       
  57 H57            3.8817    -5.7655    -3.0355 H       
  58 H58            2.4144    -4.7573    -3.0223 H       
  59 H59            4.0911    -1.8368    -4.4625 H       
  60 H60            2.5369    -2.4593    -3.8570 H       
  61 H61            3.5847    -0.9802    -2.1784 H       
  62 H62            5.0519    -1.9885    -2.1916 H       
  63 H63            6.8876    -4.3653    -5.9121 H       
  64 H64            6.4579    -3.2863    -7.2610 H       
  65 H65            6.1750    -2.7680    -5.5819 H       
@<TRIPOS>BOND
   1    1    2 ar
   2    1    6 ar
   3    1   36 1
   4    2    3 ar
   5    2   37 1
   6    3    4 ar
   7    3   38 1
   8    4    5 ar
   9    4    7 ar
  10    5    6 ar
  11    5   10 ar
  12    6   39 1
  13    7    8 ar
  14    7   23 1
  15    8    9 ar
  16    8   40 1
  17    9   10 ar
  18    9   11 1
  19   10   14 1
  20   11   12 am
  21   11   15 2
  22   12   13 1
  23   12   16 1
  24   13   14 2
  25   13   41 1
  26   16   17 1
  27   16   21 1
  28   16   42 1
  29   17   18 1
  30   17   22 1
  31   17   43 1
  32   18   19 1
  33   18   44 1
  34   18   45 1
  35   19   20 1
  36   19   46 1
  37   19   47 1
  38   20   21 1
  39   20   48 1
  40   20   49 1
  41   21   50 1
  42   21   51 1
  43   22   52 1
  44   23   24 1
  45   23   53 1
  46   23   54 1
  47   24   25 1
  48   24   29 1
  49   25   26 1
  50   25   55 1
  51   25   56 1
  52   26   27 1
  53   26   57 1
  54   26   58 1
  55   27   28 1
  56   27   30 1
  57   28   29 1
  58   28   59 1
  59   28   60 1
  60   29   61 1
  61   29   62 1
  62   30   31 1
  63   30   34 2
  64   31   32 2
  65   31   35 1
  66   32   33 1
  67   33   34 1
  68   35   63 1
  69   35   64 1
  70   35   65 1

#	End of record

