#	Name: ASD01885495
#	Creating user name:	WinNT
#	Creation time:	15. 06. 2019 19:49

#	Modifying user name:	WinNT
#	Modification time:	15. 06. 2019 19:49

#	Program:	/corina/corina34_cracker 3.40 0067  02.08.2006

@<TRIPOS>MOLECULE
ASD01885495
  47   50    0    0    0
SMALL
NO_CHARGES


@<TRIPOS>ATOM
   1 C1             0.4206     0.8290    -0.4297 C.ar    
   2 C2             0.6701    -0.5368    -0.5637 C.ar    
   3 N3            -0.3030    -1.4729    -0.7023 N.2     
   4 C4            -1.3557    -1.3736    -1.4289 C.2     
   5 C5            -1.6577    -0.1281    -2.2202 C.3     
   6 C6            -1.8437     1.0113    -1.2504 C.2     
   7 N7            -0.8524     1.3839    -0.4411 N.am    
   8 C8             1.4919     1.7090    -0.2803 C.ar    
   9 C9             2.7950     1.2412    -0.2689 C.ar    
  10 C10            3.0451    -0.1204    -0.4080 C.ar    
  11 C11            1.9986    -0.9985    -0.5535 C.ar    
  12 C12           -2.2935    -2.5076    -1.4912 C.ar    
  13 O13           -2.9057     1.5956    -1.2077 O.2     
  14 C14           -1.9684    -3.7211    -0.8762 C.ar    
  15 C15           -2.8467    -4.7845    -0.9340 C.ar    
  16 C16           -4.0509    -4.6589    -1.5977 C.ar    
  17 C17           -4.3896    -3.4526    -2.2171 C.ar    
  18 C18           -3.5114    -2.3726    -2.1591 C.ar    
  19 N19            3.8585     2.1362    -0.1182 N.am    
  20 C20            4.9713     1.7558     0.5401 C.2     
  21 N21            6.0374     2.5787     0.5932 N.am    
  22 O22            5.0136     0.6701     1.0859 O.2     
  23 C23            7.2257     2.1465     1.1927 C.ar    
  24 C24            8.4511     2.5422     0.6730 C.ar    
  25 C25            9.6222     2.1143     1.2672 C.ar    
  26 C26            9.5752     1.2924     2.3783 C.ar    
  27 C27            8.3565     0.8963     2.8979 C.ar    
  28 C28            7.1819     1.3258     2.3120 C.ar    
  29 C29           -5.6388    -3.3254    -2.9056 C.1     
  30 N30           -6.6297    -3.2246    -3.4518 N.1     
  31 H31           -0.8274     0.0918    -2.8913 H       
  32 H32           -2.5706    -0.2718    -2.7983 H       
  33 H33           -1.0343     2.0968     0.1910 H       
  34 H34            1.3032     2.7669    -0.1726 H       
  35 H35            4.0610    -0.4868    -0.4013 H       
  36 H36            2.1982    -2.0545    -0.6610 H       
  37 H37           -1.0282    -3.8264    -0.3553 H       
  38 H38           -2.5905    -5.7195    -0.4580 H       
  39 H39           -4.7330    -5.4953    -1.6387 H       
  40 H40           -3.7682    -1.4382    -2.6359 H       
  41 H41            3.7954     3.0310    -0.4874 H       
  42 H42            5.9809     3.4705     0.2160 H       
  43 H43            8.4885     3.1835    -0.1952 H       
  44 H44           10.5755     2.4217     0.8635 H       
  45 H45           10.4923     0.9589     2.8409 H       
  46 H46            8.3232     0.2538     3.7654 H       
  47 H47            6.2304     1.0164     2.7186 H       
@<TRIPOS>BOND
   1    1    2 ar
   2    1    8 ar
   3    1    7 1
   4    2    3 1
   5    2   11 ar
   6    3    4 2
   7    4    5 1
   8    4   12 1
   9    5    6 1
  10    5   31 1
  11    5   32 1
  12    6    7 am
  13    6   13 2
  14    7   33 1
  15    8    9 ar
  16    8   34 1
  17    9   10 ar
  18    9   19 1
  19   10   11 ar
  20   10   35 1
  21   11   36 1
  22   12   14 ar
  23   12   18 ar
  24   14   15 ar
  25   14   37 1
  26   15   16 ar
  27   15   38 1
  28   16   17 ar
  29   16   39 1
  30   17   29 1
  31   17   18 ar
  32   18   40 1
  33   19   20 am
  34   19   41 1
  35   20   21 am
  36   20   22 2
  37   21   23 1
  38   21   42 1
  39   23   24 ar
  40   23   28 ar
  41   24   25 ar
  42   24   43 1
  43   25   26 ar
  44   25   44 1
  45   26   27 ar
  46   26   45 1
  47   27   28 ar
  48   27   46 1
  49   28   47 1
  50   29   30 3

#	End of record

