#	Name: ASD03730633
#	Creating user name:	WinNT
#	Creation time:	15. 06. 2019 20:44

#	Modifying user name:	WinNT
#	Modification time:	15. 06. 2019 20:44

#	Program:	/corina/corina34_cracker 3.40 0067  02.08.2006

@<TRIPOS>MOLECULE
ASD03730633
  57   62    0    0    0
SMALL
NO_CHARGES


@<TRIPOS>ATOM
   1 O1            -0.4359     1.2065     1.1220 O.3     
   2 C2            -0.3826    -0.2310     1.1839 C.3     
   3 O3             0.7223    -0.5700     0.3254 O.3     
   4 C4             1.5529     0.5136     0.3548 C.ar    
   5 C5             0.8390     1.6067     0.8400 C.ar    
   6 C6             2.8835     0.6568     0.0048 C.ar    
   7 C7             3.5158     1.8905     0.1276 C.ar    
   8 C8             2.7873     2.9800     0.5952 C.ar    
   9 C9             1.4631     2.8377     0.9545 C.ar    
  10 O10            4.8089     2.2365    -0.1337 O.3     
  11 C11            3.7198     4.1613     0.5741 C.3     
  12 C12            4.8980     3.6669    -0.2768 C.3     
  13 N13            3.1541     6.3505     0.9082 N.am    
  14 C14            3.0773     5.3806    -0.0245 C.2     
  15 C15            4.1543     4.5757     1.9477 C.ar    
  16 C16            4.7945     3.9205     2.9907 C.ar    
  17 C17            5.0671     4.6032     4.1756 C.ar    
  18 C18            4.6978     5.9276     4.3030 C.ar    
  19 C19            4.0605     6.5786     3.2665 C.ar    
  20 C20            3.7806     5.9089     2.0767 C.ar    
  21 O21            2.5867     5.4739    -1.1298 O.2     
  22 C22            2.6410     7.7096     0.7189 C.3     
  23 C23            1.1847     7.7742     1.1838 C.3     
  24 C24            0.6488     9.1936     0.9861 C.3     
  25 C25           -0.8074     9.2583     1.4509 C.3     
  26 C26           -1.3433    10.6777     1.2533 C.3     
  27 C27            5.1873     2.4969     2.8453 C.ar    
  28 C28            6.0938     2.1195     1.8569 C.ar    
  29 C29            6.4560     0.7919     1.7261 C.ar    
  30 C30            5.9182    -0.1614     2.5759 C.ar    
  31 C31            5.0184     0.2100     3.5577 C.ar    
  32 C32            4.6551     1.5342     3.7003 C.ar    
  33 F33            7.3348     0.4234     0.7685 F       
  34 H34           -0.1910    -0.5634     2.2041 H       
  35 H35           -1.3083    -0.6651     0.8061 H       
  36 H36            3.4353    -0.1944    -0.3658 H       
  37 H37            0.9116     3.6885     1.3263 H       
  38 H38            5.8435     4.0373     0.1191 H       
  39 H39            4.7723     3.9600    -1.3192 H       
  40 H40            5.5653     4.0984     4.9900 H       
  41 H41            4.9088     6.4574     5.2201 H       
  42 H42            3.7766     7.6147     3.3780 H       
  43 H43            3.2400     8.4086     1.3025 H       
  44 H44            2.6976     7.9756    -0.3366 H       
  45 H45            0.5857     7.0752     0.6002 H       
  46 H46            1.1281     7.5082     2.2393 H       
  47 H47            1.2479     9.8927     1.5697 H       
  48 H48            0.7055     9.4597    -0.0694 H       
  49 H49           -1.4064     8.5592     0.8674 H       
  50 H50           -0.8640     8.9923     2.5064 H       
  51 H51           -1.2866    10.9437     0.1978 H       
  52 H52           -2.3807    10.7238     1.5844 H       
  53 H53           -0.7442    11.3768     1.8368 H       
  54 H54            6.5124     2.8624     1.1942 H       
  55 H55            6.2027    -1.1979     2.4707 H       
  56 H56            4.6021    -0.5370     4.2174 H       
  57 H57            3.9555     1.8229     4.4707 H       
@<TRIPOS>BOND
   1    1    2 1
   2    1    5 1
   3    2    3 1
   4    2   34 1
   5    2   35 1
   6    3    4 1
   7    4    5 ar
   8    4    6 ar
   9    5    9 ar
  10    6    7 ar
  11    6   36 1
  12    7    8 ar
  13    7   10 1
  14    8    9 ar
  15    8   11 1
  16    9   37 1
  17   10   12 1
  18   11   12 1
  19   11   14 1
  20   11   15 1
  21   12   38 1
  22   12   39 1
  23   13   14 am
  24   13   20 1
  25   13   22 1
  26   14   21 2
  27   15   16 ar
  28   15   20 ar
  29   16   17 ar
  30   16   27 1
  31   17   18 ar
  32   17   40 1
  33   18   19 ar
  34   18   41 1
  35   19   20 ar
  36   19   42 1
  37   22   23 1
  38   22   43 1
  39   22   44 1
  40   23   24 1
  41   23   45 1
  42   23   46 1
  43   24   25 1
  44   24   47 1
  45   24   48 1
  46   25   26 1
  47   25   49 1
  48   25   50 1
  49   26   51 1
  50   26   52 1
  51   26   53 1
  52   27   28 ar
  53   27   32 ar
  54   28   29 ar
  55   28   54 1
  56   29   30 ar
  57   29   33 1
  58   30   31 ar
  59   30   55 1
  60   31   32 ar
  61   31   56 1
  62   32   57 1

#	End of record

