#	Name: ASD01870355
#	Creating user name:	WinNT
#	Creation time:	15. 06. 2019 19:39

#	Modifying user name:	WinNT
#	Modification time:	15. 06. 2019 19:39

#	Program:	/corina/corina34_cracker 3.40 0067  02.08.2006

@<TRIPOS>MOLECULE
ASD01870355
  57   61    0    0    0
SMALL
NO_CHARGES


@<TRIPOS>ATOM
   1 N1            -0.6151     1.7253    -0.4831 N.am    
   2 C2            -0.3928     0.2746    -0.3864 C.3     
   3 C3             0.4197     2.5749    -0.6373 C.2     
   4 C4             0.1691     4.0578    -0.7342 C.3     
   5 O5             1.5525     2.1461    -0.6980 O.2     
   6 C6             1.4506     4.8929    -0.9078 C.3     
   7 N7             0.6865     5.6753    -1.8988 N.am    
   8 C8            -0.2112     4.5309    -2.1489 C.3     
   9 S9             0.7934     7.2177    -2.4919 S.o2    
  10 C10            1.8548     7.1637    -3.8973 C.ar    
  11 C11            3.2065     6.8211    -3.7493 C.ar    
  12 O12           -0.4995     7.5512    -2.9780 O.2     
  13 O13            1.4733     7.9809    -1.5047 O.2     
  14 C14            1.3674     7.4489    -5.1369 C.ar    
  15 C15            2.1926     7.4106    -6.2594 C.ar    
  16 C16            3.5110     7.0871    -6.1522 C.ar    
  17 C17            4.0479     6.7823    -4.8915 C.ar    
  18 C18           -1.1222    -0.2479     0.8559 C.3     
  19 N19           -2.5317     0.1622     0.8008 N.3     
  20 C20           -2.6629     1.6249     0.8359 C.3     
  21 C21           -1.9971     2.2236    -0.4134 C.3     
  22 C22           -3.2635    -0.4289     1.8264 C.ar    
  23 C23           -3.4699    -1.8082     1.8553 C.ar    
  24 C24           -3.8046     0.3416     2.8552 C.ar    
  25 C25           -4.5236    -0.2827     3.8529 C.ar    
  26 N26           -4.7011    -1.5905     3.8419 N.ar    
  27 C27           -4.2007    -2.3547     2.8888 C.ar    
  28 C28            5.3995     6.4423    -4.7188 C.ar    
  29 N29            5.8561     6.1655    -3.5199 N.ar    
  30 C30            5.0912     6.1904    -2.4370 C.ar    
  31 C31            3.7691     6.5108    -2.4976 C.ar    
  32 C32           -2.9025    -2.6885     0.7717 C.3     
  33 H33           -0.7871    -0.2164    -1.2761 H       
  34 H34            0.6746     0.0730    -0.2962 H       
  35 H35           -0.4939     4.4287     0.0475 H       
  36 H36            1.7288     5.4606    -0.0199 H       
  37 H37            2.2837     4.3354    -1.3360 H       
  38 H38            0.1336     3.8671    -2.9417 H       
  39 H39           -1.2600     4.8096    -2.2518 H       
  40 H40            0.3253     7.7084    -5.2517 H       
  41 H41            1.7796     7.6409    -7.2304 H       
  42 H42            4.1380     7.0612    -7.0311 H       
  43 H43           -1.0607    -1.3358     0.8831 H       
  44 H44           -0.6578     0.1656     1.7511 H       
  45 H45           -3.7188     1.8952     0.8487 H       
  46 H46           -2.1770     2.0123     1.7314 H       
  47 H47           -1.9892     3.3110    -0.3385 H       
  48 H48           -2.5479     1.9191    -1.3033 H       
  49 H49           -3.6625     1.4121     2.8705 H       
  50 H50           -4.9463     0.3060     4.6536 H       
  51 H51           -4.3692    -3.4211     2.9170 H       
  52 H52            6.0619     6.4083    -5.5712 H       
  53 H53            5.5298     5.9520    -1.4793 H       
  54 H54            3.1641     6.5250    -1.6030 H       
  55 H55           -1.9342    -3.0760     1.0883 H       
  56 H56           -3.5830    -3.5194     0.5851 H       
  57 H57           -2.7800    -2.1069    -0.1420 H       
@<TRIPOS>BOND
   1    1    2 1
   2    1    3 am
   3    1   21 1
   4    2   18 1
   5    2   33 1
   6    2   34 1
   7    3    4 1
   8    3    5 2
   9    4    6 1
  10    4    8 1
  11    4   35 1
  12    6    7 1
  13    6   36 1
  14    6   37 1
  15    7    8 1
  16    7    9 am
  17    8   38 1
  18    8   39 1
  19    9   10 1
  20    9   12 2
  21    9   13 2
  22   10   14 ar
  23   10   11 ar
  24   11   17 ar
  25   11   31 ar
  26   14   15 ar
  27   14   40 1
  28   15   16 ar
  29   15   41 1
  30   16   17 ar
  31   16   42 1
  32   17   28 ar
  33   18   19 1
  34   18   43 1
  35   18   44 1
  36   19   20 1
  37   19   22 1
  38   20   21 1
  39   20   45 1
  40   20   46 1
  41   21   47 1
  42   21   48 1
  43   22   23 ar
  44   22   24 ar
  45   23   32 1
  46   23   27 ar
  47   24   25 ar
  48   24   49 1
  49   25   26 ar
  50   25   50 1
  51   26   27 ar
  52   27   51 1
  53   28   29 ar
  54   28   52 1
  55   29   30 ar
  56   30   31 ar
  57   30   53 1
  58   31   54 1
  59   32   55 1
  60   32   56 1
  61   32   57 1

#	End of record

