#	Name: ASD03030002
#	Creating user name:	WinNT
#	Creation time:	15. 06. 2019 20:26

#	Modifying user name:	WinNT
#	Modification time:	15. 06. 2019 20:26

#	Program:	/corina/corina34_cracker 3.40 0067  02.08.2006

@<TRIPOS>MOLECULE
ASD03030002
  40   42    0    0    0
SMALL
NO_CHARGES


@<TRIPOS>ATOM
   1 C1             0.6519     0.9907    -0.1255 C.ar    
   2 C2             0.4219    -0.3919    -0.1769 C.ar    
   3 N3            -0.9339    -0.6148    -0.0126 N.pl3   
   4 C4            -1.6017     0.5868     0.1457 C.ar    
   5 C5            -0.6612     1.6259     0.0898 C.ar    
   6 C6             1.9453     1.4889    -0.2655 C.ar    
   7 C7             2.9976     0.6182    -0.4546 C.ar    
   8 C8             2.7715    -0.7496    -0.5061 C.ar    
   9 C9             1.4969    -1.2549    -0.3678 C.ar    
  10 C10           -2.9452     0.8937     0.3397 C.ar    
  11 C11           -3.3416     2.2072     0.4686 C.ar    
  12 C12           -2.4110     3.2343     0.4069 C.ar    
  13 C13           -1.0744     2.9495     0.2232 C.ar    
  14 C14           -1.5711    -1.9340    -0.0069 C.3     
  15 C15           -1.6060    -2.4774     1.4229 C.3     
  16 O16           -0.2707    -2.7006     1.8804 O.3     
  17 C17           -2.3809    -3.7964     1.4484 C.3     
  18 N18           -2.4797    -4.2796     2.8322 N.3     
  19 C19           -3.4769    -3.5105     3.5885 C.3     
  20 C20           -2.7851    -5.7160     2.8676 C.3     
  21 Br21          -2.9762     5.0300     0.5855 Br      
  22 Br22           4.7547     1.2908    -0.6450 Br      
  23 H23           -2.0972    -1.7547     2.0744 H       
  24 H24            2.1231     2.5535    -0.2264 H       
  25 H25            3.6015    -1.4242    -0.6553 H       
  26 H26            1.3319    -2.3214    -0.4089 H       
  27 H27           -3.6779     0.1017     0.3890 H       
  28 H28           -4.3857     2.4390     0.6186 H       
  29 H29           -0.3514     3.7503     0.1757 H       
  30 H30           -2.5888    -1.8476    -0.3877 H       
  31 H31           -1.0026    -2.6148    -0.6406 H       
  32 H32            0.2273    -3.3345     1.3463 H       
  33 H33           -3.3817    -3.6376     1.0468 H       
  34 H34           -1.8590    -4.5363     0.8416 H       
  35 H35           -4.4520    -3.6125     3.1122 H       
  36 H36           -3.5297    -3.8889     4.6093 H       
  37 H37           -3.1888    -2.4594     3.6051 H       
  38 H38           -2.0330    -6.2616     2.2978 H       
  39 H39           -2.7805    -6.0631     3.9009 H       
  40 H40           -3.7685    -5.8893     2.4306 H       
@<TRIPOS>BOND
   1    1    2 ar
   2    1    6 ar
   3    1    5 1
   4    2    3 1
   5    2    9 ar
   6    3    4 1
   7    3   14 1
   8    4    5 ar
   9    4   10 ar
  10    5   13 ar
  11    6    7 ar
  12    6   24 1
  13    7    8 ar
  14    7   22 1
  15    8    9 ar
  16    8   25 1
  17    9   26 1
  18   10   11 ar
  19   10   27 1
  20   11   12 ar
  21   11   28 1
  22   12   13 ar
  23   12   21 1
  24   13   29 1
  25   14   15 1
  26   14   30 1
  27   14   31 1
  28   15   16 1
  29   15   17 1
  30   15   23 1
  31   16   32 1
  32   17   18 1
  33   17   33 1
  34   17   34 1
  35   18   19 1
  36   18   20 1
  37   19   35 1
  38   19   36 1
  39   19   37 1
  40   20   38 1
  41   20   39 1
  42   20   40 1

#	End of record

