#	Name: ASD01913054
#	Creating user name:	WinNT
#	Creation time:	15. 06. 2019 20:00

#	Modifying user name:	WinNT
#	Modification time:	15. 06. 2019 20:00

#	Program:	/corina/corina34_cracker 3.40 0067  02.08.2006

@<TRIPOS>MOLECULE
ASD01913054
  37   39    0    0    0
SMALL
NO_CHARGES


@<TRIPOS>ATOM
   1 C1            -0.0173     1.4278     0.0099 C.ar    
   2 C2             0.0021    -0.0041     0.0020 C.1     
   3 C3             0.0180    -1.1779    -0.0044 C.1     
   4 C4             0.0374    -2.6098    -0.0123 C.ar    
   5 C5            -1.2348     2.1223     0.0311 C.ar    
   6 C6            -1.1613    -3.3285    -0.0047 C.ar    
   7 C7            -1.1347    -4.7073    -0.0123 C.ar    
   8 C8             0.0750    -5.3793    -0.0275 C.ar    
   9 C9             1.2660    -4.6746    -0.0350 C.ar    
  10 C10            1.2552    -3.2955    -0.0334 C.ar    
  11 C11            1.1809     2.1552     0.0024 C.ar    
  12 N12            1.1675     3.4673     0.0095 N.ar    
  13 C13            0.0309     4.1560     0.0240 C.ar    
  14 C14           -1.2022     3.5035     0.0379 C.ar    
  15 C15            0.0740     5.6346     0.0315 C.2     
  16 O16           -0.9605     6.2727     0.0447 O.2     
  17 N17            1.2603     6.2742     0.0236 N.am    
  18 C18            1.3029     7.7386     0.0310 C.3     
  19 C19            2.6030     8.3140     0.6172 C.3     
  20 C20            2.5481     9.3681    -0.5012 C.3     
  21 C21            1.7316     8.3492    -1.3137 C.3     
  22 H22           -2.1750     1.5909     0.0415 H       
  23 H23           -2.1061    -2.8053     0.0074 H       
  24 H24           -2.0601    -5.2640    -0.0061 H       
  25 H25            0.0896    -6.4592    -0.0330 H       
  26 H26            2.2062    -5.2059    -0.0468 H       
  27 H27            2.1854    -2.7469    -0.0393 H       
  28 H28            2.1248     1.6304    -0.0091 H       
  29 H29           -2.1207     4.0715     0.0496 H       
  30 H30            2.0858     5.7650     0.0130 H       
  31 H31            0.4005     8.1862     0.4474 H       
  32 H32            2.4838     8.7316     1.6170 H       
  33 H33            3.4542     7.6378     0.5385 H       
  34 H34            1.9861    10.2622    -0.2314 H       
  35 H35            3.5216     9.5940    -0.9364 H       
  36 H36            2.3447     7.6826    -1.9203 H       
  37 H37            0.9090     8.7952    -1.8728 H       
@<TRIPOS>BOND
   1    1    2 1
   2    1   11 ar
   3    1    5 ar
   4    2    3 3
   5    3    4 1
   6    4    6 ar
   7    4   10 ar
   8    5   14 ar
   9    5   22 1
  10    6    7 ar
  11    6   23 1
  12    7    8 ar
  13    7   24 1
  14    8    9 ar
  15    8   25 1
  16    9   10 ar
  17    9   26 1
  18   10   27 1
  19   11   12 ar
  20   11   28 1
  21   12   13 ar
  22   13   14 ar
  23   13   15 1
  24   14   29 1
  25   15   16 2
  26   15   17 am
  27   17   18 1
  28   17   30 1
  29   18   19 1
  30   18   21 1
  31   18   31 1
  32   19   20 1
  33   19   32 1
  34   19   33 1
  35   20   21 1
  36   20   34 1
  37   20   35 1
  38   21   36 1
  39   21   37 1

#	End of record

