#	Name: ASD03910062
#	Creating user name:	WinNT
#	Creation time:	15. 06. 2019 20:47

#	Modifying user name:	WinNT
#	Modification time:	15. 06. 2019 20:47

#	Program:	/corina/corina34_cracker 3.40 0067  02.08.2006

@<TRIPOS>MOLECULE
ASD03910062
  66   68    0    0    0
SMALL
NO_CHARGES


@<TRIPOS>ATOM
   1 C1             1.2185     1.7378     0.7395 C.ar    
   2 C2             1.4786     0.6000     1.4811 C.ar    
   3 C3             0.4475    -0.0614     2.1226 C.ar    
   4 C4            -0.8460     0.4125     2.0240 C.ar    
   5 C5            -1.1105     1.5549     1.2800 C.ar    
   6 C6            -0.0719     2.2204     0.6420 C.ar    
   7 N7            -2.4199     2.0377     1.1781 N.am    
   8 C8            -2.6450     3.3643     1.1023 C.2     
   9 O9            -1.7222     4.1434     1.2147 O.2     
  10 C10           -4.0222     5.3859     0.8330 C.ar    
  11 C11           -3.8364     6.0379    -0.3721 C.ar    
  12 C12           -3.8224     7.4186    -0.4168 C.ar    
  13 C13           -3.9950     8.1509     0.7488 C.ar    
  14 C14           -4.1812     7.4944     1.9566 C.ar    
  15 C15           -4.1943     6.1136     1.9960 C.ar    
  16 O16           -3.9812     9.5092     0.7075 O.3     
  17 C17           -4.2071    10.1981     1.9390 C.3     
  18 C18           -5.5760     9.8640     2.4733 C.2     
  19 C19            2.3452     2.4555     0.0420 C.3     
  20 C20            0.7355    -1.3010     2.9298 C.3     
  21 O21           -5.7476     9.7423     3.6677 O.2     
  22 N22           -6.6095     9.7005     1.6239 N.am    
  23 C23           -4.0432     3.8798     0.8779 C.3     
  24 C24           -7.9157     9.2751     2.1329 C.3     
  25 C25           -7.9497     7.7719     2.2353 C.2     
  26 O26           -6.9821     7.1226     1.9158 O.2     
  27 O27           -9.0549     7.1544     2.6813 O.3     
  28 C28           -9.0136     9.7461     1.1770 C.3     
  29 C29           -3.1304     9.8075     2.9665 C.3     
  30 C30           -2.3861    11.1061     3.3402 C.3     
  31 C31           -3.4010    12.2313     3.0193 C.3     
  32 C32           -4.0808    11.7204     1.7238 C.3     
  33 S33           -8.9727    11.5555     1.0538 S.3     
  34 C34          -10.3228    11.9163    -0.1028 C.3     
  35 H35            2.4891     0.2270     1.5592 H       
  36 H36           -1.6509    -0.1049     2.5247 H       
  37 H37           -0.2743     3.1092     0.0629 H       
  38 H38           -3.1656     1.4175     1.1620 H       
  39 H39           -3.7018     5.4673    -1.2791 H       
  40 H40           -3.6769     7.9274    -1.3582 H       
  41 H41           -4.3154     8.0623     2.8654 H       
  42 H42           -4.3393     5.6020     2.9361 H       
  43 H43            2.4681     2.0496    -0.9622 H       
  44 H44            2.1144     3.5189    -0.0217 H       
  45 H45            3.2681     2.3171     0.6053 H       
  46 H46            0.9537    -1.0210     3.9604 H       
  47 H47           -0.1335    -1.9587     2.9082 H       
  48 H48            1.5946    -1.8200     2.5047 H       
  49 H49           -6.4885     9.8644     0.6755 H       
  50 H50           -4.4256     3.4934    -0.0668 H       
  51 H51           -4.6873     3.5495     1.6929 H       
  52 H52           -8.0809     9.7102     3.1185 H       
  53 H53           -9.0292     6.1890     2.7295 H       
  54 H54           -8.8485     9.3110     0.1914 H       
  55 H55           -9.9855     9.4296     1.5557 H       
  56 H56           -3.5980     9.3771     3.8521 H       
  57 H57           -2.4356     9.0926     2.5259 H       
  58 H58           -2.1349    11.1101     4.4008 H       
  59 H59           -1.4874    11.2187     2.7339 H       
  60 H60           -4.1304    12.3343     3.8227 H       
  61 H61           -2.8869    13.1755     2.8394 H       
  62 H62           -3.4560    11.9320     0.8561 H       
  63 H63           -5.0653    12.1731     1.6056 H       
  64 H64          -10.3929    12.9934    -0.2548 H       
  65 H65          -10.1249    11.4269    -1.0564 H       
  66 H66          -11.2619    11.5455     0.3080 H       
@<TRIPOS>BOND
   1    1    2 ar
   2    1   19 1
   3    1    6 ar
   4    2    3 ar
   5    2   35 1
   6    3    4 ar
   7    3   20 1
   8    4    5 ar
   9    4   36 1
  10    5    6 ar
  11    5    7 1
  12    6   37 1
  13    7    8 am
  14    7   38 1
  15    8    9 2
  16    8   23 1
  17   10   11 ar
  18   10   15 ar
  19   10   23 1
  20   11   12 ar
  21   11   39 1
  22   12   13 ar
  23   12   40 1
  24   13   14 ar
  25   13   16 1
  26   14   15 ar
  27   14   41 1
  28   15   42 1
  29   16   17 1
  30   17   18 1
  31   17   29 1
  32   17   32 1
  33   18   21 2
  34   18   22 am
  35   19   43 1
  36   19   44 1
  37   19   45 1
  38   20   46 1
  39   20   47 1
  40   20   48 1
  41   22   24 1
  42   22   49 1
  43   23   50 1
  44   23   51 1
  45   24   25 1
  46   24   28 1
  47   24   52 1
  48   25   26 2
  49   25   27 1
  50   27   53 1
  51   28   33 1
  52   28   54 1
  53   28   55 1
  54   29   30 1
  55   29   56 1
  56   29   57 1
  57   30   31 1
  58   30   58 1
  59   30   59 1
  60   31   32 1
  61   31   60 1
  62   31   61 1
  63   32   62 1
  64   32   63 1
  65   33   34 1
  66   34   64 1
  67   34   65 1
  68   34   66 1

#	End of record

