#	Name: ASD01911687
#	Creating user name:	WinNT
#	Creation time:	15. 06. 2019 19:58

#	Modifying user name:	WinNT
#	Modification time:	15. 06. 2019 19:58

#	Program:	/corina/corina34_cracker 3.40 0067  02.08.2006

@<TRIPOS>MOLECULE
ASD01911687
  39   41    0    0    0
SMALL
NO_CHARGES


@<TRIPOS>ATOM
   1 N1             0.0247     1.3165     0.2706 N.am    
   2 C2             0.0021    -0.0041     0.0020 C.2     
   3 C3            -1.2508    -0.7543     0.1205 C.2     
   4 C4            -1.3862    -2.1135     0.0310 C.2     
   5 S5            -2.8471    -0.0659     0.4110 S.3     
   6 C6            -3.5481    -1.6813     0.3771 C.2     
   7 N7            -2.6014    -2.5626     0.1691 N.2     
   8 C8            -4.9363    -1.9846     0.5542 C.1     
   9 C9            -6.0745    -2.2333     0.6993 C.1     
  10 C10           -7.4627    -2.5366     0.8764 C.ar    
  11 C11           -7.9039    -3.8625     0.8289 C.ar    
  12 C12           -9.2423    -4.1466     1.0008 C.ar    
  13 C13          -10.1481    -3.1233     1.2194 C.ar    
  14 C14           -9.7191    -1.8084     1.2677 C.ar    
  15 C15           -8.3831    -1.5088     1.1034 C.ar    
  16 O16            1.0224    -0.5733    -0.3390 O.2     
  17 C17            1.2952     2.0655     0.1843 C.3     
  18 C18            1.4002     2.7863    -1.0934 C.3     
  19 C19            0.2297     3.7714    -1.2797 C.3     
  20 C20           -0.9736     2.9954    -1.6482 C.2     
  21 C21           -1.9711     2.4850    -0.6047 C.3     
  22 C22           -1.1870     1.9953     0.6345 C.3     
  23 O23           -1.1772     2.7558    -2.8141 O.2     
  24 H24           -0.5446    -2.7679    -0.1422 H       
  25 H25           -7.1983    -4.6621     0.6577 H       
  26 H26           -9.5846    -5.1703     0.9644 H       
  27 H27          -11.1951    -3.3520     1.3526 H       
  28 H28          -10.4319    -1.0152     1.4383 H       
  29 H29           -8.0499    -0.4822     1.1413 H       
  30 H30            1.3440     2.7821     1.0041 H       
  31 H31            2.1281     1.3677     0.2707 H       
  32 H32            2.3391     3.3397    -1.1146 H       
  33 H33            1.3936     2.0657    -1.9111 H       
  34 H34            0.0497     4.3088    -0.3486 H       
  35 H35            0.4678     4.4795    -2.0734 H       
  36 H36           -2.6442     3.2927    -0.3172 H       
  37 H37           -2.5464     1.6590    -1.0228 H       
  38 H38           -1.8157     1.3128     1.2063 H       
  39 H39           -0.9364     2.8531     1.2586 H       
@<TRIPOS>BOND
   1    1    2 am
   2    1   17 1
   3    1   22 1
   4    2    3 1
   5    2   16 2
   6    3    4 2
   7    3    5 1
   8    4    7 1
   9    4   24 1
  10    5    6 1
  11    6    7 2
  12    6    8 1
  13    8    9 3
  14    9   10 1
  15   10   11 ar
  16   10   15 ar
  17   11   12 ar
  18   11   25 1
  19   12   13 ar
  20   12   26 1
  21   13   14 ar
  22   13   27 1
  23   14   15 ar
  24   14   28 1
  25   15   29 1
  26   17   18 1
  27   17   30 1
  28   17   31 1
  29   18   19 1
  30   18   32 1
  31   18   33 1
  32   19   20 1
  33   19   34 1
  34   19   35 1
  35   20   21 1
  36   20   23 2
  37   21   22 1
  38   21   36 1
  39   21   37 1
  40   22   38 1
  41   22   39 1

#	End of record

