#	Name: ASD04880345
#	Creating user name:	WinNT
#	Creation time:	15. 06. 2019 20:53

#	Modifying user name:	WinNT
#	Modification time:	15. 06. 2019 20:53

#	Program:	/corina/corina34_cracker 3.40 0067  02.08.2006

@<TRIPOS>MOLECULE
ASD04880345
  40   43    0    0    0
SMALL
NO_CHARGES


@<TRIPOS>ATOM
   1 C1            -0.0144     1.2118     0.0087 C.2     
   2 O2             0.0433    -0.0026     0.0315 O.2     
   3 N3             1.1187     1.9393    -0.0483 N.am    
   4 N4             1.1863     3.3237    -0.1911 N.2     
   5 C5             2.3897     3.7917    -0.2192 C.2     
   6 C6             3.3764     2.6540    -0.0841 C.3     
   7 C7             2.4858     1.4017     0.0365 C.3     
   8 O8             4.0019     5.6933    -0.3903 O.3     
   9 C9             2.7443     5.2075    -0.3603 C.2     
  10 C10            1.8546     6.2287    -0.4807 C.2     
  11 C11            2.6527     7.4500    -0.5945 C.ar    
  12 C12            3.9957     7.0358    -0.5297 C.ar    
  13 C13            2.3421     8.8035    -0.7406 C.ar    
  14 C14            3.3622     9.7318    -0.8211 C.ar    
  15 C15            4.6898     9.3192    -0.7567 C.ar    
  16 C16            5.0056     7.9850    -0.6125 C.ar    
  17 O17            3.0683    11.0518    -0.9639 O.3     
  18 C18            4.1711    11.9573    -1.0406 C.3     
  19 C19           -1.3272     1.8898     0.0373 C.ar    
  20 C20           -2.5036     1.1437    -0.0542 C.ar    
  21 C21           -3.7274     1.7843    -0.0268 C.ar    
  22 C22           -3.7872     3.1640     0.0912 C.ar    
  23 C23           -2.6243     3.9071     0.1816 C.ar    
  24 C24           -1.3962     3.2785     0.1617 C.ar    
  25 F25           -4.8674     1.0648    -0.1156 F       
  26 H26            4.0114     2.5918    -0.9678 H       
  27 H27            3.9810     2.7771     0.8144 H       
  28 H28            2.6445     0.9071     0.9947 H       
  29 H29            2.6794     0.7148    -0.7874 H       
  30 H30            0.7773     6.1537    -0.4904 H       
  31 H31            1.3115     9.1225    -0.7908 H       
  32 H32            5.4808    10.0518    -0.8208 H       
  33 H33            6.0399     7.6778    -0.5635 H       
  34 H34            4.7926    11.7011    -1.8986 H       
  35 H35            3.7981    12.9753    -1.1532 H       
  36 H36            4.7637    11.8862    -0.1286 H       
  37 H37           -2.4571     0.0687    -0.1465 H       
  38 H38           -4.7459     3.6608     0.1122 H       
  39 H39           -2.6778     4.9819     0.2730 H       
  40 H40           -0.4895     3.8603     0.2377 H       
@<TRIPOS>BOND
   1    1    2 2
   2    1    3 am
   3    1   19 1
   4    3    4 1
   5    3    7 1
   6    4    5 2
   7    5    6 1
   8    5    9 1
   9    6    7 1
  10    6   26 1
  11    6   27 1
  12    7   28 1
  13    7   29 1
  14    8    9 1
  15    8   12 1
  16    9   10 2
  17   10   11 1
  18   10   30 1
  19   11   12 ar
  20   11   13 ar
  21   12   16 ar
  22   13   14 ar
  23   13   31 1
  24   14   15 ar
  25   14   17 1
  26   15   16 ar
  27   15   32 1
  28   16   33 1
  29   17   18 1
  30   18   34 1
  31   18   35 1
  32   18   36 1
  33   19   20 ar
  34   19   24 ar
  35   20   21 ar
  36   20   37 1
  37   21   22 ar
  38   21   25 1
  39   22   23 ar
  40   22   38 1
  41   23   24 ar
  42   23   39 1
  43   24   40 1

#	End of record

