#	Name: ASD08070254
#	Creating user name:	WinNT
#	Creation time:	15. 06. 2019 21:14

#	Modifying user name:	WinNT
#	Modification time:	15. 06. 2019 21:14

#	Program:	/corina/corina34_cracker 3.40 0067  02.08.2006

@<TRIPOS>MOLECULE
ASD08070254
  43   45    0    0    0
SMALL
NO_CHARGES


@<TRIPOS>ATOM
   1 N1            -0.0452     1.3249    -0.2551 N.am    
   2 C2            -0.0051    -0.0222    -0.2566 C.2     
   3 O3            -1.0317    -0.6609    -0.3861 O.2     
   4 N4             1.1728    -0.6615    -0.1144 N.am    
   5 C5             1.2044    -2.0614    -0.0169 C.ar    
   6 C6             2.3950    -2.7493    -0.2403 C.ar    
   7 C7             2.4229    -4.1304    -0.1434 C.ar    
   8 C8             1.1562     2.1239     0.0094 C.3     
   9 C9             0.0519    -2.7605     0.3074 C.ar    
  10 C10            0.0829    -4.1391     0.4039 C.ar    
  11 C11            1.2659    -4.8259     0.1758 C.ar    
  12 C12            0.8209     3.2453     0.9604 C.ar    
  13 C13           -0.4760     3.5694     1.2893 C.ar    
  14 C14           -1.6674     2.8248     0.7467 C.3     
  15 C15           -1.2955     2.0543    -0.5251 C.3     
  16 C16            1.8735     3.9641     1.5110 C.ar    
  17 C17            1.6303     5.0066     2.3811 C.ar    
  18 C18            0.3281     5.3382     2.7065 C.ar    
  19 C19           -0.7181     4.6229     2.1629 C.ar    
  20 O20            3.5279    -2.0657    -0.5535 O.3     
  21 C21            4.7119    -2.8362    -0.7692 C.3     
  22 O22            1.2931    -6.1821     0.2710 O.3     
  23 C23            0.0671    -6.8334     0.6096 C.3     
  24 H24            1.9989    -0.1542    -0.0795 H       
  25 H25            3.3447    -4.6657    -0.3166 H       
  26 H26            1.9234     1.4893     0.4530 H       
  27 H27            1.5279     2.5409    -0.9266 H       
  28 H28           -0.8705    -2.2277     0.4852 H       
  29 H29           -0.8155    -4.6822     0.6574 H       
  30 H30           -2.0260     2.1241     1.5007 H       
  31 H31           -2.4595     3.5366     0.5142 H       
  32 H32           -1.1504     2.7520    -1.3499 H       
  33 H33           -2.0878     1.3482    -0.7735 H       
  34 H34            2.8905     3.7052     1.2558 H       
  35 H35            2.4536     5.5611     2.8066 H       
  36 H36            0.1307     6.1553     3.3846 H       
  37 H37           -1.7346     4.8841     2.4176 H       
  38 H38            5.5401    -2.1699    -1.0107 H       
  39 H39            4.9492    -3.3982     0.1341 H       
  40 H40            4.5495    -3.5282    -1.5956 H       
  41 H41            0.2277    -7.9106     0.6524 H       
  42 H42           -0.2766    -6.4784     1.5812 H       
  43 H43           -0.6850    -6.6079    -0.1464 H       
@<TRIPOS>BOND
   1    1    2 am
   2    1    8 1
   3    1   15 1
   4    2    3 2
   5    2    4 am
   6    4    5 1
   7    4   24 1
   8    5    6 ar
   9    5    9 ar
  10    6    7 ar
  11    6   20 1
  12    7   11 ar
  13    7   25 1
  14    8   12 1
  15    8   26 1
  16    8   27 1
  17    9   10 ar
  18    9   28 1
  19   10   11 ar
  20   10   29 1
  21   11   22 1
  22   12   13 ar
  23   12   16 ar
  24   13   14 1
  25   13   19 ar
  26   14   15 1
  27   14   30 1
  28   14   31 1
  29   15   32 1
  30   15   33 1
  31   16   17 ar
  32   16   34 1
  33   17   18 ar
  34   17   35 1
  35   18   19 ar
  36   18   36 1
  37   19   37 1
  38   20   21 1
  39   21   38 1
  40   21   39 1
  41   21   40 1
  42   22   23 1
  43   23   41 1
  44   23   42 1
  45   23   43 1

#	End of record

