#	Name: ASD03320182
#	Creating user name:	WinNT
#	Creation time:	15. 06. 2019 20:36

#	Modifying user name:	WinNT
#	Modification time:	15. 06. 2019 20:36

#	Program:	/corina/corina34_cracker 3.40 0067  02.08.2006

@<TRIPOS>MOLECULE
ASD03320182
  71   74    0    0    0
SMALL
NO_CHARGES


@<TRIPOS>ATOM
   1 C1             0.2958     1.0974    -0.0596 C.ar    
   2 C2             0.2238    -0.2944     0.0485 C.ar    
   3 C3            -0.9928    -0.9340    -0.0462 C.ar    
   4 C4            -2.1536    -0.2007    -0.2493 C.ar    
   5 C5            -2.0920     1.1942    -0.3589 C.ar    
   6 C6            -0.8679     1.8418    -0.2581 C.ar    
   7 C7             1.6007     1.7797     0.0422 C.2     
   8 O8             1.6627     2.9905    -0.0519 O.2     
   9 N9             2.7235     1.0607     0.2394 N.am    
  10 C10            3.9713     1.6964     0.2380 C.ar    
  11 C11           -3.3323     1.9785    -0.5766 C.ar    
  12 C12            4.0970     2.9812     0.7498 C.ar    
  13 C13            5.3278     3.6071     0.7485 C.ar    
  14 C14            6.4386     2.9529     0.2360 C.ar    
  15 C15            6.3137     1.6696    -0.2759 C.ar    
  16 C16            5.0846     1.0402    -0.2700 C.ar    
  17 O17            7.6502     3.5699     0.2350 O.3     
  18 C18            8.7507     2.8377    -0.3079 C.3     
  19 F19            8.4875     2.5241    -1.6457 F       
  20 F20            9.9114     3.6149    -0.2308 F       
  21 F21            8.9306     1.6573     0.4211 F       
  22 O22           -3.3489    -0.8357    -0.3422 O.3     
  23 C23           -3.6314     3.0852     0.2221 C.ar    
  24 N24           -4.7472     3.7564    -0.0063 N.ar    
  25 C25           -5.5707     3.3947    -0.9701 C.ar    
  26 N26           -5.3264     2.3574    -1.7462 N.ar    
  27 C27           -4.2308     1.6344    -1.5898 C.ar    
  28 C28           -3.3381    -2.2596    -0.2218 C.3     
  29 C29           -4.7662    -2.7931    -0.3516 C.3     
  30 N30           -5.2808    -2.4933    -1.6945 N.3     
  31 C31           -6.6175    -3.0725    -1.8877 C.3     
  32 C32           -7.1499    -2.6717    -3.2655 C.3     
  33 N33           -6.2207    -3.1414    -4.3025 N.3     
  34 C34           -4.8840    -2.5622    -4.1093 C.3     
  35 C35           -4.3515    -2.9631    -2.7315 C.3     
  36 C36           -6.7352    -2.8416    -5.6454 C.3     
  37 C37           -5.6996    -3.2558    -6.6926 C.3     
  38 C38           -5.4782    -4.7680    -6.6207 C.3     
  39 C39           -6.2056    -2.8801    -8.0868 C.3     
  40 H40            1.1241    -0.8698     0.2062 H       
  41 H41           -1.0434    -2.0096     0.0376 H       
  42 H42           -0.8153     2.9172    -0.3420 H       
  43 H43            2.6673     0.1030     0.3824 H       
  44 H44            3.2323     3.4908     1.1485 H       
  45 H45            5.4257     4.6065     1.1462 H       
  46 H46            7.1788     1.1610    -0.6750 H       
  47 H47            4.9876     0.0410    -0.6682 H       
  48 H48           -2.9618     3.3874     1.0138 H       
  49 H49           -6.4736     3.9656    -1.1285 H       
  50 H50           -4.0375     0.7860    -2.2295 H       
  51 H51           -2.7178    -2.6862    -1.0100 H       
  52 H52           -2.9329    -2.5389     0.7508 H       
  53 H53           -4.7667    -3.8718    -0.1948 H       
  54 H54           -5.4013    -2.3171     0.3955 H       
  55 H55           -6.5558    -4.1589    -1.8236 H       
  56 H56           -7.2904    -2.7000    -1.1153 H       
  57 H57           -8.1291    -3.1241    -3.4226 H       
  58 H58           -7.2373    -1.5866    -3.3200 H       
  59 H59           -4.2111    -2.9348    -4.8817 H       
  60 H60           -4.9456    -1.4759    -4.1734 H       
  61 H61           -3.3724    -2.5107    -2.5743 H       
  62 H62           -4.2641    -4.0482    -2.6770 H       
  63 H63           -7.6605    -3.3933    -5.8115 H       
  64 H64           -6.9296    -1.7724    -5.7297 H       
  65 H65           -4.7589    -2.7412    -6.4966 H       
  66 H66           -6.4189    -5.2826    -6.8167 H       
  67 H67           -4.7404    -5.0631    -7.3668 H       
  68 H68           -5.1177    -5.0357    -5.6275 H       
  69 H69           -7.1877    -3.3244    -8.2488 H       
  70 H70           -6.2799    -1.7956    -8.1663 H       
  71 H71           -5.5097    -3.2527    -8.8385 H       
@<TRIPOS>BOND
   1    1    2 ar
   2    1    7 1
   3    1    6 ar
   4    2    3 ar
   5    2   40 1
   6    3    4 ar
   7    3   41 1
   8    4    5 ar
   9    4   22 1
  10    5    6 ar
  11    5   11 1
  12    6   42 1
  13    7    8 2
  14    7    9 am
  15    9   10 1
  16    9   43 1
  17   10   12 ar
  18   10   16 ar
  19   11   23 ar
  20   11   27 ar
  21   12   13 ar
  22   12   44 1
  23   13   14 ar
  24   13   45 1
  25   14   15 ar
  26   14   17 1
  27   15   16 ar
  28   15   46 1
  29   16   47 1
  30   17   18 1
  31   18   19 1
  32   18   20 1
  33   18   21 1
  34   22   28 1
  35   23   24 ar
  36   23   48 1
  37   24   25 ar
  38   25   26 ar
  39   25   49 1
  40   26   27 ar
  41   27   50 1
  42   28   29 1
  43   28   51 1
  44   28   52 1
  45   29   30 1
  46   29   53 1
  47   29   54 1
  48   30   31 1
  49   30   35 1
  50   31   32 1
  51   31   55 1
  52   31   56 1
  53   32   33 1
  54   32   57 1
  55   32   58 1
  56   33   34 1
  57   33   36 1
  58   34   35 1
  59   34   59 1
  60   34   60 1
  61   35   61 1
  62   35   62 1
  63   36   37 1
  64   36   63 1
  65   36   64 1
  66   37   38 1
  67   37   39 1
  68   37   65 1
  69   38   66 1
  70   38   67 1
  71   38   68 1
  72   39   69 1
  73   39   70 1
  74   39   71 1

#	End of record

