#	Name: ASD01940427
#	Creating user name:	WinNT
#	Creation time:	15. 06. 2019 20:12

#	Modifying user name:	WinNT
#	Modification time:	15. 06. 2019 20:12

#	Program:	/corina/corina34_cracker 3.40 0067  02.08.2006

@<TRIPOS>MOLECULE
ASD01940427
  58   61    0    0    0
SMALL
NO_CHARGES


@<TRIPOS>ATOM
   1 N1             2.1052     1.8814    -2.6871 N.am    
   2 N2             2.4127     0.6203    -3.2082 N.2     
   3 C3             3.0267    -0.0968    -2.3122 C.2     
   4 C4             3.1539     0.7086    -1.1009 C.ar    
   5 C5             3.7131     0.4761     0.1665 C.ar    
   6 C6             3.6711     1.4759     1.1262 C.ar    
   7 C7             3.0771     2.7047     0.8347 C.ar    
   8 C8             2.5242     2.9402    -0.4106 C.ar    
   9 C9             2.5573     1.9501    -1.3857 C.ar    
  10 C10            1.4747     2.8707    -3.3506 C.2     
  11 O11            1.2582     3.9306    -2.7983 O.2     
  12 O12            1.0849     2.6841    -4.6255 O.3     
  13 O13            3.0413     3.6782     1.7832 O.3     
  14 C14            2.5111     4.9462     1.3919 C.3     
  15 N15            4.3074    -0.7543     0.4582 N.pl3   
  16 C16            3.5088    -1.8662     0.7438 C.ar    
  17 C17            4.0991    -3.0835     1.0696 C.ar    
  18 C18            3.3060    -4.1801     1.3512 C.ar    
  19 C19            1.9274    -4.0673     1.3092 C.ar    
  20 C20            1.3388    -2.8586     0.9852 C.ar    
  21 C21            2.1254    -1.7567     0.7086 C.ar    
  22 I22            0.7292    -5.7318     1.7366 I       
  23 F23            5.4450    -3.1935     1.1102 F       
  24 N24            4.2281     1.2510     2.3970 N.am    
  25 S25            3.2626     1.2844     3.7420 S.o2    
  26 O26            4.1437     0.9769     4.8136 O.2     
  27 O27            2.6065     2.5429     3.6711 O.2     
  28 C28            2.0792    -0.0659     3.4834 C.3     
  29 C29            1.0615    -0.3355     4.5934 C.3     
  30 C30            0.6101     0.3111     3.2823 C.3     
  31 C31            0.4115     3.7928    -5.2779 C.3     
  32 C32            1.3402     5.0084    -5.3056 C.3     
  33 C33            0.0470     3.3966    -6.7100 C.3     
  34 C34           -0.8623     4.1416    -4.5054 C.3     
  35 H35            3.3796    -1.1093    -2.4417 H       
  36 H36            2.0666     3.8944    -0.6260 H       
  37 H37            1.4563     4.8368     1.1397 H       
  38 H38            2.6166     5.6536     2.2144 H       
  39 H39            3.0560     5.3154     0.5230 H       
  40 H40            5.2738    -0.8373     0.4626 H       
  41 H41            3.7627    -5.1256     1.6039 H       
  42 H42            0.2626    -2.7745     0.9530 H       
  43 H43            1.6642    -0.8120     0.4607 H       
  44 H44            5.1781     1.0761     2.4861 H       
  45 H45            2.4592    -0.9244     2.9295 H       
  46 H46            0.7715    -1.3714     4.7696 H       
  47 H47            1.1029     0.2984     5.4791 H       
  48 H48            0.3547     1.3705     3.3055 H       
  49 H49            0.0232    -0.2993     2.5960 H       
  50 H50            2.2476     4.7599    -5.8560 H       
  51 H51            0.8347     5.8407    -5.7953 H       
  52 H52            1.5998     5.2907    -4.2853 H       
  53 H53           -0.6145     2.5306    -6.6903 H       
  54 H54           -0.4585     4.2289    -7.1998 H       
  55 H55            0.9545     3.1481    -7.2604 H       
  56 H56           -0.6026     4.4239    -3.4851 H       
  57 H57           -1.3678     4.9739    -4.9951 H       
  58 H58           -1.5238     3.2756    -4.4856 H       
@<TRIPOS>BOND
   1    1    2 1
   2    1    9 1
   3    1   10 am
   4    2    3 2
   5    3    4 1
   6    3   35 1
   7    4    5 ar
   8    4    9 ar
   9    5    6 ar
  10    5   15 1
  11    6    7 ar
  12    6   24 1
  13    7    8 ar
  14    7   13 1
  15    8    9 ar
  16    8   36 1
  17   10   11 2
  18   10   12 1
  19   12   31 1
  20   13   14 1
  21   14   37 1
  22   14   38 1
  23   14   39 1
  24   15   16 1
  25   15   40 1
  26   16   17 ar
  27   16   21 ar
  28   17   18 ar
  29   17   23 1
  30   18   19 ar
  31   18   41 1
  32   19   20 ar
  33   19   22 1
  34   20   21 ar
  35   20   42 1
  36   21   43 1
  37   24   25 am
  38   24   44 1
  39   25   26 2
  40   25   27 2
  41   25   28 1
  42   28   29 1
  43   28   30 1
  44   28   45 1
  45   29   30 1
  46   29   46 1
  47   29   47 1
  48   30   48 1
  49   30   49 1
  50   31   32 1
  51   31   34 1
  52   31   33 1
  53   32   50 1
  54   32   51 1
  55   32   52 1
  56   33   53 1
  57   33   54 1
  58   33   55 1
  59   34   56 1
  60   34   57 1
  61   34   58 1

#	End of record

