#	Name: ASD05842020
#	Creating user name:	WinNT
#	Creation time:	15. 06. 2019 21:03

#	Modifying user name:	WinNT
#	Modification time:	15. 06. 2019 21:03

#	Program:	/corina/corina34_cracker 3.40 0067  02.08.2006

@<TRIPOS>MOLECULE
ASD05842020
  35   36    0    0    0
SMALL
NO_CHARGES


@<TRIPOS>ATOM
   1 C1            -0.0167     1.3781     0.0096 C.ar    
   2 C2             0.0021    -0.0041     0.0020 C.ar    
   3 C3            -1.1855    -0.7115     0.0095 C.ar    
   4 C4            -2.3919    -0.0367     0.0251 C.ar    
   5 C5            -2.4106     1.3455     0.0336 C.ar    
   6 C6            -1.2230     2.0529     0.0305 C.ar    
   7 C7             1.2780     2.1493     0.0014 C.3     
   8 N8             1.6844     2.4066    -1.3824 N.pl3   
   9 C9             1.2384     3.6253    -2.0622 C.3     
  10 C10            2.2561     4.7429    -1.8255 C.3     
  11 C11            1.7973     5.9965    -2.5249 C.ar    
  12 C12            0.9931     6.9036    -1.8606 C.ar    
  13 C13            0.5722     8.0535    -2.5021 C.ar    
  14 C14            0.9560     8.2965    -3.8077 C.ar    
  15 C15            1.7610     7.3898    -4.4717 C.ar    
  16 C16            2.1854     6.2420    -3.8287 C.ar    
  17 C17            2.4727     1.5175    -2.0335 C.1     
  18 C18            3.1558     0.7471    -2.5976 C.1     
  19 H19            0.9446    -0.5313    -0.0101 H       
  20 H20           -1.1709    -1.7913     0.0029 H       
  21 H21           -3.3198    -0.5893     0.0302 H       
  22 H22           -3.3531     1.8728     0.0454 H       
  23 H23           -1.2376     3.1328     0.0372 H       
  24 H24            1.1397     3.0971     0.5217 H       
  25 H25            2.0505     1.5679     0.5048 H       
  26 H26            1.1514     3.4336    -3.1317 H       
  27 H27            0.2685     3.9275    -1.6672 H       
  28 H28            2.3431     4.9346    -0.7560 H       
  29 H29            3.2260     4.4407    -2.2205 H       
  30 H30            0.6932     6.7138    -0.8406 H       
  31 H31           -0.0567     8.7618    -1.9834 H       
  32 H32            0.6266     9.1945    -4.3092 H       
  33 H33            2.0605     7.5795    -5.4918 H       
  34 H34            2.8144     5.5337    -4.3474 H       
  35 H35            3.7667     0.0581    -3.1022 H       
@<TRIPOS>BOND
   1    1    2 ar
   2    1    7 1
   3    1    6 ar
   4    2    3 ar
   5    2   19 1
   6    3    4 ar
   7    3   20 1
   8    4    5 ar
   9    4   21 1
  10    5    6 ar
  11    5   22 1
  12    6   23 1
  13    7    8 1
  14    7   24 1
  15    7   25 1
  16    8    9 1
  17    8   17 1
  18    9   10 1
  19    9   26 1
  20    9   27 1
  21   10   11 1
  22   10   28 1
  23   10   29 1
  24   11   12 ar
  25   11   16 ar
  26   12   13 ar
  27   12   30 1
  28   13   14 ar
  29   13   31 1
  30   14   15 ar
  31   14   32 1
  32   15   16 ar
  33   15   33 1
  34   16   34 1
  35   17   18 3
  36   18   35 1

#	End of record

