#	Name: ASD01916646
#	Creating user name:	WinNT
#	Creation time:	15. 06. 2019 20:07

#	Modifying user name:	WinNT
#	Modification time:	15. 06. 2019 20:07

#	Program:	/corina/corina34_cracker 3.40 0067  02.08.2006

@<TRIPOS>MOLECULE
ASD01916646
  22   23    0    0    0
SMALL
NO_CHARGES


@<TRIPOS>ATOM
   1 S1            -0.0211     1.7022     0.0114 S.3     
   2 C2             0.0021    -0.0041     0.0020 C.2     
   3 N3             1.1983    -0.4573    -0.0118 N.2     
   4 C4             2.2084     0.4332    -0.0167 C.ar    
   5 C5             1.7390     1.7516    -0.0051 C.ar    
   6 C6             2.6368     2.8166    -0.0080 C.ar    
   7 C7             3.9920     2.5733    -0.0222 C.ar    
   8 C8             4.4640     1.2686    -0.0338 C.ar    
   9 C9             3.6006     0.2150    -0.0319 C.ar    
  10 C10           -1.2322    -0.8687     0.0096 C.3     
  11 C11           -1.6355    -1.1691     1.4546 C.3     
  12 C12           -2.8411    -2.0137     1.4620 C.1     
  13 C13           -3.8026    -2.6873     1.4679 C.1     
  14 H14            2.2702     3.8324     0.0006 H       
  15 H15            4.6883     3.3988    -0.0248 H       
  16 H16            5.5284     1.0862    -0.0449 H       
  17 H17            3.9854    -0.7941    -0.0410 H       
  18 H18           -2.0454    -0.3456    -0.4934 H       
  19 H19           -1.0242    -1.8034    -0.5113 H       
  20 H20           -0.8223    -1.6923     1.9576 H       
  21 H21           -1.8435    -0.2345     1.9755 H       
  22 H22           -4.6626    -3.2898     1.4732 H       
@<TRIPOS>BOND
   1    1    2 1
   2    1    5 1
   3    2    3 2
   4    2   10 1
   5    3    4 1
   6    4    5 ar
   7    4    9 ar
   8    5    6 ar
   9    6    7 ar
  10    6   14 1
  11    7    8 ar
  12    7   15 1
  13    8    9 ar
  14    8   16 1
  15    9   17 1
  16   10   11 1
  17   10   18 1
  18   10   19 1
  19   11   12 1
  20   11   20 1
  21   11   21 1
  22   12   13 3
  23   13   22 1

#	End of record

