#	Name: ASD09740702
#	Creating user name:	WinNT
#	Creation time:	15. 06. 2019 21:23

#	Modifying user name:	WinNT
#	Modification time:	15. 06. 2019 21:23

#	Program:	/corina/corina34_cracker 3.40 0067  02.08.2006

@<TRIPOS>MOLECULE
ASD09740702
  57   60    0    0    0
SMALL
NO_CHARGES


@<TRIPOS>ATOM
   1 C1            -1.3069     1.0875     1.5497 C.3     
   2 C2            -1.5732    -0.4079     1.7332 C.3     
   3 O3            -2.9609    -0.6743     1.5202 O.3     
   4 S4             0.4546     1.4256     1.8200 S.o2    
   5 O5             0.7963     1.2294     3.1853 O.2     
   6 O6             1.2372     0.8557     0.7798 O.2     
   7 N7             0.6014     3.0594     1.5931 N.am    
   8 C8            -0.0641     3.9889     2.5093 C.3     
   9 C9            -0.5500     5.2387     1.7449 C.3     
  10 C10           -0.3572     6.3596     2.7884 C.3     
  11 C11            0.7511     5.8695     3.6951 C.ar    
  12 C12            1.5573     6.5673     4.5995 C.ar    
  13 C13            2.5271     5.8869     5.3352 C.ar    
  14 C14            2.6860     4.5267     5.1663 C.ar    
  15 C15            1.8868     3.8415     4.2707 C.ar    
  16 C16            0.9197     4.5098     3.5354 C.ar    
  17 S17            2.3071     9.0579     5.8664 S.3     
  18 C18            1.3823     8.0245     4.7752 C.2     
  19 N19            0.5163     8.7756     4.1502 N.2     
  20 N20            0.5042    10.0067     4.4233 N.2     
  21 C21            1.3591    10.4389     5.3113 C.2     
  22 C22            1.5066    11.8364     5.7693 C.ar    
  23 C23            0.6868    12.8317     5.2434 C.ar    
  24 C24            0.8304    14.1480     5.6791 C.ar    
  25 C25            1.7997    14.4603     6.6442 C.ar    
  26 C26            2.6110    13.4605     7.1612 C.ar    
  27 C27            2.4651    12.1580     6.7346 C.ar    
  28 O28            1.9441    15.7398     7.0715 O.3     
  29 C29            3.0279    16.0075     7.9635 C.3     
  30 C30            3.4291    17.4797     7.8511 C.3     
  31 C31            2.5934    15.7054     9.3990 C.3     
  32 C32           -0.0081    15.1778     5.1433 C.1     
  33 N33           -0.6733    15.9948     4.7182 N.1     
  34 H34           -1.5827     1.3842     0.5377 H       
  35 H35           -1.8999     1.6530     2.2684 H       
  36 H36           -0.9802    -0.9735     1.0144 H       
  37 H37           -1.2974    -0.7046     2.7451 H       
  38 H38           -3.2027    -1.6052     1.6205 H       
  39 H39            1.1279     3.4010     0.8535 H       
  40 H40           -0.9024     3.4984     3.0039 H       
  41 H41            0.0668     5.4186     0.8643 H       
  42 H42           -1.6004     5.1411     1.4704 H       
  43 H43           -0.0620     7.2868     2.2973 H       
  44 H44           -1.2744     6.5078     3.3582 H       
  45 H45            3.1519     6.4228     6.0344 H       
  46 H46            3.4361     3.9968     5.7345 H       
  47 H47            2.0167     2.7770     4.1426 H       
  48 H48           -0.0572    12.5847     4.5005 H       
  49 H49            3.3565    13.7031     7.9040 H       
  50 H50            3.0968    11.3838     7.1444 H       
  51 H51            3.8783    15.3781     7.7011 H       
  52 H52            2.5787    18.1091     8.1134 H       
  53 H53            4.2558    17.6839     8.5315 H       
  54 H54            3.7386    17.6949     6.8284 H       
  55 H55            2.3076    14.6566     9.4791 H       
  56 H56            3.4202    15.9097    10.0794 H       
  57 H57            1.7430    16.3348     9.6613 H       
@<TRIPOS>BOND
   1    1    2 1
   2    1    4 1
   3    1   34 1
   4    1   35 1
   5    2    3 1
   6    2   36 1
   7    2   37 1
   8    3   38 1
   9    4    5 2
  10    4    6 2
  11    4    7 am
  12    7    8 1
  13    7   39 1
  14    8    9 1
  15    8   16 1
  16    8   40 1
  17    9   10 1
  18    9   41 1
  19    9   42 1
  20   10   11 1
  21   10   43 1
  22   10   44 1
  23   11   12 ar
  24   11   16 ar
  25   12   13 ar
  26   12   18 1
  27   13   14 ar
  28   13   45 1
  29   14   15 ar
  30   14   46 1
  31   15   16 ar
  32   15   47 1
  33   17   18 1
  34   17   21 1
  35   18   19 2
  36   19   20 1
  37   20   21 2
  38   21   22 1
  39   22   23 ar
  40   22   27 ar
  41   23   24 ar
  42   23   48 1
  43   24   25 ar
  44   24   32 1
  45   25   26 ar
  46   25   28 1
  47   26   27 ar
  48   26   49 1
  49   27   50 1
  50   28   29 1
  51   29   30 1
  52   29   31 1
  53   29   51 1
  54   30   52 1
  55   30   53 1
  56   30   54 1
  57   31   55 1
  58   31   56 1
  59   31   57 1
  60   32   33 3

#	End of record

