#	Name: ASD03540093
#	Creating user name:	WinNT
#	Creation time:	15. 06. 2019 20:42

#	Modifying user name:	WinNT
#	Modification time:	15. 06. 2019 20:42

#	Program:	/corina/corina34_cracker 3.40 0067  02.08.2006

@<TRIPOS>MOLECULE
ASD03540093
  52   54    0    0    0
SMALL
NO_CHARGES


@<TRIPOS>ATOM
   1 C1            -0.0180     1.4732     0.0101 C.2     
   2 C2             0.0021    -0.0041     0.0020 C.ar    
   3 C3             1.2173    -0.6860    -0.0132 C.ar    
   4 C4             1.2270    -2.0795    -0.0203 C.ar    
   5 C5             2.5105    -2.8109    -0.0360 C.2     
   6 C6             0.0198    -2.7834    -0.0121 C.ar    
   7 C7            -1.1806    -2.1014     0.0026 C.ar    
   8 C8            -1.1975    -0.7208     0.0155 C.ar    
   9 O9             1.0256     2.0948     0.0035 O.2     
  10 O10           -1.1936     2.1308     0.0193 O.3     
  11 O11            3.5590    -2.1976    -0.0428 O.2     
  12 O12            2.5181    -4.1579    -0.0429 O.3     
  13 C13           -1.1373     3.5817     0.0269 C.3     
  14 C14           -2.5375     4.1387     0.0366 C.ar    
  15 C15           -3.1731     4.3873     1.2391 C.ar    
  16 C16           -4.4567     4.8979     1.2506 C.ar    
  17 C17           -5.1080     5.1612     0.0543 C.ar    
  18 C18           -4.4681     4.9109    -1.1509 C.ar    
  19 C19           -3.1823     4.4056    -1.1570 C.ar    
  20 O20           -6.3709     5.6631     0.0630 O.3     
  21 C21           -6.9797     5.9099    -1.2060 C.3     
  22 C22            3.8155    -4.8098    -0.0583 C.3     
  23 C23            3.6264    -6.3049    -0.0640 C.ar    
  24 C24            3.5286    -6.9835    -1.2647 C.ar    
  25 C25            3.3553    -8.3541    -1.2726 C.ar    
  26 C26            3.2794    -9.0494    -0.0746 C.ar    
  27 C27            3.3778    -8.3661     1.1288 C.ar    
  28 C28            3.5567    -6.9963     1.1313 C.ar    
  29 O29            3.1085   -10.3976    -0.0797 O.3     
  30 C30            3.0390   -11.0476     1.1910 C.3     
  31 H31            2.1473    -0.1370    -0.0199 H       
  32 H32            0.0259    -3.8634    -0.0176 H       
  33 H33           -2.1106    -2.6504     0.0085 H       
  34 H34           -2.1399    -0.1936     0.0318 H       
  35 H35           -0.6055     3.9200     0.9162 H       
  36 H36           -0.6140     3.9297    -0.8637 H       
  37 H37           -2.6658     4.1818     2.1701 H       
  38 H38           -4.9528     5.0916     2.1901 H       
  39 H39           -4.9730     5.1151    -2.0835 H       
  40 H40           -2.6820     4.2151    -2.0950 H       
  41 H41           -7.9832     6.3081    -1.0563 H       
  42 H42           -6.3814     6.6319    -1.7618 H       
  43 H43           -7.0388     4.9778    -1.7680 H       
  44 H44            4.3625    -4.5093    -0.9519 H       
  45 H45            4.3791    -4.5182     0.8279 H       
  46 H46            3.5875    -6.4417    -2.1971 H       
  47 H47            3.2786    -8.8837    -2.2107 H       
  48 H48            3.3190    -8.9052     2.0628 H       
  49 H49            3.6382    -6.4645     2.0678 H       
  50 H50            2.9018   -12.1189     1.0441 H       
  51 H51            3.9641   -10.8718     1.7401 H       
  52 H52            2.1983   -10.6480     1.7581 H       
@<TRIPOS>BOND
   1    1    2 1
   2    1    9 2
   3    1   10 1
   4    2    3 ar
   5    2    8 ar
   6    3    4 ar
   7    3   31 1
   8    4    5 1
   9    4    6 ar
  10    5   11 2
  11    5   12 1
  12    6    7 ar
  13    6   32 1
  14    7    8 ar
  15    7   33 1
  16    8   34 1
  17   10   13 1
  18   12   22 1
  19   13   14 1
  20   13   35 1
  21   13   36 1
  22   14   15 ar
  23   14   19 ar
  24   15   16 ar
  25   15   37 1
  26   16   17 ar
  27   16   38 1
  28   17   18 ar
  29   17   20 1
  30   18   19 ar
  31   18   39 1
  32   19   40 1
  33   20   21 1
  34   21   41 1
  35   21   42 1
  36   21   43 1
  37   22   23 1
  38   22   44 1
  39   22   45 1
  40   23   24 ar
  41   23   28 ar
  42   24   25 ar
  43   24   46 1
  44   25   26 ar
  45   25   47 1
  46   26   27 ar
  47   26   29 1
  48   27   28 ar
  49   27   48 1
  50   28   49 1
  51   29   30 1
  52   30   50 1
  53   30   51 1
  54   30   52 1

#	End of record

