#	Name: ASD04590883
#	Creating user name:	WinNT
#	Creation time:	15. 06. 2019 20:51

#	Modifying user name:	WinNT
#	Modification time:	15. 06. 2019 20:51

#	Program:	/corina/corina34_cracker 3.40 0067  02.08.2006

@<TRIPOS>MOLECULE
ASD04590883
  72   77    0    0    0
SMALL
NO_CHARGES


@<TRIPOS>ATOM
   1 N1            -2.3782    -2.7058     0.0204 N.ar    
   2 C2            -1.2117    -2.0738     0.0040 C.ar    
   3 N3            -0.0573    -2.7202    -0.0182 N.ar    
   4 C4            -0.0259    -4.0495    -0.0245 C.ar    
   5 C5            -1.2486    -4.7504    -0.0070 C.ar    
   6 C6            -2.4370    -4.0273     0.0156 C.ar    
   7 N7             0.9980    -4.9638    -0.0457 N.pl3   
   8 C8             0.4950    -6.2534    -0.0428 C.ar    
   9 C9            -0.9092    -6.1791    -0.0189 C.ar    
  10 C10            1.0915    -7.5075    -0.0583 C.ar    
  11 N11            0.3552    -8.6000    -0.0506 N.ar    
  12 C12           -0.9655    -8.5647    -0.0283 C.ar    
  13 C13           -1.6436    -7.3644    -0.0113 C.ar    
  14 C14            2.4226    -4.6227    -0.0686 C.3     
  15 C15            2.7454    -3.7914    -1.3225 C.3     
  16 C16            3.2821    -2.4334    -0.8249 C.3     
  17 C17            3.8153    -2.7341     0.5979 C.3     
  18 C18            2.7744    -3.7409     1.1474 C.3     
  19 N19           -1.2019    -0.6887     0.0098 N.pl3   
  20 C20           -2.4013     0.0175    -0.0802 C.ar    
  21 N21           -3.5340    -0.6390    -0.2721 N.ar    
  22 C22           -4.6918    -0.0124    -0.3634 C.ar    
  23 C23           -4.7605     1.3688    -0.2608 C.ar    
  24 C24           -3.5874     2.0945    -0.0583 C.ar    
  25 C25           -2.3937     1.4030     0.0384 C.ar    
  26 N26           -5.9924     2.0264    -0.3597 N.3     
  27 C27           -7.0853     1.0679    -0.5714 C.3     
  28 C28           -8.4275     1.8031    -0.4931 C.3     
  29 N29           -8.3980     2.9311    -1.4365 N.am    
  30 C30           -7.2590     3.8596    -1.3757 C.3     
  31 C31           -5.9628     3.0434    -1.4193 C.3     
  32 O32           -9.3438     4.1482    -3.1881 O.3     
  33 C33          -10.4449     4.2781    -4.1257 C.3     
  34 C34          -11.7561     4.4379    -3.3535 C.3     
  35 C35          -10.2203     5.5070    -5.0090 C.3     
  36 C36          -10.5186     3.0265    -5.0024 C.3     
  37 C37           -9.3888     3.1094    -2.3327 C.2     
  38 O38          -10.3225     2.3328    -2.3686 O.2     
  39 H39           -3.3898    -4.5356     0.0290 H       
  40 H40            2.1683    -7.5879    -0.0770 H       
  41 H41           -1.5222    -9.4902    -0.0233 H       
  42 H42           -2.7232    -7.3426     0.0072 H       
  43 H43            3.0241    -5.5316    -0.0581 H       
  44 H44            3.5042    -4.2965    -1.9202 H       
  45 H45            1.8422    -3.6418    -1.9141 H       
  46 H46            4.0891    -2.0831    -1.4685 H       
  47 H47            2.4790    -1.6977    -0.7837 H       
  48 H48            4.8050    -3.1884     0.5516 H       
  49 H49            3.8331    -1.8278     1.2033 H       
  50 H50            1.8892    -3.2163     1.5070 H       
  51 H51            3.2107    -4.3447     1.9430 H       
  52 H52           -0.3610    -0.2099     0.0765 H       
  53 H53           -5.5960    -0.5817    -0.5203 H       
  54 H54           -3.6110     3.1710     0.0253 H       
  55 H55           -1.4660     1.9332     0.1955 H       
  56 H56           -6.9797     0.6071    -1.5536 H       
  57 H57           -7.0473     0.2971     0.1984 H       
  58 H58           -9.2345     1.1217    -0.7622 H       
  59 H59           -8.5819     2.1764     0.5193 H       
  60 H60           -7.2934     4.5377    -2.2284 H       
  61 H61           -7.3011     4.4306    -0.4482 H       
  62 H62           -5.1107     3.7053    -1.2644 H       
  63 H63           -5.8729     2.5551    -2.3896 H       
  64 H64          -11.7035     5.3296    -2.7289 H       
  65 H65          -12.5826     4.5355    -4.0573 H       
  66 H66          -11.9161     3.5624    -2.7242 H       
  67 H67           -9.2862     5.3932    -5.5591 H       
  68 H68          -11.0468     5.6046    -5.7128 H       
  69 H69          -10.1677     6.3988    -4.3843 H       
  70 H70          -10.6787     2.1510    -4.3731 H       
  71 H71          -11.3452     3.1240    -5.7062 H       
  72 H72           -9.5845     2.9126    -5.5525 H       
@<TRIPOS>BOND
   1    1    2 ar
   2    1    6 ar
   3    2    3 ar
   4    2   19 1
   5    3    4 ar
   6    4    5 ar
   7    4    7 1
   8    5    6 ar
   9    5    9 1
  10    6   39 1
  11    7    8 1
  12    7   14 1
  13    8    9 ar
  14    8   10 ar
  15    9   13 ar
  16   10   11 ar
  17   10   40 1
  18   11   12 ar
  19   12   13 ar
  20   12   41 1
  21   13   42 1
  22   14   15 1
  23   14   18 1
  24   14   43 1
  25   15   16 1
  26   15   44 1
  27   15   45 1
  28   16   17 1
  29   16   46 1
  30   16   47 1
  31   17   18 1
  32   17   48 1
  33   17   49 1
  34   18   50 1
  35   18   51 1
  36   19   20 1
  37   19   52 1
  38   20   21 ar
  39   20   25 ar
  40   21   22 ar
  41   22   23 ar
  42   22   53 1
  43   23   24 ar
  44   23   26 1
  45   24   25 ar
  46   24   54 1
  47   25   55 1
  48   26   27 1
  49   26   31 1
  50   27   28 1
  51   27   56 1
  52   27   57 1
  53   28   29 1
  54   28   58 1
  55   28   59 1
  56   29   30 1
  57   29   37 am
  58   30   31 1
  59   30   60 1
  60   30   61 1
  61   31   62 1
  62   31   63 1
  63   32   33 1
  64   32   37 1
  65   33   34 1
  66   33   35 1
  67   33   36 1
  68   34   64 1
  69   34   65 1
  70   34   66 1
  71   35   67 1
  72   35   68 1
  73   35   69 1
  74   36   70 1
  75   36   71 1
  76   36   72 1
  77   37   38 2

#	End of record

