#	Name: ASD03090606
#	Creating user name:	WinNT
#	Creation time:	15. 06. 2019 20:29

#	Modifying user name:	WinNT
#	Modification time:	15. 06. 2019 20:29

#	Program:	/corina/corina34_cracker 3.40 0067  02.08.2006

@<TRIPOS>MOLECULE
ASD03090606
  35   36    0    0    0
SMALL
NO_CHARGES


@<TRIPOS>ATOM
   1 N1            -0.0162     1.3436     0.0094 N.am    
   2 C2             0.0194     0.1476     0.6299 C.2     
   3 O3             1.0729    -0.2853     1.0556 O.2     
   4 N4            -1.1127    -0.5684     0.7785 N.am    
   5 S5            -2.4308    -2.8124     1.6752 S.3     
   6 C6            -1.0760    -1.8017     1.4184 C.2     
   7 N7            -0.0096    -2.3531     1.9074 N.2     
   8 C8            -0.1569    -3.5317     2.4836 C.2     
   9 C9            -1.4069    -3.9979     2.4813 C.2     
  10 C10           -1.8633    -5.3099     3.0658 C.3     
  11 C11            1.1453     2.1274    -0.0708 C.ar    
  12 C12            1.0452     3.5108    -0.1993 C.ar    
  13 C13            2.1928     4.2818    -0.2783 C.ar    
  14 C14            3.4394     3.6758    -0.2293 C.ar    
  15 C15            3.5377     2.2977    -0.1013 C.ar    
  16 C16            2.3934     1.5259    -0.0164 C.ar    
  17 O17            4.5664     4.4329    -0.3073 O.3     
  18 C18            4.3914     5.8451    -0.4385 C.3     
  19 O19           -0.1778     4.1034    -0.2476 O.3     
  20 C20           -0.2047     5.5260    -0.3802 C.3     
  21 Br21           5.2389     1.4746    -0.0348 Br      
  22 H22           -0.8436     1.6608    -0.3852 H       
  23 H23           -1.9531    -0.2230     0.4390 H       
  24 H24            0.6678    -4.0747     2.9212 H       
  25 H25           -2.9370    -5.4211     2.9145 H       
  26 H26           -1.3400    -6.1290     2.5724 H       
  27 H27           -1.6428    -5.3284     4.1331 H       
  28 H28            2.1172     5.3545    -0.3783 H       
  29 H29            2.4719     0.4538     0.0877 H       
  30 H30            3.8314     6.0587    -1.3489 H       
  31 H31            3.8425     6.2248     0.4232 H       
  32 H32            5.3668     6.3288    -0.4900 H       
  33 H33            0.3073     5.9797     0.4684 H       
  34 H34            0.2972     5.8143    -1.3039 H       
  35 H35           -1.2389     5.8690    -0.4063 H       
@<TRIPOS>BOND
   1    1    2 am
   2    1   11 1
   3    1   22 1
   4    2    3 2
   5    2    4 am
   6    4    6 1
   7    4   23 1
   8    5    6 1
   9    5    9 1
  10    6    7 2
  11    7    8 1
  12    8    9 2
  13    8   24 1
  14    9   10 1
  15   10   25 1
  16   10   26 1
  17   10   27 1
  18   11   12 ar
  19   11   16 ar
  20   12   13 ar
  21   12   19 1
  22   13   14 ar
  23   13   28 1
  24   14   15 ar
  25   14   17 1
  26   15   16 ar
  27   15   21 1
  28   16   29 1
  29   17   18 1
  30   18   30 1
  31   18   31 1
  32   18   32 1
  33   19   20 1
  34   20   33 1
  35   20   34 1
  36   20   35 1

#	End of record

