#	Name: ASD08150911
#	Creating user name:	WinNT
#	Creation time:	15. 06. 2019 21:16

#	Modifying user name:	WinNT
#	Modification time:	15. 06. 2019 21:16

#	Program:	/corina/corina34_cracker 3.40 0067  02.08.2006

@<TRIPOS>MOLECULE
ASD08150911
  48   52    0    0    0
SMALL
NO_CHARGES


@<TRIPOS>ATOM
   1 N1            -0.0105     1.2996     0.2105 N.2     
   2 C2            -0.0351     0.0270     0.4814 C.2     
   3 N3             1.1342    -0.3455     1.0749 N.pl3   
   4 C4             1.9215     0.7740     1.1712 C.ar    
   5 N5             3.1365     1.0289     1.6453 N.ar    
   6 C6             3.6352     2.2462     1.5935 C.ar    
   7 N7             2.9696     3.2634     1.0779 N.ar    
   8 C8             1.7478     3.1049     0.5795 C.ar    
   9 C9             1.1727     1.8233     0.6117 C.ar    
  10 N10            1.0578     4.1772     0.0416 N.pl3   
  11 C11            1.6735     5.5064     0.0171 C.3     
  12 C12            2.0815     5.8531    -1.4161 C.3     
  13 C13            3.1765     4.8912    -1.8816 C.3     
  14 N14            0.6006     9.7966     2.1279 N.ar    
  15 N15           -0.2543    10.6577     2.5507 N.ar    
  16 C16           -1.5655    10.4828     2.4635 C.ar    
  17 C17           -2.0829     9.3473     1.9050 C.ar    
  18 C18           -1.1734     8.3832     1.4311 C.ar    
  19 C19           -1.5994     7.1832     0.8405 C.ar    
  20 C20           -0.6778     6.2803     0.3968 C.ar    
  21 C21            0.6850     6.5272     0.5189 C.ar    
  22 C22            1.1455     7.6977     1.0955 C.ar    
  23 C23            0.2125     8.6521     1.5646 C.ar    
  24 C24            2.6002     7.9490     1.2198 C.ar    
  25 C25            3.1912     8.9998     0.5189 C.ar    
  26 C26            4.5486     9.2292     0.6395 C.ar    
  27 C27            5.3207     8.4169     1.4547 C.ar    
  28 C28            4.7381     7.3739     2.1513 C.ar    
  29 C29            3.3824     7.1392     2.0427 C.ar    
  30 F30            5.1237    10.2465    -0.0384 F       
  31 Cl31          -3.2948     6.8483     0.6762 Cl      
  32 H32           -0.8603    -0.6362     0.2679 H       
  33 H33            1.3669    -1.2383     1.3745 H       
  34 H34            4.6256     2.4193     1.9877 H       
  35 H35            0.1666     4.0488    -0.3191 H       
  36 H36            2.5559     5.5099     0.6570 H       
  37 H37            1.2158     5.7629    -2.0723 H       
  38 H38            2.4578     6.8755    -1.4495 H       
  39 H39            4.0422     4.9813    -1.2254 H       
  40 H40            2.8002     3.8687    -1.8482 H       
  41 H41            3.4672     5.1382    -2.9026 H       
  42 H42           -2.2321    11.2455     2.8380 H       
  43 H43           -3.1496     9.1957     1.8302 H       
  44 H44           -1.0123     5.3588    -0.0564 H       
  45 H45            2.5896     9.6324    -0.1169 H       
  46 H46            6.3813     8.5987     1.5460 H       
  47 H47            5.3449     6.7439     2.7847 H       
  48 H48            2.9286     6.3270     2.5911 H       
@<TRIPOS>BOND
   1    1    2 2
   2    1    9 1
   3    2    3 1
   4    2   32 1
   5    3    4 1
   6    3   33 1
   7    4    5 ar
   8    4    9 ar
   9    5    6 ar
  10    6    7 ar
  11    6   34 1
  12    7    8 ar
  13    8    9 ar
  14    8   10 1
  15   10   11 1
  16   10   35 1
  17   11   12 1
  18   11   21 1
  19   11   36 1
  20   12   13 1
  21   12   37 1
  22   12   38 1
  23   13   39 1
  24   13   40 1
  25   13   41 1
  26   14   15 ar
  27   14   23 ar
  28   15   16 ar
  29   16   17 ar
  30   16   42 1
  31   17   18 ar
  32   17   43 1
  33   18   19 ar
  34   18   23 ar
  35   19   20 ar
  36   19   31 1
  37   20   21 ar
  38   20   44 1
  39   21   22 ar
  40   22   23 ar
  41   22   24 1
  42   24   25 ar
  43   24   29 ar
  44   25   26 ar
  45   25   45 1
  46   26   27 ar
  47   26   30 1
  48   27   28 ar
  49   27   46 1
  50   28   29 ar
  51   28   47 1
  52   29   48 1

#	End of record

