#	Name: ASD00171091
#	Creating user name:	WinNT
#	Creation time:	15. 06. 2019 18:32

#	Modifying user name:	WinNT
#	Modification time:	15. 06. 2019 18:32

#	Program:	/corina/corina34_cracker 3.40 0067  02.08.2006

@<TRIPOS>MOLECULE
ASD00171091
  52   55    0    0    0
SMALL
NO_CHARGES


@<TRIPOS>ATOM
   1 C1             0.6614     1.3786     0.5652 C.2     
   2 N2             0.5506     0.0398     0.4573 N.am    
   3 C3            -0.7686    -0.6106     0.4543 C.3     
   4 C4            -0.8480    -1.5447    -0.7579 C.3     
   5 N5             0.2977    -2.4639    -0.7397 N.3     
   6 C6             1.5671    -1.7359    -0.8683 C.3     
   7 C7             1.7452    -0.8091     0.3332 C.3     
   8 C8             0.1689    -3.4865    -1.7864 C.3     
   9 C9             1.4611    -4.2535    -1.9010 C.2     
  10 C10            2.3677    -4.0183    -2.8366 C.2     
  11 S11            3.7401    -5.0976    -2.6646 S.3     
  12 C12            3.0608    -5.8691    -1.3051 C.2     
  13 C13            1.8390    -5.3180    -0.9953 C.2     
  14 N14            3.6564    -6.9009    -0.6083 N.pl3   
  15 C15            1.0075    -5.7655     0.1217 C.2     
  16 O16            1.1049    -5.2245     1.2083 O.2     
  17 C17            0.0485    -6.8750    -0.0685 C.ar    
  18 C18           -0.6675    -7.3768     1.0199 C.ar    
  19 C19           -1.5607    -8.4112     0.8363 C.ar    
  20 C20           -1.7479    -8.9526    -0.4248 C.ar    
  21 C21           -1.0400    -8.4593    -1.5084 C.ar    
  22 C22           -0.1486    -7.4210    -1.3382 C.ar    
  23 Cl23          -2.8737   -10.2551    -0.6481 Cl      
  24 C24            1.9946     2.0108     0.5662 C.ar    
  25 O25           -0.3373     2.0659     0.6568 O.2     
  26 C26            2.6773     2.2112     1.7707 C.ar    
  27 C27            3.9258     2.8042     1.7624 C.ar    
  28 C28            4.5001     3.1994     0.5679 C.ar    
  29 C29            3.8322     3.0051    -0.6274 C.ar    
  30 C30            2.5857     2.4080    -0.6380 C.ar    
  31 F31            2.1177     1.8266     2.9387 F       
  32 F32            1.9349     2.2190    -1.8068 F       
  33 H33           -0.8943    -1.1880     1.3703 H       
  34 H34           -1.5499     0.1463     0.3851 H       
  35 H35           -1.7745    -2.1174    -0.7157 H       
  36 H36           -0.8262    -0.9544    -1.6740 H       
  37 H37            2.3921    -2.4472    -0.9061 H       
  38 H38            1.5553    -1.1429    -1.7828 H       
  39 H39            2.6265    -0.1846     0.1865 H       
  40 H40            1.8608    -1.4031     1.2399 H       
  41 H41           -0.6385    -4.1715    -1.5278 H       
  42 H42           -0.0537    -3.0055    -2.7388 H       
  43 H43            2.2747    -3.2635    -3.6034 H       
  44 H44            4.4857    -7.2880    -0.9297 H       
  45 H45            3.2457    -7.2390     0.2028 H       
  46 H46           -0.5219    -6.9559     2.0038 H       
  47 H47           -2.1152    -8.8002     1.6775 H       
  48 H48           -1.1898    -8.8857    -2.4893 H       
  49 H49            0.4025    -7.0369    -2.1838 H       
  50 H50            4.4543     2.9596     2.6914 H       
  51 H51            5.4756     3.6628     0.5687 H       
  52 H52            4.2879     3.3167    -1.5557 H       
@<TRIPOS>BOND
   1    1    2 am
   2    1   24 1
   3    1   25 2
   4    2    3 1
   5    2    7 1
   6    3    4 1
   7    3   33 1
   8    3   34 1
   9    4    5 1
  10    4   35 1
  11    4   36 1
  12    5    6 1
  13    5    8 1
  14    6    7 1
  15    6   37 1
  16    6   38 1
  17    7   39 1
  18    7   40 1
  19    8    9 1
  20    8   41 1
  21    8   42 1
  22    9   10 2
  23    9   13 1
  24   10   11 1
  25   10   43 1
  26   11   12 1
  27   12   13 2
  28   12   14 1
  29   13   15 1
  30   14   44 1
  31   14   45 1
  32   15   16 2
  33   15   17 1
  34   17   18 ar
  35   17   22 ar
  36   18   19 ar
  37   18   46 1
  38   19   20 ar
  39   19   47 1
  40   20   21 ar
  41   20   23 1
  42   21   22 ar
  43   21   48 1
  44   22   49 1
  45   24   26 ar
  46   24   30 ar
  47   26   27 ar
  48   26   31 1
  49   27   28 ar
  50   27   50 1
  51   28   29 ar
  52   28   51 1
  53   29   30 ar
  54   29   52 1
  55   30   32 1

#	End of record

