#	Name: ASD01813536
#	Creating user name:	WinNT
#	Creation time:	15. 06. 2019 19:30

#	Modifying user name:	WinNT
#	Modification time:	15. 06. 2019 19:30

#	Program:	/corina/corina34_cracker 3.40 0067  02.08.2006

@<TRIPOS>MOLECULE
ASD01813536
  49   52    0    0    0
SMALL
NO_CHARGES


@<TRIPOS>ATOM
   1 O1            -0.0173     1.4248     0.0099 O.3     
   2 C2             0.0021    -0.0041     0.0020 C.3     
   3 H3             0.5123    -0.3556    -0.8948 H       
   4 C4             0.7421    -0.5109     1.2415 C.3     
   5 C5             0.7628    -2.0407     1.2331 C.3     
   6 C6            -0.6726    -2.5703     1.2440 C.3     
   7 C7            -1.4126    -2.0635     0.0045 C.3     
   8 C8            -1.4333    -0.5336     0.0129 C.3     
   9 H9            -1.9435    -0.1821     0.9097 H       
  10 N10           -2.1419    -0.0483    -1.1740 N.am    
  11 C11           -3.4850     0.0621    -1.1588 C.2     
  12 O12           -4.1091    -0.2413    -0.1593 O.2     
  13 C13           -4.1955     0.5487    -2.3489 C.2     
  14 C14           -3.6387     0.9191    -3.5373 C.2     
  15 N15           -4.6104     1.3120    -4.3957 N.pl3   
  16 C16           -4.3781     1.7756    -5.7659 C.3     
  17 C17           -4.2989     3.2804    -5.7804 C.ar    
  18 C18           -5.4391     4.0494    -5.9606 C.ar    
  19 C19           -5.3295     5.4265    -5.9685 C.ar    
  20 N20           -4.1584     6.0118    -5.8077 N.ar    
  21 C21           -3.0516     5.3127    -5.6336 C.ar    
  22 F22           -1.8739     5.9548    -5.4729 F       
  23 C23           -3.0863     3.9282    -5.6083 C.ar    
  24 C24           -5.8503     1.2131    -3.7972 C.ar    
  25 C25           -7.1444     1.4862    -4.2345 C.ar    
  26 F26           -7.3514     1.9485    -5.4870 F       
  27 C27           -8.2145     1.2837    -3.3876 C.ar    
  28 C28           -8.0161     0.8095    -2.0991 C.ar    
  29 C29           -6.7418     0.5336    -1.6476 C.ar    
  30 F30           -6.5514     0.0722    -0.3922 F       
  31 C31           -5.6519     0.7269    -2.4960 C.ar    
  32 H32            0.8606     1.8301     0.0037 H       
  33 H33            1.7647    -0.1336     1.2338 H       
  34 H34            0.2319    -0.1594     2.1383 H       
  35 H35            1.2730    -2.3923     0.3363 H       
  36 H36            1.2900    -2.4018     2.1162 H       
  37 H37           -0.6578    -3.6602     1.2380 H       
  38 H38           -1.1828    -2.2188     2.1408 H       
  39 H39           -0.9024    -2.4150    -0.8923 H       
  40 H40           -2.4352    -2.4408     0.0122 H       
  41 H41           -1.6443     0.1935    -1.9708 H       
  42 H42           -2.5822     0.9021    -3.7605 H       
  43 H43           -3.4416     1.3589    -6.1366 H       
  44 H44           -5.1990     1.4488    -6.4041 H       
  45 H45           -6.4012     3.5771    -6.0936 H       
  46 H46           -6.2134     6.0312    -6.1084 H       
  47 H47           -2.1792     3.3609    -5.4610 H       
  48 H48           -9.2161     1.4968    -3.7308 H       
  49 H49           -8.8627     0.6558    -1.4464 H       
@<TRIPOS>BOND
   1    1    2 1
   2    1   32 1
   3    2    3 1
   4    2    8 1
   5    2    4 1
   6    4    5 1
   7    4   33 1
   8    4   34 1
   9    5    6 1
  10    5   35 1
  11    5   36 1
  12    6    7 1
  13    6   37 1
  14    6   38 1
  15    7    8 1
  16    7   39 1
  17    7   40 1
  18    8    9 1
  19    8   10 1
  20   10   11 am
  21   10   41 1
  22   11   12 2
  23   11   13 1
  24   13   31 1
  25   13   14 2
  26   14   15 1
  27   14   42 1
  28   15   16 1
  29   15   24 1
  30   16   17 1
  31   16   43 1
  32   16   44 1
  33   17   23 ar
  34   17   18 ar
  35   18   19 ar
  36   18   45 1
  37   19   20 ar
  38   19   46 1
  39   20   21 ar
  40   21   22 1
  41   21   23 ar
  42   23   47 1
  43   24   31 ar
  44   24   25 ar
  45   25   26 1
  46   25   27 ar
  47   27   28 ar
  48   27   48 1
  49   28   29 ar
  50   28   49 1
  51   29   30 1
  52   29   31 ar

#	End of record

