#	Name: ASD02560437
#	Creating user name:	WinNT
#	Creation time:	15. 06. 2019 20:25

#	Modifying user name:	WinNT
#	Modification time:	15. 06. 2019 20:25

#	Program:	/corina/corina34_cracker 3.40 0067  02.08.2006

@<TRIPOS>MOLECULE
ASD02560437
  49   53    0    0    0
SMALL
NO_CHARGES


@<TRIPOS>ATOM
   1 C1             0.8406     1.8810    -2.2339 C.ar    
   2 C2             0.8970     0.4584    -2.5811 C.2     
   3 C3             1.7440    -0.3539    -1.9339 C.2     
   4 N4             2.5805     0.0937    -0.9376 N.pl3   
   5 C5             2.5931     1.4123    -0.5486 C.2     
   6 C6             1.6914     2.3624    -1.2140 C.ar    
   7 C7             3.5045    -0.5620    -0.1652 C.2     
   8 C8             4.0580     0.3776     0.6775 C.2     
   9 N9             3.4785     1.5637     0.4140 N.2     
  10 C10            5.1060     0.1265     1.6942 C.ar    
  11 N11            3.8223    -1.9168    -0.2215 N.3     
  12 C12            5.0872    -2.1314    -0.9371 C.3     
  13 C13            5.7432    -3.4203    -0.4378 C.3     
  14 C14            4.8109    -2.2478    -2.4374 C.3     
  15 C15            6.1282    -2.4714    -3.1827 C.3     
  16 C16            6.7843    -3.7603    -2.6834 C.3     
  17 C17            7.0605    -3.6440    -1.1831 C.3     
  18 Cl18           1.7868    -2.0340    -2.3686 Cl      
  19 C19            4.9692    -0.9292     2.5946 C.ar    
  20 C20            5.9490    -1.1585     3.5392 C.ar    
  21 C21            7.0654    -0.3435     3.5941 C.ar    
  22 C22            7.2075     0.7059     2.7037 C.ar    
  23 C23            6.2370     0.9423     1.7508 C.ar    
  24 Br24           6.4329     2.3766     0.5342 Br      
  25 C25            1.6588     3.7113    -0.8640 C.ar    
  26 C26            0.7952     4.5628    -1.5185 C.ar    
  27 C27           -0.0413     4.0906    -2.5209 C.ar    
  28 C28           -0.0302     2.7599    -2.8784 C.ar    
  29 H29            0.2568     0.0651    -3.3569 H       
  30 H30            3.8574    -2.3186     0.7034 H       
  31 H31            5.7551    -1.2896    -0.7549 H       
  32 H32            5.9400    -3.3374     0.6311 H       
  33 H33            5.0752    -4.2622    -0.6200 H       
  34 H34            4.1429    -3.0897    -2.6196 H       
  35 H35            4.3435    -1.3296    -2.7931 H       
  36 H36            5.9314    -2.5544    -4.2516 H       
  37 H37            6.7962    -1.6296    -3.0005 H       
  38 H38            6.1163    -4.6022    -2.8656 H       
  39 H39            7.7228    -3.9197    -3.2144 H       
  40 H40            7.7285    -2.8021    -1.0009 H       
  41 H41            7.5279    -4.5622    -0.8274 H       
  42 H42            4.0980    -1.5662     2.5532 H       
  43 H43            5.8437    -1.9758     4.2372 H       
  44 H44            7.8291    -0.5269     4.3354 H       
  45 H45            8.0812     1.3390     2.7517 H       
  46 H46            2.3057     4.0865    -0.0849 H       
  47 H47            0.7687     5.6082    -1.2486 H       
  48 H48           -0.7120     4.7727    -3.0222 H       
  49 H49           -0.6845     2.4016    -3.6593 H       
@<TRIPOS>BOND
   1    1    2 1
   2    1    6 ar
   3    1   28 ar
   4    2    3 2
   5    2   29 1
   6    3    4 1
   7    3   18 1
   8    4    5 1
   9    4    7 1
  10    5    6 1
  11    5    9 2
  12    6   25 ar
  13    7    8 2
  14    7   11 1
  15    8    9 1
  16    8   10 1
  17   10   19 ar
  18   10   23 ar
  19   11   12 1
  20   11   30 1
  21   12   13 1
  22   12   14 1
  23   12   31 1
  24   13   17 1
  25   13   32 1
  26   13   33 1
  27   14   15 1
  28   14   34 1
  29   14   35 1
  30   15   16 1
  31   15   36 1
  32   15   37 1
  33   16   17 1
  34   16   38 1
  35   16   39 1
  36   17   40 1
  37   17   41 1
  38   19   20 ar
  39   19   42 1
  40   20   21 ar
  41   20   43 1
  42   21   22 ar
  43   21   44 1
  44   22   23 ar
  45   22   45 1
  46   23   24 1
  47   25   26 ar
  48   25   46 1
  49   26   27 ar
  50   26   47 1
  51   27   28 ar
  52   27   48 1
  53   28   49 1

#	End of record

