#	Name: ASD01911819
#	Creating user name:	WinNT
#	Creation time:	15. 06. 2019 19:58

#	Modifying user name:	WinNT
#	Modification time:	15. 06. 2019 19:58

#	Program:	/corina/corina34_cracker 3.40 0067  02.08.2006

@<TRIPOS>MOLECULE
ASD01911819
  47   49    0    0    0
SMALL
NO_CHARGES


@<TRIPOS>ATOM
   1 C1             0.1450     0.8353    -1.0281 C.2     
   2 N2             0.0465    -0.3417    -0.3320 N.pl3   
   3 C3             1.2090    -1.0304    -0.0064 C.2     
   4 C4             2.4532    -0.4832    -0.4100 C.2     
   5 C5             2.4535     0.6866    -1.0953 C.2     
   6 N6             1.3018     1.3104    -1.3837 N.2     
   7 C7             0.8696    -2.1577     0.6775 C.2     
   8 C8            -0.5445    -2.1772     0.7840 C.2     
   9 C9            -1.0201    -1.0362     0.1469 C.2     
  10 C10           -1.3547    -3.2091     1.4431 C.2     
  11 O11           -2.5672    -3.1086     1.4652 O.2     
  12 N12           -0.7555    -4.2676     2.0236 N.am    
  13 N13           -2.3496    -0.6703     0.0222 N.pl3   
  14 C14           -2.8412     0.4351     0.7288 C.ar    
  15 C15           -4.1922     0.7605     0.6594 C.ar    
  16 C16           -4.6762     1.8506     1.3570 C.ar    
  17 C17           -3.8133     2.6210     2.1273 C.ar    
  18 C18           -2.4647     2.2954     2.1954 C.ar    
  19 C19           -1.9815     1.2024     1.5028 C.ar    
  20 S20           -4.4300     4.0112     3.0170 S.3     
  21 F21           -5.0302     0.0113    -0.0900 F       
  22 O22           -1.5369    -5.2628     2.6592 O.3     
  23 C23           -0.7715    -6.3255     3.2311 C.3     
  24 C24           -1.7137    -7.3369     3.8870 C.3     
  25 C25           -0.8913    -8.4082     4.6060 C.3     
  26 O26           -1.7683    -9.2858     5.3151 O.3     
  27 O27           -2.5247    -7.9523     2.8842 O.3     
  28 C28           -2.9485     4.6594     3.8390 C.3     
  29 H29           -0.7535     1.3746    -1.2892 H       
  30 H30            3.3797    -0.9867    -0.1766 H       
  31 H31            3.3904     1.1206    -1.4117 H       
  32 H32            1.5510    -2.8999     1.0665 H       
  33 H33            0.2111    -4.3477     2.0059 H       
  34 H34           -2.9407    -1.1793    -0.5543 H       
  35 H35           -5.7247     2.1041     1.3034 H       
  36 H36           -1.7943     2.8948     2.7936 H       
  37 H37           -0.9337     0.9471     1.5601 H       
  38 H38           -0.1952    -6.8199     2.4490 H       
  39 H39           -0.0928    -5.9212     3.9820 H       
  40 H40           -2.3522    -6.8249     4.6069 H       
  41 H41           -0.3194    -8.9791     3.8745 H       
  42 H42           -0.2084    -7.9311     5.3089 H       
  43 H43           -1.3143    -9.9916     5.7956 H       
  44 H44           -2.0218    -8.4273     2.2085 H       
  45 H45           -2.5320     3.8940     4.4939 H       
  46 H46           -2.2086     4.9371     3.0883 H       
  47 H47           -3.2146     5.5366     4.4287 H       
@<TRIPOS>BOND
   1    1    2 1
   2    1    6 2
   3    1   29 1
   4    2    3 1
   5    2    9 1
   6    3    4 1
   7    3    7 2
   8    4    5 2
   9    4   30 1
  10    5    6 1
  11    5   31 1
  12    7    8 1
  13    7   32 1
  14    8    9 2
  15    8   10 1
  16    9   13 1
  17   10   11 2
  18   10   12 am
  19   12   22 1
  20   12   33 1
  21   13   14 1
  22   13   34 1
  23   14   15 ar
  24   14   19 ar
  25   15   16 ar
  26   15   21 1
  27   16   17 ar
  28   16   35 1
  29   17   18 ar
  30   17   20 1
  31   18   19 ar
  32   18   36 1
  33   19   37 1
  34   20   28 1
  35   22   23 1
  36   23   24 1
  37   23   38 1
  38   23   39 1
  39   24   25 1
  40   24   27 1
  41   24   40 1
  42   25   26 1
  43   25   41 1
  44   25   42 1
  45   26   43 1
  46   27   44 1
  47   28   45 1
  48   28   46 1
  49   28   47 1

#	End of record

