#	Name: ASD06660036
#	Creating user name:	WinNT
#	Creation time:	15. 06. 2019 21:07

#	Modifying user name:	WinNT
#	Modification time:	15. 06. 2019 21:07

#	Program:	/corina/corina34_cracker 3.40 0067  02.08.2006

@<TRIPOS>MOLECULE
ASD06660036
  75   78    0    0    0
SMALL
NO_CHARGES


@<TRIPOS>ATOM
   1 C1            -1.4590     1.6371     0.2981 C.2     
   2 C2            -1.2041     0.3260    -0.3998 C.3     
   3 C3            -1.9526     0.3046    -1.7341 C.3     
   4 O4            -0.5355     2.3691     0.5648 O.2     
   5 O5            -2.7126     1.9942     0.6186 O.3     
   6 C6            -1.8117    -1.0557    -2.3673 C.ar    
   7 C7            -2.6868    -2.0701    -2.0246 C.ar    
   8 C8            -2.5605    -3.3178    -2.6030 C.ar    
   9 C9            -1.5530    -3.5532    -3.5299 C.ar    
  10 C10           -0.6757    -2.5319    -3.8719 C.ar    
  11 C11           -0.8112    -1.2849    -3.2939 C.ar    
  12 N12           -1.4221    -4.8140    -4.1165 N.3     
  13 C13           -2.7424    -5.4252    -4.3555 C.3     
  14 C14           -2.8295    -5.7512    -5.8614 C.3     
  15 C15           -1.3401    -5.8285    -6.2889 C.3     
  16 C16           -0.7035    -4.7267    -5.4056 C.3     
  17 C17           -3.5268    -7.0946    -6.0847 C.3     
  18 N18           -3.7016    -7.3212    -7.5215 N.pl3   
  19 C19           -4.3157    -8.4840    -7.9720 C.ar    
  20 C20           -4.7621    -9.4285    -7.0530 C.ar    
  21 C21           -5.3713   -10.5809    -7.5152 C.ar    
  22 C22           -5.5144   -10.7509    -8.8861 C.ar    
  23 C23           -5.0482    -9.7727    -9.7410 C.ar    
  24 N24           -4.4755    -8.6803    -9.2715 N.ar    
  25 C25            1.0550    -0.1667     0.3686 C.2     
  26 C26            2.4890    -0.4226     0.1029 C.ar    
  27 C27            2.9434    -1.7311    -0.0706 C.ar    
  28 C28            4.2773    -1.9706    -0.3174 C.ar    
  29 C29            5.1762    -0.9023    -0.3947 C.ar    
  30 C30            4.7198     0.4076    -0.2212 C.ar    
  31 C31            3.3841     0.6448     0.0203 C.ar    
  32 O32            0.6199    -0.2635     1.4991 O.2     
  33 N33            0.2324     0.1736    -0.6433 N.am    
  34 C34            2.8906     2.0572     0.2012 C.3     
  35 C35            1.9744    -2.8822     0.0128 C.3     
  36 C36            1.3054    -3.0852    -1.3482 C.3     
  37 C37            6.6038    -1.1571    -0.6582 C.2     
  38 O38            6.9990    -2.2933    -0.8081 O.2     
  39 C39            7.5720    -0.0053    -0.7414 C.3     
  40 H40           -1.5554    -0.4936     0.2270 H       
  41 H41           -3.0077     0.5178    -1.5623 H       
  42 H42           -1.5328     1.0599    -2.3984 H       
  43 H43           -2.8263     2.8442     1.0654 H       
  44 H44           -3.4696    -1.8866    -1.3036 H       
  45 H45           -3.2440    -4.1098    -2.3347 H       
  46 H46            0.1087    -2.7115    -4.5922 H       
  47 H47           -0.1324    -0.4891    -3.5628 H       
  48 H48           -2.8384    -6.3407    -3.7718 H       
  49 H49           -3.5307    -4.7239    -4.0818 H       
  50 H50           -3.3439    -4.9546    -6.3990 H       
  51 H51           -0.9179    -6.8065    -6.0580 H       
  52 H52           -1.2252    -5.5952    -7.3474 H       
  53 H53           -0.8517    -3.7456    -5.8569 H       
  54 H54            0.3591    -4.9225    -5.2617 H       
  55 H55           -2.9186    -7.8943    -5.6620 H       
  56 H56           -4.5018    -7.0833    -5.5974 H       
  57 H57           -3.3888    -6.6598    -8.1584 H       
  58 H58           -4.6342    -9.2642    -5.9933 H       
  59 H59           -5.7274   -11.3319    -6.8255 H       
  60 H60           -5.9854   -11.6397    -9.2793 H       
  61 H61           -5.1574    -9.9009   -10.8078 H       
  62 H62            4.6287    -2.9830    -0.4508 H       
  63 H63            5.4131     1.2335    -0.2804 H       
  64 H64            0.5916     0.3177    -1.5328 H       
  65 H65            2.9463     2.3293     1.2552 H       
  66 H66            3.5115     2.7366    -0.3828 H       
  67 H67            1.8571     2.1272    -0.1379 H       
  68 H68            2.5105    -3.7889     0.2930 H       
  69 H69            1.2139    -2.6634     0.7624 H       
  70 H70            0.5351    -3.8518    -1.2636 H       
  71 H71            0.8521    -2.1489    -1.6735 H       
  72 H72            2.0525    -3.3997    -2.0769 H       
  73 H73            7.9789     0.1994     0.2489 H       
  74 H74            8.3839    -0.2616    -1.4220 H       
  75 H75            7.0534     0.8793    -1.1111 H       
@<TRIPOS>BOND
   1    1    2 1
   2    1    4 2
   3    1    5 1
   4    2    3 1
   5    2   33 1
   6    2   40 1
   7    3    6 1
   8    3   41 1
   9    3   42 1
  10    5   43 1
  11    6    7 ar
  12    6   11 ar
  13    7    8 ar
  14    7   44 1
  15    8    9 ar
  16    8   45 1
  17    9   10 ar
  18    9   12 1
  19   10   11 ar
  20   10   46 1
  21   11   47 1
  22   12   13 1
  23   12   16 1
  24   13   14 1
  25   13   48 1
  26   13   49 1
  27   14   15 1
  28   14   17 1
  29   14   50 1
  30   15   16 1
  31   15   51 1
  32   15   52 1
  33   16   53 1
  34   16   54 1
  35   17   18 1
  36   17   55 1
  37   17   56 1
  38   18   19 1
  39   18   57 1
  40   19   20 ar
  41   19   24 ar
  42   20   21 ar
  43   20   58 1
  44   21   22 ar
  45   21   59 1
  46   22   23 ar
  47   22   60 1
  48   23   24 ar
  49   23   61 1
  50   25   26 1
  51   25   32 2
  52   25   33 am
  53   26   27 ar
  54   26   31 ar
  55   27   28 ar
  56   27   35 1
  57   28   29 ar
  58   28   62 1
  59   29   30 ar
  60   29   37 1
  61   30   31 ar
  62   30   63 1
  63   31   34 1
  64   33   64 1
  65   34   65 1
  66   34   66 1
  67   34   67 1
  68   35   36 1
  69   35   68 1
  70   35   69 1
  71   36   70 1
  72   36   71 1
  73   36   72 1
  74   37   38 2
  75   37   39 1
  76   39   73 1
  77   39   74 1
  78   39   75 1

#	End of record

