#	Name: ASD03082316
#	Creating user name:	WinNT
#	Creation time:	15. 06. 2019 20:27

#	Modifying user name:	WinNT
#	Modification time:	15. 06. 2019 20:27

#	Program:	/corina/corina34_cracker 3.40 0067  02.08.2006

@<TRIPOS>MOLECULE
ASD03082316
  42   45    0    0    0
SMALL
NO_CHARGES


@<TRIPOS>ATOM
   1 C1            -0.0003     1.3731    -0.2187 C.ar    
   2 C2            -0.1372     0.1745    -0.9056 C.ar    
   3 C3            -1.3193    -0.5420    -0.8183 C.ar    
   4 C4            -2.3686    -0.0579    -0.0410 C.ar    
   5 C5            -2.2281     1.1387     0.6431 C.ar    
   6 C6            -1.0464     1.8501     0.5602 C.ar    
   7 O7            -1.7035    -1.7239    -1.3830 O.3     
   8 C8            -2.8431    -2.1623    -0.6201 C.3     
   9 O9            -3.4109    -0.9378    -0.1189 O.3     
  10 F10           -3.7585    -2.8282    -1.4423 F       
  11 F11           -2.4400    -2.9858     0.4366 F       
  12 N12            1.1941     2.0978    -0.3065 N.pl3   
  13 C13            1.1719     3.4896    -0.2325 C.2     
  14 N14            2.2485     4.2797    -0.2125 N.2     
  15 N15            0.0897     4.2301    -0.1772 N.2     
  16 N16            0.5108     5.5684    -0.1131 N.am    
  17 C17            1.8752     5.5398    -0.1389 C.2     
  18 C18            2.7732     6.7142    -0.0919 C.ar    
  19 C19            2.5955     7.7909    -0.9675 C.ar    
  20 C20            3.4566     8.8665    -0.8891 C.ar    
  21 N21            4.4354     8.8884    -0.0054 N.ar    
  22 C22            4.6392     7.8955     0.8387 C.ar    
  23 C23            3.8217     6.7821     0.8342 C.ar    
  24 C24           -0.2746     6.6614    -0.0438 C.2     
  25 N25           -1.6142     6.5348    -0.1217 N.am    
  26 O26            0.2250     7.7611     0.0890 O.2     
  27 C27           -2.4679     7.7229    -0.0463 C.3     
  28 Cl28           4.0986     5.4808     1.9493 Cl      
  29 C29            3.2762    10.0323    -1.8268 C.3     
  30 H30            0.6776    -0.1990    -1.5082 H       
  31 H31           -3.0421     1.5140     1.2455 H       
  32 H32           -0.9394     2.7825     1.0948 H       
  33 H33            2.0372     1.6314    -0.4188 H       
  34 H34            1.7966     7.7803    -1.6941 H       
  35 H35            5.4534     7.9559     1.5457 H       
  36 H36           -2.0130     5.6569    -0.2277 H       
  37 H37           -2.2196     8.4012    -0.8626 H       
  38 H38           -3.5133     7.4249    -0.1267 H       
  39 H39           -2.3060     8.2268     0.9067 H       
  40 H40            2.6080    10.7639    -1.3726 H       
  41 H41            4.2437    10.4953    -2.0212 H       
  42 H42            2.8465     9.6809    -2.7649 H       
@<TRIPOS>BOND
   1    1    2 ar
   2    1   12 1
   3    1    6 ar
   4    2    3 ar
   5    2   30 1
   6    3    4 ar
   7    3    7 1
   8    4    5 ar
   9    4    9 1
  10    5    6 ar
  11    5   31 1
  12    6   32 1
  13    7    8 1
  14    8    9 1
  15    8   10 1
  16    8   11 1
  17   12   13 1
  18   12   33 1
  19   13   14 1
  20   13   15 2
  21   14   17 2
  22   15   16 1
  23   16   17 1
  24   16   24 am
  25   17   18 1
  26   18   19 ar
  27   18   23 ar
  28   19   20 ar
  29   19   34 1
  30   20   21 ar
  31   20   29 1
  32   21   22 ar
  33   22   23 ar
  34   22   35 1
  35   23   28 1
  36   24   25 am
  37   24   26 2
  38   25   27 1
  39   25   36 1
  40   27   37 1
  41   27   38 1
  42   27   39 1
  43   29   40 1
  44   29   41 1
  45   29   42 1

#	End of record

