#	Name: ASD04590572
#	Creating user name:	WinNT
#	Creation time:	15. 06. 2019 20:51

#	Modifying user name:	WinNT
#	Modification time:	15. 06. 2019 20:51

#	Program:	/corina/corina34_cracker 3.40 0067  02.08.2006

@<TRIPOS>MOLECULE
ASD04590572
  62   68    0    0    0
SMALL
NO_CHARGES


@<TRIPOS>ATOM
   1 N1             2.3768     1.4710    -0.5471 N.ar    
   2 C2             2.5375     0.1562    -0.6480 C.ar    
   3 C3             1.4394    -0.6649    -0.7508 C.ar    
   4 C4             0.1638    -0.1046    -0.7670 C.ar    
   5 C5             0.0348     1.2668    -0.6673 C.ar    
   6 C6             1.1857     2.0400    -0.5534 C.ar    
   7 C7             3.9497    -0.3699    -0.6606 C.3     
   8 C8             3.9820    -1.8501    -0.2843 C.3     
   9 N9             2.9500    -2.5423    -1.0738 N.am    
  10 C10            1.5527    -2.1654    -0.8334 C.3     
  11 N11            1.0805     3.4239    -0.4452 N.pl3   
  12 C12            2.2126     4.1889    -0.2159 C.ar    
  13 N13            2.1039     5.5075    -0.2220 N.ar    
  14 C14            3.1677     6.2755    -0.0060 C.ar    
  15 C15            4.4098     5.6519     0.2289 C.ar    
  16 C16            4.4747     4.2622     0.2257 C.ar    
  17 N17            3.3665     3.5735     0.0074 N.ar    
  18 N18            3.3486     7.6354     0.0448 N.pl3   
  19 C19            4.6739     7.9376     0.3065 C.ar    
  20 C20            5.3852     6.7308     0.4313 C.ar    
  21 C21            5.3660     9.1325     0.4550 C.ar    
  22 N22            6.6592     9.1311     0.7065 N.ar    
  23 C23            7.3564     8.0154     0.8296 C.ar    
  24 C24            6.7527     6.7828     0.6988 C.ar    
  25 C25            2.2885     8.6273    -0.1512 C.3     
  26 C26            3.2758    -3.4841    -1.9812 C.2     
  27 C27            2.1947    -4.1737    -2.7729 C.3     
  28 O28            4.4391    -3.7765    -2.1607 O.2     
  29 O29            2.7871    -5.1227    -3.6619 O.3     
  30 C30            2.5473     9.4458    -1.4367 C.3     
  31 C31            1.3128     9.1558    -2.3440 C.3     
  32 C32            0.9219     7.9198    -0.4029 C.3     
  33 C33           -0.1284     9.0712    -0.3552 C.3     
  34 C34            0.1304     9.8897    -1.6407 C.3     
  35 C35            1.0062     7.6678    -1.9497 C.3     
  36 H36           -0.7102    -0.7328    -0.8565 H       
  37 H37           -0.9407     1.7301    -0.6776 H       
  38 H38            4.3701    -0.2444    -1.6584 H       
  39 H39            4.5490     0.1947     0.0537 H       
  40 H40            4.9626    -2.2673    -0.5132 H       
  41 H41            3.7711    -1.9648     0.7790 H       
  42 H42            1.2140    -2.6069     0.1039 H       
  43 H43            0.9323    -2.5316    -1.6513 H       
  44 H44            0.2145     3.8526    -0.5304 H       
  45 H45            5.4118     3.7550     0.4021 H       
  46 H46            4.8396    10.0710     0.3631 H       
  47 H47            8.4151     8.0698     1.0358 H       
  48 H48            7.3283     5.8747     0.8002 H       
  49 H49            2.2228     9.2880     0.7132 H       
  50 H50            1.5172    -4.6880    -2.0913 H       
  51 H51            1.6384    -3.4342    -3.3489 H       
  52 H52            2.1485    -5.6053    -4.2045 H       
  53 H53            2.6068    10.5092    -1.2046 H       
  54 H54            3.4634     9.1103    -1.9229 H       
  55 H55            1.4413     9.3677    -3.4055 H       
  56 H56            0.7100     7.0552     0.2262 H       
  57 H57           -1.1394     8.6638    -0.3613 H       
  58 H58            0.0271     9.6911     0.5278 H       
  59 H59            0.4132    10.9121    -1.3897 H       
  60 H60           -0.7533     9.8848    -2.2787 H       
  61 H61            0.0570     7.3235    -2.3602 H       
  62 H62            1.8260     6.9986    -2.2109 H       
@<TRIPOS>BOND
   1    1    2 ar
   2    1    6 ar
   3    2    3 ar
   4    2    7 1
   5    3    4 ar
   6    3   10 1
   7    4    5 ar
   8    4   36 1
   9    5    6 ar
  10    5   37 1
  11    6   11 1
  12    7    8 1
  13    7   38 1
  14    7   39 1
  15    8    9 1
  16    8   40 1
  17    8   41 1
  18    9   10 1
  19    9   26 am
  20   10   42 1
  21   10   43 1
  22   11   12 1
  23   11   44 1
  24   12   13 ar
  25   12   17 ar
  26   13   14 ar
  27   14   15 ar
  28   14   18 1
  29   15   16 ar
  30   15   20 1
  31   16   17 ar
  32   16   45 1
  33   18   19 1
  34   18   25 1
  35   19   20 ar
  36   19   21 ar
  37   20   24 ar
  38   21   22 ar
  39   21   46 1
  40   22   23 ar
  41   23   24 ar
  42   23   47 1
  43   24   48 1
  44   25   30 1
  45   25   32 1
  46   25   49 1
  47   26   27 1
  48   26   28 2
  49   27   29 1
  50   27   50 1
  51   27   51 1
  52   29   52 1
  53   30   31 1
  54   30   53 1
  55   30   54 1
  56   31   34 1
  57   31   35 1
  58   31   55 1
  59   32   33 1
  60   32   35 1
  61   32   56 1
  62   33   34 1
  63   33   57 1
  64   33   58 1
  65   34   59 1
  66   34   60 1
  67   35   61 1
  68   35   62 1

#	End of record

