#	Name: ASD03200086
#	Creating user name:	WinNT
#	Creation time:	15. 06. 2019 20:34

#	Modifying user name:	WinNT
#	Modification time:	15. 06. 2019 20:34

#	Program:	/corina/corina34_cracker 3.40 0067  02.08.2006

@<TRIPOS>MOLECULE
ASD03200086
  31   32    0    0    0
SMALL
NO_CHARGES


@<TRIPOS>ATOM
   1 C1             0.0021    -0.0041     0.0020 C.1     
   2 C2            -0.0179     1.4678     0.0101 C.3     
   3 C3            -1.5640     3.8964     2.4186 C.3     
   4 C4            -0.8311     3.4041     1.1687 C.3     
   5 C5             0.0690     1.5552     2.4055 C.3     
   6 C6            -0.6564     2.0321     3.6657 C.3     
   7 C7            -1.6618     5.3318     4.9263 C.ar    
   8 C8            -2.2721     5.8016     6.0738 C.ar    
   9 C9            -2.6449     4.9180     7.0721 C.ar    
  10 C10           -1.4231     3.9717     4.7759 C.ar    
  11 C11           -1.7939     3.0889     5.7821 C.ar    
  12 C12           -2.4083     3.5640     6.9244 C.ar    
  13 Cl13          -2.5707     7.5011     6.2638 Cl      
  14 N14           -0.8118     3.4927     3.6149 N.3     
  15 N15           -0.7055     1.9415     1.2187 N.4     
  16 N16            0.0175    -1.1399    -0.0042 N.1     
  17 H17            1.0047     1.8451     0.0024 H       
  18 H18           -0.5451     1.8289    -0.8729 H       
  19 H19           -1.6442     4.9830     2.3889 H       
  20 H20           -2.5618     3.4588     2.4511 H       
  21 H21           -1.3948     3.6902     0.2807 H       
  22 H22            0.1614     3.8529     1.1291 H       
  23 H23            1.0569     2.0135     2.3596 H       
  24 H24            0.1726     0.4705     2.4345 H       
  25 H25           -1.6391     1.5635     3.7190 H       
  26 H26           -0.0744     1.7586     4.5458 H       
  27 H27           -1.3750     6.0207     4.1456 H       
  28 H28           -3.1216     5.2872     7.9681 H       
  29 H29           -1.6095     2.0309     5.6678 H       
  30 H30           -2.7001     2.8772     7.7052 H       
  31 H31           -1.6240     1.5267     1.2671 H       
@<TRIPOS>BOND
   1    1   16 3
   2    1    2 1
   3    2   17 1
   4    2   18 1
   5    2   15 1
   6    3    4 1
   7    3   19 1
   8    3   20 1
   9    3   14 1
  10    4   15 1
  11    4   21 1
  12    4   22 1
  13    5   15 1
  14    5   23 1
  15    5   24 1
  16    5    6 1
  17    6   14 1
  18    6   25 1
  19    6   26 1
  20    7   10 ar
  21    7   27 1
  22    7    8 ar
  23    8    9 ar
  24    8   13 1
  25    9   12 ar
  26    9   28 1
  27   10   14 1
  28   10   11 ar
  29   11   29 1
  30   11   12 ar
  31   12   30 1
  32   15   31 1

#	End of record

