#	Name: ASD04590100
#	Creating user name:	WinNT
#	Creation time:	15. 06. 2019 20:50

#	Modifying user name:	WinNT
#	Modification time:	15. 06. 2019 20:50

#	Program:	/corina/corina34_cracker 3.40 0067  02.08.2006

@<TRIPOS>MOLECULE
ASD04590100
  31   32    0    0    0
SMALL
NO_CHARGES


@<TRIPOS>ATOM
   1 C1             0.0602     1.3685     0.4193 C.2     
   2 C2             0.0461    -0.0339     0.2048 C.2     
   3 C3             1.3639     1.7380     0.3094 C.2     
   4 N4             2.0765     0.6117     0.0444 N.pl3   
   5 N5             1.2938    -0.4052    -0.0122 N.2     
   6 C6            -1.1388    -0.9111     0.2216 C.2     
   7 N7            -1.0016    -2.2334     0.0000 N.am    
   8 C8            -2.1101    -3.0805     0.1121 C.ar    
   9 C9            -3.3665    -2.6370    -0.2792 C.ar    
  10 C10           -4.4590    -3.4746    -0.1682 C.ar    
  11 C11           -4.3021    -4.7560     0.3329 C.ar    
  12 C12           -3.0501    -5.2002     0.7237 C.ar    
  13 C13           -1.9542    -4.3676     0.6094 C.ar    
  14 O14           -2.2400    -0.4414     0.4354 O.2     
  15 F15           -5.3721    -5.5737     0.4411 F       
  16 N16           -1.0389     2.1989     0.6828 N.am    
  17 S17           -1.0716     3.7435     0.0866 S.o2    
  18 O18           -2.2972     4.2787     0.5668 O.2     
  19 O19            0.1752     4.2984     0.4825 O.2     
  20 C20           -1.1313     3.5324    -1.7141 C.3     
  21 H21            1.7586     2.7380     0.4125 H       
  22 H22            3.0375     0.5802    -0.0834 H       
  23 H23           -0.1346    -2.5980    -0.2371 H       
  24 H24           -3.4894    -1.6376    -0.6697 H       
  25 H25           -5.4364    -3.1300    -0.4721 H       
  26 H26           -2.9299    -6.2000     1.1142 H       
  27 H27           -0.9779    -4.7145     0.9143 H       
  28 H28           -1.7800     1.8685     1.2144 H       
  29 H29           -2.0266     2.9727    -1.9848 H       
  30 H30           -1.1555     4.5107    -2.1941 H       
  31 H31           -0.2477     2.9869    -2.0455 H       
@<TRIPOS>BOND
   1    1    2 1
   2    1    3 2
   3    1   16 1
   4    2    6 1
   5    2    5 2
   6    3    4 1
   7    3   21 1
   8    4    5 1
   9    4   22 1
  10    6    7 am
  11    6   14 2
  12    7    8 1
  13    7   23 1
  14    8    9 ar
  15    8   13 ar
  16    9   10 ar
  17    9   24 1
  18   10   11 ar
  19   10   25 1
  20   11   12 ar
  21   11   15 1
  22   12   13 ar
  23   12   26 1
  24   13   27 1
  25   16   17 am
  26   16   28 1
  27   17   18 2
  28   17   19 2
  29   17   20 1
  30   20   29 1
  31   20   30 1
  32   20   31 1

#	End of record

