#	Name: ASD02810014
#	Creating user name:	WinNT
#	Creation time:	15. 06. 2019 20:26

#	Modifying user name:	WinNT
#	Modification time:	15. 06. 2019 20:26

#	Program:	/corina/corina34_cracker 3.40 0067  02.08.2006

@<TRIPOS>MOLECULE
ASD02810014
  31   32    0    0    0
SMALL
NO_CHARGES


@<TRIPOS>ATOM
   1 C1            -0.0127     1.0858     0.0080 C.3     
   2 O2            -0.7038     1.5592    -1.1497 O.3     
   3 C3            -2.0009     1.1770    -1.2937 C.ar    
   4 C4            -2.5938     0.3600    -0.3341 C.ar    
   5 C5            -3.9059    -0.0362    -0.4644 C.ar    
   6 C6            -4.6523     0.3799    -1.5619 C.ar    
   7 N7            -5.9516     0.1529    -1.9642 N.pl3   
   8 C8            -6.1926     0.8012    -3.1444 C.2     
   9 C9            -5.0892     1.4550    -3.5410 C.2     
  10 C10           -4.9407     2.2880    -4.7881 C.3     
  11 N11           -4.2568     1.5017    -5.8236 N.3     
  12 C12           -4.3032     2.1875    -7.1218 C.3     
  13 C13           -2.8716     1.2079    -5.4325 C.3     
  14 C14           -4.0567     1.2051    -2.5323 C.ar    
  15 C15           -2.7263     1.6049    -2.3874 C.ar    
  16 H16            0.0021    -0.0041     0.0020 H       
  17 H17            1.0099     1.4631     0.0003 H       
  18 H18           -0.5229     1.4373     0.9048 H       
  19 H19           -2.0188     0.0340     0.5200 H       
  20 H20           -4.3554    -0.6704     0.2854 H       
  21 H21           -6.5982    -0.3861    -1.4822 H       
  22 H22           -7.1313     0.7886    -3.6783 H       
  23 H23           -5.9265     2.5828    -5.1477 H       
  24 H24           -4.3549     3.1790    -4.5623 H       
  25 H25           -3.8124     3.1572    -7.0382 H       
  26 H26           -3.7897     1.5838    -7.8702 H       
  27 H27           -5.3417     2.3304    -7.4204 H       
  28 H28           -2.8695     0.6387    -4.5029 H       
  29 H29           -2.3886     0.6250    -6.2167 H       
  30 H30           -2.3291     2.1421    -5.2877 H       
  31 H31           -2.2656     2.2390    -3.1304 H       
@<TRIPOS>BOND
   1    1   16 1
   2    1   17 1
   3    1   18 1
   4    1    2 1
   5    2    3 1
   6    3    4 ar
   7    3   15 ar
   8    4   19 1
   9    4    5 ar
  10    5   20 1
  11    5    6 ar
  12    6   14 ar
  13    6    7 1
  14    7   21 1
  15    7    8 1
  16    8    9 2
  17    8   22 1
  18    9   14 1
  19    9   10 1
  20   10   11 1
  21   10   23 1
  22   10   24 1
  23   11   13 1
  24   11   12 1
  25   12   25 1
  26   12   26 1
  27   12   27 1
  28   13   28 1
  29   13   29 1
  30   13   30 1
  31   14   15 ar
  32   15   31 1

#	End of record

