#	Name: ASD02038421
#	Creating user name:	WinNT
#	Creation time:	15. 06. 2019 20:16

#	Modifying user name:	WinNT
#	Modification time:	15. 06. 2019 20:16

#	Program:	/corina/corina34_cracker 3.40 0067  02.08.2006

@<TRIPOS>MOLECULE
ASD02038421
  50   53    0    0    0
SMALL
NO_CHARGES


@<TRIPOS>ATOM
   1 C1            -0.0167     1.3796     0.0096 C.ar    
   2 C2             0.0021    -0.0041     0.0020 C.ar    
   3 C3             1.1706     2.0903     0.0021 C.ar    
   4 C4             2.3781     1.4200    -0.0135 C.ar    
   5 C5             2.3999     0.0313    -0.0211 C.ar    
   6 C6             1.2066    -0.6796    -0.0126 C.ar    
   7 N7             3.6201    -0.6496    -0.0368 N.3     
   8 N8             5.6088    -2.4069     0.9939 N.3     
   9 C9             5.8174    -0.9523     0.9996 C.3     
  10 C10            4.4632    -0.2458     1.0971 C.3     
  11 C11            6.8915    -3.1227     0.9773 C.3     
  12 C12            6.6422    -4.6103     0.7213 C.3     
  13 C13            7.9782    -5.3558     0.7041 C.3     
  14 O14            5.8145    -5.1401     1.7588 O.3     
  15 O15            7.7566    -6.7224     0.3502 O.3     
  16 C16            8.8494    -7.5292     0.2890 C.ar    
  17 C17            8.7036    -8.8651    -0.0483 C.ar    
  18 C18            9.8179    -9.6870    -0.1106 C.ar    
  19 C19           11.0805    -9.1641     0.1668 C.ar    
  20 C20           11.2212    -7.8269     0.5032 C.ar    
  21 C21           10.1088    -7.0105     0.5591 C.ar    
  22 Cl22          -1.5326     2.2254     0.0214 Cl      
  23 C23            3.4115    -2.1043    -0.0426 C.3     
  24 C24            4.7657    -2.8107    -0.1401 C.3     
  25 O25            9.9814   -11.0001    -0.4052 O.3     
  26 C26           11.2842   -11.3124    -0.3228 C.2     
  27 N27           11.9876   -10.2165     0.0244 N.am    
  28 O28           11.7567   -12.4136    -0.5297 O.2     
  29 H29           -0.9261    -0.5562     0.0079 H       
  30 H30            1.1531     3.1701     0.0081 H       
  31 H31            3.3044     1.9752    -0.0200 H       
  32 H32            1.2207    -1.7594    -0.0182 H       
  33 H33            6.4338    -0.6767     1.8552 H       
  34 H34            6.3181    -0.6531     0.0788 H       
  35 H35            4.6135     0.8335     1.0723 H       
  36 H36            3.9744    -0.5239     2.0308 H       
  37 H37            7.5228    -2.7186     0.1859 H       
  38 H38            7.3896    -2.9979     1.9388 H       
  39 H39            6.1441    -4.7351    -0.2402 H       
  40 H40            8.6423    -4.8943    -0.0268 H       
  41 H41            8.4349    -5.3058     1.6925 H       
  42 H42            6.1958    -5.0628     2.6441 H       
  43 H43            7.7235    -9.2653    -0.2620 H       
  44 H44           12.1997    -7.4233     0.7182 H       
  45 H45           10.2177    -5.9684     0.8208 H       
  46 H46            2.9108    -2.4034     0.8782 H       
  47 H47            2.7951    -2.3799    -0.8982 H       
  48 H48            5.2545    -2.5327    -1.0738 H       
  49 H49            4.6154    -3.8900    -0.1153 H       
  50 H50           12.9480   -10.1676     0.1519 H       
@<TRIPOS>BOND
   1    1    2 ar
   2    1    3 ar
   3    1   22 1
   4    2    6 ar
   5    2   29 1
   6    3    4 ar
   7    3   30 1
   8    4    5 ar
   9    4   31 1
  10    5    6 ar
  11    5    7 1
  12    6   32 1
  13    7   23 1
  14    7   10 1
  15    8    9 1
  16    8   11 1
  17    8   24 1
  18    9   10 1
  19    9   33 1
  20    9   34 1
  21   10   35 1
  22   10   36 1
  23   11   12 1
  24   11   37 1
  25   11   38 1
  26   12   14 1
  27   12   13 1
  28   12   39 1
  29   13   15 1
  30   13   40 1
  31   13   41 1
  32   14   42 1
  33   15   16 1
  34   16   17 ar
  35   16   21 ar
  36   17   18 ar
  37   17   43 1
  38   18   19 ar
  39   18   25 1
  40   19   20 ar
  41   19   27 1
  42   20   21 ar
  43   20   44 1
  44   21   45 1
  45   23   24 1
  46   23   46 1
  47   23   47 1
  48   24   48 1
  49   24   49 1
  50   25   26 1
  51   26   27 am
  52   26   28 2
  53   27   50 1

#	End of record

