#	Name: ASD00843709
#	Creating user name:	WinNT
#	Creation time:	15. 06. 2019 18:47

#	Modifying user name:	WinNT
#	Modification time:	15. 06. 2019 18:47

#	Program:	/corina/corina34_cracker 3.40 0067  02.08.2006

@<TRIPOS>MOLECULE
ASD00843709
  84   89    0    0    0
SMALL
NO_CHARGES


@<TRIPOS>ATOM
   1 N1            -0.0159     1.3183     0.0093 N.ar    
   2 C2             0.0021    -0.0041     0.0020 C.ar    
   3 C3             1.2069    -0.6955    -0.0132 C.ar    
   4 C4             2.3925     0.0180    -0.0207 C.ar    
   5 C5             2.3308     1.4049    -0.0127 C.ar    
   6 C6             1.0980     2.0259     0.0025 C.ar    
   7 C7             1.2224    -2.2024    -0.0209 C.3     
   8 C8             0.4763    -2.7343    -1.2260 C.2     
   9 O9             2.5880    -2.6958    -0.0096 O.3     
  10 C10            3.3814    -2.3221    -1.0311 C.2     
  11 N11            4.6601    -2.7453    -1.0809 N.am    
  12 O12            2.9448    -1.6033    -1.9081 O.2     
  13 C13            5.5381    -2.3459    -2.1892 C.3     
  14 C14            6.1425    -3.6054    -2.8179 C.3     
  15 C15            6.8369    -4.4300    -1.7316 C.3     
  16 C16            5.8107    -4.8596    -0.6806 C.3     
  17 C17            5.2042    -3.6097    -0.0248 C.3     
  18 N18            7.4462    -5.6220    -2.3365 N.3     
  19 C19            8.2232    -6.3775    -1.3440 C.3     
  20 C20            8.7741    -7.6498    -1.9923 C.3     
  21 N21            9.6095    -7.2866    -3.1454 N.3     
  22 C22            8.8325    -6.5311    -4.1379 C.3     
  23 C23            8.2816    -5.2588    -3.4896 C.3     
  24 C24           10.2188    -8.4786    -3.7503 C.3     
  25 O25            0.7557    -2.5393    -2.3900 O.2     
  26 N26           -0.5539    -3.4626    -0.7638 N.am    
  27 C27            0.4501    -2.7460     1.1591 C.ar    
  28 C28           -0.5980    -3.4898     0.6311 C.ar    
  29 C29            0.6149    -2.6258     2.5206 C.ar    
  30 C30           -0.2710    -3.2513     3.3818 C.ar    
  31 C31           -1.3206    -3.9961     2.8679 C.ar    
  32 C32           -1.4864    -4.1171     1.5014 C.ar    
  33 Cl33          -0.0671    -3.1033     5.0994 Cl      
  34 F34           -2.1857    -4.6069     3.7068 F       
  35 C35           -1.0174    -5.8570    -2.0393 C.ar    
  36 C36           -1.3468    -6.8961    -1.1893 C.ar    
  37 C37           -0.1996    -6.0885    -3.1295 C.ar    
  38 C38            0.2888    -7.3591    -3.3696 C.ar    
  39 C39           -0.0402    -8.3982    -2.5194 C.ar    
  40 C40           -0.8580    -8.1667    -1.4292 C.ar    
  41 H41            0.3414    -9.3910    -2.7070 H       
  42 H42           -1.9857    -6.7153    -0.3375 H       
  43 C43           10.8711    -8.0984    -5.0810 C.3     
  44 S44           -1.6459    -4.2388    -1.7372 S.o2    
  45 O45           -2.8262    -4.4047    -0.9636 O.2     
  46 O46           -1.6238    -3.5603    -2.9856 O.2     
  47 O47           -1.1673    -0.6919     0.0099 O.3     
  48 C48           -2.3720     0.0766     0.0260 C.3     
  49 C49           -3.5777    -0.8652     0.0330 C.3     
  50 F50           -3.5507    -1.6659    -1.1140 F       
  51 F51           -3.5280    -1.6782     1.1704 F       
  52 H52            3.3442    -0.4925    -0.0322 H       
  53 H53            3.2375     1.9916    -0.0178 H       
  54 H54            1.0444     3.1046     0.0084 H       
  55 H55            4.9588    -1.8057    -2.9380 H       
  56 H56            6.3363    -1.7072    -1.8110 H       
  57 H57            5.3512    -4.1992    -3.2754 H       
  58 H58            6.8694    -3.3196    -3.5781 H       
  59 H59            7.6116    -3.8273    -1.2576 H       
  60 H60            5.0225    -5.4416    -1.1583 H       
  61 H61            6.3014    -5.4664     0.0803 H       
  62 H62            5.9766    -3.0766     0.5294 H       
  63 H63            4.4031    -3.9050     0.6529 H       
  64 H64            9.0502    -5.7643    -0.9862 H       
  65 H65            7.5798    -6.6457    -0.5060 H       
  66 H66            9.3748    -8.1973    -1.2660 H       
  67 H67            7.9463    -8.2758    -2.3257 H       
  68 H68            9.4759    -6.2630    -4.9759 H       
  69 H69            8.0055    -7.1444    -4.4957 H       
  70 H70            7.6809    -4.7114    -4.2159 H       
  71 H71            9.1094    -4.6329    -3.1562 H       
  72 H72           10.9753    -8.8814    -3.0768 H       
  73 H73            9.4497    -9.2311    -3.9245 H       
  74 H74            1.4345    -2.0447     2.9166 H       
  75 H75           -2.3067    -4.6987     1.1074 H       
  76 H76            0.0575    -5.2766    -3.7937 H       
  77 H77            0.9272    -7.5401    -4.2218 H       
  78 H78           -1.1153    -8.9786    -0.7651 H       
  79 H79           10.1146    -7.6956    -5.7545 H       
  80 H80           11.6402    -7.3459    -4.9068 H       
  81 H81           11.3232    -8.9829    -5.5299 H       
  82 H82           -2.3931     0.7004     0.9196 H       
  83 H83           -2.4108     0.7099    -0.8602 H       
  84 H84           -4.4966    -0.2790     0.0452 H       
@<TRIPOS>BOND
   1    1    2 ar
   2    1    6 ar
   3    2    3 ar
   4    2   47 1
   5    3    4 ar
   6    3    7 1
   7    4    5 ar
   8    4   52 1
   9    5    6 ar
  10    5   53 1
  11    6   54 1
  12    7    8 1
  13    7    9 1
  14    7   27 1
  15    8   25 2
  16    8   26 am
  17    9   10 1
  18   10   11 am
  19   10   12 2
  20   11   13 1
  21   11   17 1
  22   13   14 1
  23   13   55 1
  24   13   56 1
  25   14   15 1
  26   14   57 1
  27   14   58 1
  28   15   16 1
  29   15   18 1
  30   15   59 1
  31   16   17 1
  32   16   60 1
  33   16   61 1
  34   17   62 1
  35   17   63 1
  36   18   19 1
  37   18   23 1
  38   19   20 1
  39   19   64 1
  40   19   65 1
  41   20   21 1
  42   20   66 1
  43   20   67 1
  44   21   22 1
  45   21   24 1
  46   22   23 1
  47   22   68 1
  48   22   69 1
  49   23   70 1
  50   23   71 1
  51   24   43 1
  52   24   72 1
  53   24   73 1
  54   26   44 am
  55   26   28 1
  56   27   28 ar
  57   27   29 ar
  58   28   32 ar
  59   29   30 ar
  60   29   74 1
  61   30   31 ar
  62   30   33 1
  63   31   32 ar
  64   31   34 1
  65   32   75 1
  66   35   36 ar
  67   35   37 ar
  68   35   44 1
  69   36   42 1
  70   36   40 ar
  71   37   38 ar
  72   37   76 1
  73   38   39 ar
  74   38   77 1
  75   39   40 ar
  76   39   41 1
  77   40   78 1
  78   43   79 1
  79   43   80 1
  80   43   81 1
  81   44   45 2
  82   44   46 2
  83   47   48 1
  84   48   49 1
  85   48   82 1
  86   48   83 1
  87   49   50 1
  88   49   51 1
  89   49   84 1

#	End of record

