#	Name: ASD01815010
#	Creating user name:	WinNT
#	Creation time:	15. 06. 2019 19:33

#	Modifying user name:	WinNT
#	Modification time:	15. 06. 2019 19:33

#	Program:	/corina/corina34_cracker 3.40 0067  02.08.2006

@<TRIPOS>MOLECULE
ASD01815010
  52   55    0    0    0
SMALL
NO_CHARGES


@<TRIPOS>ATOM
   1 C1            -1.2710     0.3009     0.2719 C.2     
   2 C2            -0.8284    -1.0287     0.2561 C.2     
   3 C3             0.5067    -1.2908     0.1562 C.2     
   4 C4             1.4155    -0.2229     0.0707 C.2     
   5 N5             0.9555     1.0658     0.0888 N.am    
   6 C6            -0.3811     1.3156     0.1886 C.2     
   7 C7             2.7880    -0.4896    -0.0320 C.2     
   8 C8             3.6794     0.5404    -0.1151 C.2     
   9 C9             3.2028     1.8643    -0.0968 C.2     
  10 C10            1.8167     2.1000     0.0078 C.2     
  11 O11            1.3949     3.2441     0.0240 O.2     
  12 C12            4.1385     2.9876    -0.1842 C.2     
  13 O13            3.6752     4.2544    -0.1661 O.3     
  14 O14            5.3335     2.7782    -0.2731 O.2     
  15 C15            3.2793    -1.9142    -0.0501 C.3     
  16 N16            3.4460    -2.3571    -1.4407 N.3     
  17 C17            4.1434    -3.6479    -1.5020 C.3     
  18 C18            4.4279    -4.0067    -2.9622 C.3     
  19 C19            3.1059    -4.0828    -3.7309 C.3     
  20 C20            2.3769    -2.7416    -3.6109 C.3     
  21 C21            2.1518    -2.4194    -2.1319 C.3     
  22 H22            2.4849    -4.8738    -3.3104 H       
  23 H23            5.0837    -3.5790    -0.9551 H       
  24 C24            5.3213    -2.9334    -3.5872 C.3     
  25 C25            3.3836    -4.3784    -5.1823 C.ar    
  26 C26            3.8408    -3.3756    -6.0168 C.ar    
  27 C27            4.0954    -3.6468    -7.3481 C.ar    
  28 C28            3.8933    -4.9209    -7.8449 C.ar    
  29 C29            3.4370    -5.9239    -7.0103 C.ar    
  30 C30            3.1864    -5.6537    -5.6779 C.ar    
  31 H31           -2.3268     0.5158     0.3463 H       
  32 H32           -1.5387    -1.8395     0.3229 H       
  33 H33            0.8619    -2.3106     0.1432 H       
  34 H34           -0.7334     2.3364     0.2020 H       
  35 H35            4.7381     0.3418    -0.1937 H       
  36 H36            4.3310     4.9625    -0.2263 H       
  37 H37            4.2365    -1.9750     0.4678 H       
  38 H38            2.5537    -2.5551     0.4509 H       
  39 H39            3.5183    -4.4200    -1.0534 H       
  40 H40            4.9317    -4.9723    -3.0082 H       
  41 H41            2.9811    -1.9570    -4.0664 H       
  42 H42            1.4153    -2.8032    -4.1204 H       
  43 H43            1.5361    -3.1973    -1.6804 H       
  44 H44            1.6457    -1.4582    -2.0425 H       
  45 H45            6.2089    -2.7947    -2.9700 H       
  46 H46            5.6198    -3.2465    -4.5877 H       
  47 H47            4.7716    -1.9941    -3.6493 H       
  48 H48            3.9987    -2.3802    -5.6286 H       
  49 H49            4.4519    -2.8632    -8.0002 H       
  50 H50            4.0916    -5.1326    -8.8853 H       
  51 H51            3.2787    -6.9192    -7.3985 H       
  52 H52            2.8335    -6.4382    -5.0250 H       
@<TRIPOS>BOND
   1    1    2 1
   2    1    6 2
   3    1   31 1
   4    2    3 2
   5    2   32 1
   6    3    4 1
   7    3   33 1
   8    4    5 1
   9    4    7 2
  10    5    6 1
  11    5   10 am
  12    6   34 1
  13    7    8 1
  14    7   15 1
  15    8    9 2
  16    8   35 1
  17    9   10 1
  18    9   12 1
  19   10   11 2
  20   12   13 1
  21   12   14 2
  22   13   36 1
  23   15   16 1
  24   15   37 1
  25   15   38 1
  26   16   17 1
  27   16   21 1
  28   17   18 1
  29   17   23 1
  30   17   39 1
  31   18   19 1
  32   18   24 1
  33   18   40 1
  34   19   22 1
  35   19   25 1
  36   19   20 1
  37   20   21 1
  38   20   41 1
  39   20   42 1
  40   21   43 1
  41   21   44 1
  42   24   45 1
  43   24   46 1
  44   24   47 1
  45   25   26 ar
  46   25   30 ar
  47   26   27 ar
  48   26   48 1
  49   27   28 ar
  50   27   49 1
  51   28   29 ar
  52   28   50 1
  53   29   30 ar
  54   29   51 1
  55   30   52 1

#	End of record

