#	Name: ASD01140677
#	Creating user name:	WinNT
#	Creation time:	15. 06. 2019 19:01

#	Modifying user name:	WinNT
#	Modification time:	15. 06. 2019 19:01

#	Program:	/corina/corina34_cracker 3.40 0067  02.08.2006

@<TRIPOS>MOLECULE
ASD01140677
  47   51    0    0    0
SMALL
NO_CHARGES


@<TRIPOS>ATOM
   1 C1             1.4730    -8.9189     3.5930 C.3     
   2 N2             1.4328    -8.1542     4.8419 N.am    
   3 C3             1.7291    -8.7483     6.0176 C.2     
   4 O4             2.0612    -9.9146     6.0423 O.2     
   5 C5             1.6469    -7.9591     7.2993 C.3     
   6 O6             1.9613    -6.5883     7.0389 O.3     
   7 C7             1.3647    -6.0207     5.9585 C.ar    
   8 C8             1.0272    -4.6786     5.9586 C.ar    
   9 C9             0.4162    -4.1523     4.8203 C.ar    
  10 N10            0.0560    -2.8008     4.7701 N.pl3   
  11 C11           -0.3728    -2.1509     5.9253 C.ar    
  12 C12           -0.6073    -0.7847     5.8923 C.ar    
  13 C13           -1.0347    -0.1521     7.0517 C.ar    
  14 N14           -1.3583     1.1394     7.3959 N.pl3   
  15 C15           -1.3266     2.3072     6.5119 C.3     
  16 C16           -2.6436     2.3973     5.7385 C.3     
  17 C17           -3.5283     3.6201     5.9898 C.3     
  18 C18           -2.7631     3.4874     4.6715 C.3     
  19 C19           -1.7140     1.1318     8.7118 C.2     
  20 N20           -1.6292    -0.0744     9.1914 N.2     
  21 C21           -1.2135    -0.9241     8.2176 C.ar    
  22 C22           -0.9548    -2.2926     8.1629 C.ar    
  23 C23           -1.1384    -3.1396     9.3957 C.3     
  24 N24           -0.5556    -2.8507     7.0387 N.ar    
  25 C25            0.1706    -4.9851     3.7384 C.ar    
  26 N26            0.5057    -6.2615     3.7733 N.ar    
  27 C27            1.0922    -6.7962     4.8316 C.ar    
  28 H28            2.4731    -8.8611     3.1636 H       
  29 H29            1.2246    -9.9605     3.7966 H       
  30 H30            0.7510    -8.5040     2.8896 H       
  31 H31            0.6376    -8.0294     7.7048 H       
  32 H32            2.3567    -8.3637     8.0209 H       
  33 H33            1.2309    -4.0556     6.8169 H       
  34 H34            0.1049    -2.3166     3.9311 H       
  35 H35           -0.4599    -0.2232     4.9816 H       
  36 H36           -1.1925     3.2102     7.1076 H       
  37 H37           -0.4988     2.2090     5.8097 H       
  38 H38           -3.1412     1.4470     5.5450 H       
  39 H39           -4.6081     3.4744     5.9619 H       
  40 H40           -3.1720     4.3604     6.7062 H       
  41 H41           -1.9035     4.1403     4.5206 H       
  42 H42           -3.3396     3.2543     3.7763 H       
  43 H43           -2.0213     2.0009     9.2744 H       
  44 H44           -2.1601    -3.5180     9.4277 H       
  45 H45           -0.4414    -3.9772     9.3682 H       
  46 H46           -0.9465    -2.5362    10.2830 H       
  47 H47           -0.3022    -4.5834     2.8545 H       
@<TRIPOS>BOND
   1    1    2 1
   2    1   28 1
   3    1   29 1
   4    1   30 1
   5    2   27 1
   6    2    3 am
   7    3    4 2
   8    3    5 1
   9    5    6 1
  10    5   31 1
  11    5   32 1
  12    6    7 1
  13    7   27 ar
  14    7    8 ar
  15    8    9 ar
  16    8   33 1
  17    9   10 1
  18    9   25 ar
  19   10   11 1
  20   10   34 1
  21   11   24 ar
  22   11   12 ar
  23   12   13 ar
  24   12   35 1
  25   13   21 ar
  26   13   14 1
  27   14   15 1
  28   14   19 1
  29   15   16 1
  30   15   36 1
  31   15   37 1
  32   16   18 1
  33   16   17 1
  34   16   38 1
  35   17   18 1
  36   17   39 1
  37   17   40 1
  38   18   41 1
  39   18   42 1
  40   19   20 2
  41   19   43 1
  42   20   21 1
  43   21   22 ar
  44   22   23 1
  45   22   24 ar
  46   23   44 1
  47   23   45 1
  48   23   46 1
  49   25   26 ar
  50   25   47 1
  51   26   27 ar

#	End of record

