#	Name: ASD00111034
#	Creating user name:	WinNT
#	Creation time:	15. 06. 2019 18:30

#	Modifying user name:	WinNT
#	Modification time:	15. 06. 2019 18:30

#	Program:	/corina/corina34_cracker 3.40 0067  02.08.2006

@<TRIPOS>MOLECULE
ASD00111034
  27   28    0    0    0
SMALL
NO_CHARGES


@<TRIPOS>ATOM
   1 C1            -0.0167     1.3802     0.0096 C.ar    
   2 C2             0.0021    -0.0041     0.0020 C.ar    
   3 C3             1.2112    -0.6810    -0.0122 C.ar    
   4 C4             2.3938     0.0341    -0.0191 C.ar    
   5 C5             2.3739     1.4076    -0.0127 C.ar    
   6 C6             1.1711     2.0890     0.0021 C.ar    
   7 C7             3.7179    -0.7014    -0.0332 C.3     
   8 C8             4.3748    -0.4828    -1.3998 C.3     
   9 N9             5.1193     0.7657    -1.4222 N.3     
  10 C10            4.3388     1.9918    -1.3895 C.3     
  11 C11            3.6767     2.1806    -0.0213 C.3     
  12 C12            3.3966     3.6660     0.2156 C.3     
  13 F13           -1.1587    -0.6952     0.0089 F       
  14 H14           -0.9594     1.9070     0.0169 H       
  15 H15            1.2292    -1.7609    -0.0175 H       
  16 H16            1.1589     3.1689     0.0080 H       
  17 H17            4.3642    -0.3096     0.7521 H       
  18 H18            3.5484    -1.7662     0.1268 H       
  19 H19            5.0546    -1.3093    -1.6071 H       
  20 H20            3.6024    -0.4534    -2.1683 H       
  21 H21            5.8344     0.7731    -0.7104 H       
  22 H22            4.9941     2.8393    -1.5906 H       
  23 H23            3.5671     1.9460    -2.1579 H       
  24 H24            4.3342     1.8008     0.7607 H       
  25 H25            2.7307     4.0388    -0.5626 H       
  26 H26            2.9256     3.7960     1.1899 H       
  27 H27            4.3341     4.2213     0.1882 H       
@<TRIPOS>BOND
   1    1    2 ar
   2    1    6 ar
   3    1   14 1
   4    2    3 ar
   5    2   13 1
   6    3    4 ar
   7    3   15 1
   8    4    5 ar
   9    4    7 1
  10    5    6 ar
  11    5   11 1
  12    6   16 1
  13    7    8 1
  14    7   17 1
  15    7   18 1
  16    8    9 1
  17    8   19 1
  18    8   20 1
  19    9   10 1
  20    9   21 1
  21   10   11 1
  22   10   22 1
  23   10   23 1
  24   11   12 1
  25   11   24 1
  26   12   25 1
  27   12   26 1
  28   12   27 1

#	End of record

