#	Name: ASD08150349
#	Creating user name:	WinNT
#	Creation time:	15. 06. 2019 21:15

#	Modifying user name:	WinNT
#	Modification time:	15. 06. 2019 21:15

#	Program:	/corina/corina34_cracker 3.40 0067  02.08.2006

@<TRIPOS>MOLECULE
ASD08150349
  46   50    0    0    0
SMALL
NO_CHARGES


@<TRIPOS>ATOM
   1 C1             1.0450    -0.2189     1.0530 C.3     
   2 N2             1.5489    -4.3558    -1.5567 N.am    
   3 C3             2.6502    -4.3794    -2.3322 C.2     
   4 C4             2.6439    -5.0385    -3.5783 C.2     
   5 C5             1.5201    -5.6617    -4.0158 C.2     
   6 C6             0.3596    -5.6388    -3.2024 C.ar    
   7 C7            -0.8319    -6.2692    -3.6087 C.ar    
   8 N8            -1.9012    -6.2462    -2.8565 N.ar    
   9 C9            -1.9279    -5.6284    -1.6660 C.ar    
  10 C10           -0.7738    -4.9680    -1.1769 C.ar    
  11 C11            0.3998    -4.9740    -1.9670 C.ar    
  12 C12           -0.8122    -4.3262     0.0645 C.ar    
  13 C13           -1.9834    -4.3434     0.8057 C.ar    
  14 C14           -3.1216    -4.9996     0.3150 C.ar    
  15 C15           -3.0993    -5.6281    -0.8905 C.ar    
  16 O16            3.6660    -3.8229    -1.9514 O.2     
  17 C17           -2.0330    -3.6656     2.1228 C.ar    
  18 C18            1.5825    -3.6991    -0.3202 C.ar    
  19 C19            1.8903    -4.4065     0.8348 C.ar    
  20 C20            1.9233    -3.7571     2.0528 C.ar    
  21 C21            1.6498    -2.4011     2.1234 C.ar    
  22 C22            1.3427    -1.6940     0.9731 C.ar    
  23 C23            1.3137    -2.3388    -0.2480 C.ar    
  24 F24            1.6826    -1.7675     3.3162 F       
  25 C25           -1.3513    -2.4637     2.3260 C.ar    
  26 N26           -1.3907    -1.8580     3.4913 N.ar    
  27 C27           -2.0739    -2.3570     4.5159 C.ar    
  28 C28           -2.7803    -3.5544     4.3886 C.ar    
  29 C29           -2.7679    -4.2183     3.1768 C.ar    
  30 C30           -2.0855    -1.6583     5.7658 C.1     
  31 N31           -2.0946    -1.1041     6.7574 N.1     
  32 H32            1.9700     0.3454     0.9344 H       
  33 H33            0.3484     0.0546     0.2605 H       
  34 H34            0.6013     0.0103     2.0219 H       
  35 H35            3.5359    -5.0474    -4.1871 H       
  36 H36            1.5103    -6.1673    -4.9700 H       
  37 H37           -0.8634    -6.7809    -4.5592 H       
  38 H38            0.0641    -3.8213     0.4433 H       
  39 H39           -4.0277    -5.0062     0.9026 H       
  40 H40           -3.9852    -6.1280    -1.2534 H       
  41 H41            2.1033    -5.4639     0.7802 H       
  42 H42            2.1623    -4.3069     2.9511 H       
  43 H43            1.0782    -1.7861    -1.1454 H       
  44 H44           -0.7850    -2.0276     1.5163 H       
  45 H45           -3.3332    -3.9546     5.2255 H       
  46 H46           -3.3054    -5.1463     3.0492 H       
@<TRIPOS>BOND
   1    1   22 1
   2    1   32 1
   3    1   33 1
   4    1   34 1
   5    2    3 am
   6    2   11 1
   7    2   18 1
   8    3    4 1
   9    3   16 2
  10    4    5 2
  11    4   35 1
  12    5    6 1
  13    5   36 1
  14    6    7 ar
  15    6   11 ar
  16    7    8 ar
  17    7   37 1
  18    8    9 ar
  19    9   10 ar
  20    9   15 ar
  21   10   11 ar
  22   10   12 ar
  23   12   13 ar
  24   12   38 1
  25   13   14 ar
  26   13   17 1
  27   14   15 ar
  28   14   39 1
  29   15   40 1
  30   17   25 ar
  31   17   29 ar
  32   18   19 ar
  33   18   23 ar
  34   19   20 ar
  35   19   41 1
  36   20   21 ar
  37   20   42 1
  38   21   22 ar
  39   21   24 1
  40   22   23 ar
  41   23   43 1
  42   25   26 ar
  43   25   44 1
  44   26   27 ar
  45   27   28 ar
  46   27   30 1
  47   28   29 ar
  48   28   45 1
  49   29   46 1
  50   30   31 3

#	End of record

