#	Name: ASD01881662
#	Creating user name:	WinNT
#	Creation time:	15. 06. 2019 19:43

#	Modifying user name:	WinNT
#	Modification time:	15. 06. 2019 19:43

#	Program:	/corina/corina34_cracker 3.40 0067  02.08.2006

@<TRIPOS>MOLECULE
ASD01881662
  58   62    0    0    0
SMALL
NO_CHARGES


@<TRIPOS>ATOM
   1 C1             0.6624     1.5167     1.5409 C.2     
   2 N2             0.4738     0.1930     1.5875 N.am    
   3 C3             0.8933    -0.4090     0.4571 C.2     
   4 C4             1.4224     0.7027    -0.4271 C.3     
   5 N5             1.2207     1.9158     0.3839 N.am    
   6 O6             0.3585     2.2745     2.4412 O.2     
   7 O7             0.8560    -1.5934     0.2009 O.2     
   8 C8            -0.1151    -0.5148     2.7270 C.3     
   9 C9            -1.6326    -0.5945     2.5488 C.3     
  10 C10            2.4765     3.9003     1.0668 C.3     
  11 C11            1.5609     3.2893     0.0041 C.3     
  12 C12            2.2807     3.2816    -1.3460 C.3     
  13 C13            0.3001     4.1077    -0.1035 C.ar    
  14 C14            0.3642     5.4867    -0.0151 C.ar    
  15 C15           -0.7871     6.2413    -0.1129 C.ar    
  16 C16           -2.0163     5.6113    -0.3011 C.ar    
  17 C17           -2.0747     4.2213    -0.3894 C.ar    
  18 C18           -0.9162     3.4774    -0.2959 C.ar    
  19 C19           -6.9495     8.4527    -0.7407 C.2     
  20 N20           -7.8218     7.4439    -0.9079 N.am    
  21 C21           -7.0852     6.1751    -0.8919 C.3     
  22 C22           -5.6334     6.5327    -0.6916 C.ar    
  23 C23           -4.4869     5.7836    -0.5949 C.ar    
  24 C24           -3.2569     6.4165    -0.4065 C.ar    
  25 C25           -3.1963     7.8076    -0.3169 C.ar    
  26 C26           -4.3458     8.5583    -0.4137 C.ar    
  27 C27           -5.5787     7.9271    -0.6025 C.ar    
  28 O28           -7.2476     9.6309    -0.7125 O.2     
  29 C29           -9.2698     7.5876    -1.0774 C.3     
  30 C30          -10.0499     8.2623     0.0527 C.3     
  31 C31           -9.8220     9.0018    -1.2672 C.3     
  32 H32            2.4815     0.5540    -0.6378 H       
  33 H33            0.8507     0.7611    -1.3533 H       
  34 H34            0.2976    -1.5222     2.7817 H       
  35 H35            0.1150     0.0227     3.6469 H       
  36 H36           -2.0709    -1.1211     3.3966 H       
  37 H37           -2.0454     0.4128     2.4940 H       
  38 H38           -1.8627    -1.1320     1.6289 H       
  39 H39            3.3884     3.3083     1.1446 H       
  40 H40            2.7296     4.9222     0.7842 H       
  41 H41            1.9637     3.9057     2.0286 H       
  42 H42            1.6285     2.8463    -2.1030 H       
  43 H43            2.5339     4.3035    -1.6285 H       
  44 H44            3.1927     2.6897    -1.2682 H       
  45 H45            1.3170     5.9737     0.1311 H       
  46 H46           -0.7359     7.3179    -0.0434 H       
  47 H47           -3.0243     3.7279    -0.5352 H       
  48 H48           -0.9596     2.4007    -0.3689 H       
  49 H49           -7.4339     5.5498    -0.0699 H       
  50 H50           -7.2153     5.6544    -1.8406 H       
  51 H51           -4.5364     4.7070    -0.6650 H       
  52 H52           -2.2446     8.2967    -0.1707 H       
  53 H53           -4.2953     9.6349    -0.3436 H       
  54 H54           -9.7627     6.7781    -1.6157 H       
  55 H55          -11.0562     7.8969     0.2577 H       
  56 H56           -9.4857     8.5993     0.9223 H       
  57 H57           -9.1079     9.8253    -1.2659 H       
  58 H58          -10.6784     9.1229    -1.9306 H       
@<TRIPOS>BOND
   1    1    2 am
   2    1    5 am
   3    1    6 2
   4    2    3 am
   5    2    8 1
   6    3    4 1
   7    3    7 2
   8    4    5 1
   9    4   32 1
  10    4   33 1
  11    5   11 1
  12    8    9 1
  13    8   34 1
  14    8   35 1
  15    9   36 1
  16    9   37 1
  17    9   38 1
  18   10   11 1
  19   10   39 1
  20   10   40 1
  21   10   41 1
  22   11   12 1
  23   11   13 1
  24   12   42 1
  25   12   43 1
  26   12   44 1
  27   13   14 ar
  28   13   18 ar
  29   14   15 ar
  30   14   45 1
  31   15   16 ar
  32   15   46 1
  33   16   17 ar
  34   16   24 1
  35   17   18 ar
  36   17   47 1
  37   18   48 1
  38   19   20 am
  39   19   27 1
  40   19   28 2
  41   20   21 1
  42   20   29 1
  43   21   22 1
  44   21   49 1
  45   21   50 1
  46   22   23 ar
  47   22   27 ar
  48   23   24 ar
  49   23   51 1
  50   24   25 ar
  51   25   26 ar
  52   25   52 1
  53   26   27 ar
  54   26   53 1
  55   29   30 1
  56   29   31 1
  57   29   54 1
  58   30   31 1
  59   30   55 1
  60   30   56 1
  61   31   57 1
  62   31   58 1

#	End of record

