#	Name: ASD03090308
#	Creating user name:	WinNT
#	Creation time:	15. 06. 2019 20:28

#	Modifying user name:	WinNT
#	Modification time:	15. 06. 2019 20:28

#	Program:	/corina/corina34_cracker 3.40 0067  02.08.2006

@<TRIPOS>MOLECULE
ASD03090308
  56   59    0    0    0
SMALL
NO_CHARGES


@<TRIPOS>ATOM
   1 C1            -0.3079     1.4367    -1.4401 C.ar    
   2 C2            -0.2802     0.0436    -1.4531 C.ar    
   3 C3            -1.4243    -0.6730    -1.1568 C.ar    
   4 C4            -2.6059     0.0019    -0.8449 C.ar    
   5 C5            -2.6271     1.3969    -0.8336 C.ar    
   6 C6            -1.4806     2.1067    -1.1250 C.ar    
   7 C7            -3.8329    -0.7603    -0.5276 C.2     
   8 N8            -5.5887    -3.6394     0.4666 N.pl3   
   9 C9            -4.6548    -4.6183     0.8160 C.ar    
  10 C10           -3.4565    -4.2535     1.4171 C.ar    
  11 C11           -2.5331    -5.2216     1.7620 C.ar    
  12 C12           -2.7984    -6.5541     1.5105 C.ar    
  13 C13           -3.9940    -6.9246     0.9101 C.ar    
  14 C14           -4.9255    -5.9574     0.5682 C.ar    
  15 N15           -3.8857    -2.0203    -0.1430 N.2     
  16 C16           -5.1562    -2.3772     0.0548 C.2     
  17 N17           -5.9341    -1.3509    -0.2004 N.2     
  18 N18           -5.0984    -0.2865    -0.5751 N.pl3   
  19 C19           -5.5156     1.0664    -0.9519 C.3     
  20 C20           -5.6205     1.9222     0.2841 C.2     
  21 N21           -5.9913     3.2138     0.1800 N.am    
  22 O22           -4.2529    -8.2355     0.6627 O.3     
  23 O23           -5.3714     1.4487     1.3725 O.2     
  24 C24           -6.0933     4.0457     1.3815 C.3     
  25 O25            0.8724    -0.6108    -1.7578 O.3     
  26 C26            0.8283    -2.0391    -1.7522 C.3     
  27 C27           -5.9341     5.5576     1.2095 C.3     
  28 C28           -7.3122     4.9622     1.5048 C.3     
  29 O29            0.8180     2.1403    -1.7312 O.3     
  30 C30            0.7188     3.5655    -1.6993 C.3     
  31 C31           -3.2502    -9.1785     1.0465 C.3     
  32 F32           -3.0324    -9.0922     2.4258 F       
  33 F33           -3.6766   -10.4708     0.7217 F       
  34 F34           -2.0600    -8.8958     0.3679 F       
  35 H35           -1.4044    -1.7527    -1.1669 H       
  36 H36           -3.5402     1.9210    -0.5929 H       
  37 H37           -1.4984     3.1865    -1.1159 H       
  38 H38           -6.5374    -3.8366     0.5100 H       
  39 H39           -3.2465    -3.2127     1.6145 H       
  40 H40           -1.6020    -4.9362     2.2289 H       
  41 H41           -2.0744    -7.3085     1.7810 H       
  42 H42           -5.8562    -6.2438     0.1011 H       
  43 H43           -4.7800     1.4976    -1.6309 H       
  44 H44           -6.4856     1.0228    -1.4471 H       
  45 H45           -6.1905     3.5925    -0.6905 H       
  46 H46           -5.7041     3.5995     2.2967 H       
  47 H47            1.8107    -2.4339    -2.0112 H       
  48 H48            0.5459    -2.3900    -0.7596 H       
  49 H49            0.0948    -2.3829    -2.4815 H       
  50 H50           -5.4405     6.1062     2.0117 H       
  51 H51           -5.7535     5.9334     0.2024 H       
  52 H52           -8.0382     4.9461     0.6919 H       
  53 H53           -7.7253     5.1190     2.5013 H       
  54 H54           -0.0272     3.8941    -2.4230 H       
  55 H55            0.4226     3.8869    -0.7008 H       
  56 H56            1.6853     4.0027    -1.9500 H       
@<TRIPOS>BOND
   1    1    2 ar
   2    1   29 1
   3    1    6 ar
   4    2    3 ar
   5    2   25 1
   6    3    4 ar
   7    3   35 1
   8    4    5 ar
   9    4    7 1
  10    5    6 ar
  11    5   36 1
  12    6   37 1
  13    7   15 2
  14    7   18 1
  15    8    9 1
  16    8   16 1
  17    8   38 1
  18    9   10 ar
  19    9   14 ar
  20   10   11 ar
  21   10   39 1
  22   11   12 ar
  23   11   40 1
  24   12   13 ar
  25   12   41 1
  26   13   14 ar
  27   13   22 1
  28   14   42 1
  29   15   16 1
  30   16   17 2
  31   17   18 1
  32   18   19 1
  33   19   20 1
  34   19   43 1
  35   19   44 1
  36   20   21 am
  37   20   23 2
  38   21   24 1
  39   21   45 1
  40   22   31 1
  41   24   27 1
  42   24   28 1
  43   24   46 1
  44   25   26 1
  45   26   47 1
  46   26   48 1
  47   26   49 1
  48   27   28 1
  49   27   50 1
  50   27   51 1
  51   28   52 1
  52   28   53 1
  53   29   30 1
  54   30   54 1
  55   30   55 1
  56   30   56 1
  57   31   32 1
  58   31   33 1
  59   31   34 1

#	End of record

