#	Name: ASD08150412
#	Creating user name:	WinNT
#	Creation time:	15. 06. 2019 21:16

#	Modifying user name:	WinNT
#	Modification time:	15. 06. 2019 21:16

#	Program:	/corina/corina34_cracker 3.40 0067  02.08.2006

@<TRIPOS>MOLECULE
ASD08150412
  48   53    0    0    0
SMALL
NO_CHARGES


@<TRIPOS>ATOM
   1 N1             0.8851     2.9194    -1.5591 N.am    
   2 C2             1.3132     2.2953    -2.6735 C.2     
   3 C3             2.5230     1.5716    -2.6782 C.2     
   4 C4             3.2769     1.4939    -1.5522 C.2     
   5 C5             2.8295     2.1494    -0.3779 C.ar    
   6 C6             3.5734     2.1008     0.8165 C.ar    
   7 N7             3.1583     2.7064     1.8984 N.ar    
   8 C8             2.0122     3.4029     1.9359 C.ar    
   9 C9             1.1996     3.5057     0.7800 C.ar    
  10 C10            1.6205     2.8614    -0.4070 C.ar    
  11 C11            0.0066     4.2331     0.8299 C.ar    
  12 C12           -0.3689     4.8475     2.0137 C.ar    
  13 C13            0.4407     4.7417     3.1534 C.ar    
  14 C14            1.6038     4.0378     3.1204 C.ar    
  15 O15            0.6453     2.3568    -3.6916 O.2     
  16 C16           -1.6328     5.6210     2.0753 C.ar    
  17 C17           -0.3174     3.6368    -1.5817 C.ar    
  18 C18           -0.3111     4.9952    -1.8692 C.ar    
  19 C19           -1.4992     5.7011    -1.8914 C.ar    
  20 C20           -2.6955     5.0538    -1.6265 C.ar    
  21 C21           -2.7028     3.6991    -1.3392 C.ar    
  22 C22           -1.5184     2.9893    -1.3221 C.ar    
  23 Cl23          -1.4927     7.3995    -2.2508 Cl      
  24 C24           -2.7637     5.1855     1.3664 C.ar    
  25 N25           -3.8919     5.8480     1.4023 N.ar    
  26 C26           -4.0240     6.9717     2.1152 C.ar    
  27 C27           -2.9271     7.4762     2.8584 C.ar    
  28 C28           -1.7079     6.7773     2.8384 C.ar    
  29 C29           -5.2439     7.6698     2.1410 C.ar    
  30 C30           -5.3545     8.8115     2.8735 C.ar    
  31 C31           -4.2751     9.3056     3.6034 C.ar    
  32 C32           -3.0776     8.6583     3.6031 C.ar    
  33 F33           -3.8559     5.7452    -1.6481 F       
  34 H34            2.8508     1.0770    -3.5807 H       
  35 H35            4.2042     0.9403    -1.5510 H       
  36 H36            4.5039     1.5530     0.8396 H       
  37 H37           -0.6174     4.3158    -0.0477 H       
  38 H38            0.1368     5.2260     4.0696 H       
  39 H39            2.2150     3.9661     4.0080 H       
  40 H40            0.6214     5.4997    -2.0749 H       
  41 H41           -3.6361     3.1965    -1.1326 H       
  42 H42           -1.5250     1.9328    -1.0980 H       
  43 H43           -2.7011     4.2825     0.7772 H       
  44 H44           -0.8530     7.1341     3.3936 H       
  45 H45           -6.0907     7.3014     1.5810 H       
  46 H46           -6.2942     9.3436     2.8890 H       
  47 H47           -4.3899    10.2141     4.1759 H       
  48 H48           -2.2480     9.0507     4.1726 H       
@<TRIPOS>BOND
   1    1    2 am
   2    1   10 1
   3    1   17 1
   4    2    3 1
   5    2   15 2
   6    3    4 2
   7    3   34 1
   8    4    5 1
   9    4   35 1
  10    5    6 ar
  11    5   10 ar
  12    6    7 ar
  13    6   36 1
  14    7    8 ar
  15    8    9 ar
  16    8   14 ar
  17    9   10 ar
  18    9   11 ar
  19   11   12 ar
  20   11   37 1
  21   12   13 ar
  22   12   16 1
  23   13   14 ar
  24   13   38 1
  25   14   39 1
  26   16   24 ar
  27   16   28 ar
  28   17   18 ar
  29   17   22 ar
  30   18   19 ar
  31   18   40 1
  32   19   20 ar
  33   19   23 1
  34   20   21 ar
  35   20   33 1
  36   21   22 ar
  37   21   41 1
  38   22   42 1
  39   24   25 ar
  40   24   43 1
  41   25   26 ar
  42   26   27 ar
  43   26   29 ar
  44   27   28 ar
  45   27   32 ar
  46   28   44 1
  47   29   30 ar
  48   29   45 1
  49   30   31 ar
  50   30   46 1
  51   31   32 ar
  52   31   47 1
  53   32   48 1

#	End of record

