#	Name: ASD01790013
#	Creating user name:	WinNT
#	Creation time:	15. 06. 2019 19:23

#	Modifying user name:	WinNT
#	Modification time:	15. 06. 2019 19:23

#	Program:	/corina/corina34_cracker 3.40 0067  02.08.2006

@<TRIPOS>MOLECULE
ASD01790013
  43   45    0    0    0
SMALL
NO_CHARGES


@<TRIPOS>ATOM
   1 C1            -0.0168     1.3900     0.0097 C.ar    
   2 C2             0.0021    -0.0041     0.0020 C.ar    
   3 C3            -1.1889    -0.7178     0.0100 C.ar    
   4 C4            -2.3948    -0.0518     0.0256 C.ar    
   5 C5            -2.4212     1.3456     0.0334 C.ar    
   6 C6            -1.2221     2.0641     0.0306 C.ar    
   7 O7             1.1516     2.0859     0.0023 O.3     
   8 O8             1.1880    -0.6653    -0.0138 O.3     
   9 C9            -3.7111     2.0603     0.0501 C.2     
  10 O10           -4.8659     1.3661     0.0579 O.3     
  11 O11           -3.7324     3.2751     0.0568 O.2     
  12 C12           -6.0973     2.1353     0.0743 C.3     
  13 C13           -7.1989     1.3498    -0.6402 C.3     
  14 C14           -8.4964     2.1603    -0.6229 C.3     
  15 C15           -8.9146     2.4228     0.8253 C.3     
  16 C16           -7.8130     3.2082     1.5398 C.3     
  17 C17           -6.5154     2.3977     1.5225 C.3     
  18 C18           -9.5980     1.3749    -1.3374 C.3     
  19 C19          -10.8955     2.1854    -1.3201 C.3     
  20 C20          -11.3137     2.4478     0.1281 C.3     
  21 C21          -10.2121     3.2333     0.8426 C.3     
  22 H22           -1.1699    -1.7976     0.0037 H       
  23 H23           -3.3197    -0.6094     0.0315 H       
  24 H24           -1.2382     3.1440     0.0366 H       
  25 H25            1.4811     2.2919    -0.8832 H       
  26 H26            1.5406    -0.8616     0.8650 H       
  27 H27           -5.9391     3.0853    -0.4360 H       
  28 H28           -6.9010     1.1628    -1.6719 H       
  29 H29           -7.3571     0.3997    -0.1298 H       
  30 H30           -8.3382     3.1104    -1.1332 H       
  31 H31           -9.0728     1.4727     1.3357 H       
  32 H32           -7.6548     4.1583     1.0295 H       
  33 H33           -8.1109     3.3952     2.5715 H       
  34 H34           -6.6737     1.4477     2.0329 H       
  35 H35           -5.7307     2.9573     2.0315 H       
  36 H36           -9.3001     1.1879    -2.3691 H       
  37 H37           -9.7562     0.4248    -0.8270 H       
  38 H38          -10.7373     3.1354    -1.8304 H       
  39 H39          -11.6803     1.6258    -1.8291 H       
  40 H40          -12.2381     3.0253     0.1405 H       
  41 H41          -11.4719     1.4978     0.6385 H       
  42 H42          -10.5100     3.4203     1.8743 H       
  43 H43          -10.0539     4.1834     0.3323 H       
@<TRIPOS>BOND
   1    1    2 ar
   2    1    7 1
   3    1    6 ar
   4    2    3 ar
   5    2    8 1
   6    3    4 ar
   7    3   22 1
   8    4    5 ar
   9    4   23 1
  10    5    6 ar
  11    5    9 1
  12    6   24 1
  13    7   25 1
  14    8   26 1
  15    9   10 1
  16    9   11 2
  17   10   12 1
  18   12   13 1
  19   12   17 1
  20   12   27 1
  21   13   14 1
  22   13   28 1
  23   13   29 1
  24   14   15 1
  25   14   18 1
  26   14   30 1
  27   15   16 1
  28   15   21 1
  29   15   31 1
  30   16   17 1
  31   16   32 1
  32   16   33 1
  33   17   34 1
  34   17   35 1
  35   18   19 1
  36   18   36 1
  37   18   37 1
  38   19   20 1
  39   19   38 1
  40   19   39 1
  41   20   21 1
  42   20   40 1
  43   20   41 1
  44   21   42 1
  45   21   43 1

#	End of record

