#	Name: ASD01122041
#	Creating user name:	WinNT
#	Creation time:	15. 06. 2019 18:59

#	Modifying user name:	WinNT
#	Modification time:	15. 06. 2019 18:59

#	Program:	/corina/corina34_cracker 3.40 0067  02.08.2006

@<TRIPOS>MOLECULE
ASD01122041
  26   27    0    0    0
SMALL
NO_CHARGES


@<TRIPOS>ATOM
   1 N1            -0.0158     1.3161     0.0093 N.ar    
   2 C2             0.0021    -0.0041     0.0020 C.ar    
   3 N3             1.1231    -0.6950    -0.0124 N.ar    
   4 C4             2.2991    -0.0773    -0.0203 C.ar    
   5 C5             2.3331     1.3267    -0.0131 C.ar    
   6 C6             1.1120     2.0195     0.0023 C.ar    
   7 N7             3.6110    -0.4919    -0.0351 N.pl3   
   8 C8             4.3945     0.6291    -0.0365 C.2     
   9 N9             3.6381     1.6983    -0.0236 N.2     
  10 N10            1.0833     3.4048     0.0095 N.pl3   
  11 P11            8.9302    -1.9256    -0.0903 P.3     
  12 O12            8.6408    -2.6841    -1.4303 O.co2   
  13 O13            8.4711    -2.8089     1.1194 O.co2   
  14 O14           10.4659    -1.6384     0.0260 O.co2   
  15 N15            5.7748     0.6331    -0.0490 N.pl3   
  16 C16            6.5109    -0.6334    -0.0620 C.3     
  17 C17            8.0143    -0.3495    -0.0741 C.3     
  18 H18           -0.9373    -0.5370     0.0085 H       
  19 H19            3.9229    -1.4103    -0.0425 H       
  20 H20            1.9130     3.9072     0.0040 H       
  21 H21            0.2334     3.8722     0.0202 H       
  22 H22            6.2574     1.4746    -0.0491 H       
  23 H23            6.2572    -1.2102     0.8275 H       
  24 H24            6.2412    -1.2013    -0.9524 H       
  25 H25            8.2840     0.2183     0.8163 H       
  26 H26            8.2679     0.2273    -0.9636 H       
@<TRIPOS>BOND
   1    1    2 ar
   2    1    6 ar
   3    2    3 ar
   4    2   18 1
   5    3    4 ar
   6    4    5 ar
   7    4    7 1
   8    5    6 ar
   9    5    9 1
  10    6   10 1
  11    7    8 1
  12    7   19 1
  13    8    9 2
  14    8   15 1
  15   10   20 1
  16   10   21 1
  17   11   12 ar
  18   11   13 ar
  19   11   14 ar
  20   11   17 1
  21   15   16 1
  22   15   22 1
  23   16   17 1
  24   16   23 1
  25   16   24 1
  26   17   25 1
  27   17   26 1

#	End of record

