#	Name: ASD01910516
#	Creating user name:	WinNT
#	Creation time:	15. 06. 2019 19:56

#	Modifying user name:	WinNT
#	Modification time:	15. 06. 2019 19:56

#	Program:	/corina/corina34_cracker 3.40 0067  02.08.2006

@<TRIPOS>MOLECULE
ASD01910516
  48   52    0    0    0
SMALL
NO_CHARGES


@<TRIPOS>ATOM
   1 O1             0.0869     0.2008     0.1083 O.3     
   2 C2             0.1320    -1.0090     0.6904 C.2     
   3 N3             1.4120    -1.2923     0.8746 N.2     
   4 C4             2.0861    -0.2371     0.3939 C.2     
   5 N5             1.2140     0.6198    -0.0501 N.2     
   6 C6            -1.0165    -1.8537     1.0530 C.2     
   7 C7            -2.3219    -1.5360     0.8517 C.2     
   8 C8            -3.1073    -2.6101     1.3381 C.ar    
   9 C9            -2.2145    -3.5784     1.8364 C.ar    
  10 N10           -0.9389    -3.0974     1.6464 N.pl3   
  11 C11            3.9747     1.1686     1.1787 C.3     
  12 C12            3.5841    -0.0738     0.3721 C.3     
  13 C13            4.0589     0.0913    -1.0734 C.3     
  14 C14            5.5833     0.2244    -1.0993 C.3     
  15 C15            5.9966     1.4702    -0.3094 C.3     
  16 N16            5.4210     1.3871     1.0399 N.am    
  17 C17            6.2048     1.5086     2.1295 C.2     
  18 C18            7.6679     1.6436     1.9756 C.ar    
  19 O19            5.7079     1.5071     3.2390 O.2     
  20 C20            8.1952     2.5945     1.0999 C.ar    
  21 C21            9.5614     2.7172     0.9591 C.ar    
  22 C22           10.4120     1.8986     1.6846 C.ar    
  23 C23            9.8941     0.9503     2.5571 C.ar    
  24 C24            8.5282     0.8242     2.7100 C.ar    
  25 F25           11.7498     2.0230     1.5423 F       
  26 F26           10.7282     0.1546     3.2615 F       
  27 C27           -4.4871    -2.8429     1.3983 C.ar    
  28 C28           -4.9566    -4.0049     1.9387 C.ar    
  29 C29           -4.0780    -4.9613     2.4312 C.ar    
  30 C30           -2.7170    -4.7555     2.3827 C.ar    
  31 H31           -2.6942    -0.6276     0.4016 H       
  32 H32           -0.1202    -3.5544     1.8949 H       
  33 H33            3.4359     2.0361     0.7976 H       
  34 H34            3.7276     1.0149     2.2291 H       
  35 H35            4.0530    -0.9546     0.8107 H       
  36 H36            3.7606    -0.7806    -1.6555 H       
  37 H37            3.6089     0.9861    -1.5035 H       
  38 H38            6.0334    -0.6592    -0.6469 H       
  39 H39            5.9228     0.3185    -2.1308 H       
  40 H40            7.0835     1.5155    -0.2408 H       
  41 H41            5.6226     2.3623    -0.8119 H       
  42 H42            7.5338     3.2330     0.5331 H       
  43 H43            9.9693     3.4528     0.2817 H       
  44 H44            8.1253     0.0871     3.3887 H       
  45 H45           -5.1778    -2.1046     1.0184 H       
  46 H46           -6.0210    -4.1822     1.9841 H       
  47 H47           -4.4658    -5.8753     2.8564 H       
  48 H48           -2.0418    -5.5052     2.7679 H       
@<TRIPOS>BOND
   1    1    2 1
   2    1    5 1
   3    2    3 2
   4    2    6 1
   5    3    4 1
   6    4    5 2
   7    4   12 1
   8    6    7 2
   9    6   10 1
  10    7    8 1
  11    7   31 1
  12    8    9 ar
  13    8   27 ar
  14    9   10 1
  15    9   30 ar
  16   10   32 1
  17   11   12 1
  18   11   16 1
  19   11   33 1
  20   11   34 1
  21   12   13 1
  22   12   35 1
  23   13   14 1
  24   13   36 1
  25   13   37 1
  26   14   15 1
  27   14   38 1
  28   14   39 1
  29   15   16 1
  30   15   40 1
  31   15   41 1
  32   16   17 am
  33   17   18 1
  34   17   19 2
  35   18   20 ar
  36   18   24 ar
  37   20   21 ar
  38   20   42 1
  39   21   22 ar
  40   21   43 1
  41   22   23 ar
  42   22   25 1
  43   23   24 ar
  44   23   26 1
  45   24   44 1
  46   27   28 ar
  47   27   45 1
  48   28   29 ar
  49   28   46 1
  50   29   30 ar
  51   29   47 1
  52   30   48 1

#	End of record

