#	Name: ASD02030048
#	Creating user name:	WinNT
#	Creation time:	15. 06. 2019 20:14

#	Modifying user name:	WinNT
#	Modification time:	15. 06. 2019 20:14

#	Program:	/corina/corina34_cracker 3.40 0067  02.08.2006

@<TRIPOS>MOLECULE
ASD02030048
  24   24    0    0    0
SMALL
NO_CHARGES


@<TRIPOS>ATOM
   1 C1            -0.0168     1.3850     0.0097 C.ar    
   2 C2             0.0021    -0.0041     0.0020 C.ar    
   3 C3             1.2092    -0.6782    -0.0131 C.ar    
   4 C4             2.4002     0.0330    -0.0207 C.ar    
   5 C5             2.3803     1.4194    -0.0126 C.ar    
   6 C6             1.1740     2.0939     0.0021 C.ar    
   7 O7             3.5876    -0.6297    -0.0356 O.3     
   8 C8             4.7745     0.1659    -0.0426 C.3     
   9 O9             4.9885     0.7138     1.2597 O.3     
  10 C10            5.4769    -0.2306     2.2145 C.3     
  11 O11           -1.2039     2.0493     0.0189 O.3     
  12 C12           -1.1483     3.4772     0.0264 C.3     
  13 F13           -1.1584    -0.6958     0.0098 F       
  14 H14            1.2248    -1.7581    -0.0187 H       
  15 H15            3.3079     1.9725    -0.0181 H       
  16 H16            1.1595     3.1738     0.0077 H       
  17 H17            5.6264    -0.4549    -0.3201 H       
  18 H18            4.6648     0.9757    -0.7640 H       
  19 H19            4.7588    -1.0435     2.3216 H       
  20 H20            6.4314    -0.6315     1.8734 H       
  21 H21            5.6132     0.2630     3.1768 H       
  22 H22           -0.6165     3.8154     0.9157 H       
  23 H23           -0.6249     3.8251    -0.8642 H       
  24 H24           -2.1610     3.8802     0.0334 H       
@<TRIPOS>BOND
   1    1    2 ar
   2    1    6 ar
   3    1   11 1
   4    2    3 ar
   5    2   13 1
   6    3    4 ar
   7    3   14 1
   8    4    5 ar
   9    4    7 1
  10    5    6 ar
  11    5   15 1
  12    6   16 1
  13    7    8 1
  14    8    9 1
  15    8   17 1
  16    8   18 1
  17    9   10 1
  18   10   19 1
  19   10   20 1
  20   10   21 1
  21   11   12 1
  22   12   22 1
  23   12   23 1
  24   12   24 1

#	End of record

