#	Name: ASD01680122
#	Creating user name:	WinNT
#	Creation time:	15. 06. 2019 19:22

#	Modifying user name:	WinNT
#	Modification time:	15. 06. 2019 19:22

#	Program:	/corina/corina34_cracker 3.40 0067  02.08.2006

@<TRIPOS>MOLECULE
ASD01680122
  85   87    0    0    0
SMALL
NO_CHARGES


@<TRIPOS>ATOM
   1 C1            -0.2634     1.5758     0.0887 C.2     
   2 C2            -0.1529     0.0736     0.0412 C.3     
   3 C3            -0.8957    -0.4537    -1.1881 C.3     
   4 O4             0.7346     2.2562     0.0584 O.2     
   5 O5            -1.4708     2.1581     0.1592 O.3     
   6 N6             1.2587    -0.3099    -0.0394 N.am    
   7 C7             1.9921    -0.4208     1.0858 C.2     
   8 C8             3.4167    -0.8078     1.0045 C.ar    
   9 C9             3.7811    -2.1543     1.0541 C.ar    
  10 C10            5.1122    -2.5087     0.9773 C.ar    
  11 C11            6.0850    -1.5329     0.8517 C.ar    
  12 C12            5.7305    -0.1964     0.8020 C.ar    
  13 C13            4.4026     0.1712     0.8720 C.ar    
  14 O14            1.4824    -0.2025     2.1675 O.2     
  15 C15            4.0178     1.6270     0.8114 C.3     
  16 C16            7.5371    -1.9274     0.7693 C.3     
  17 C17            2.7230    -3.2184     1.1918 C.3     
  18 N18           -0.6887    -1.8996    -1.3007 N.am    
  19 C19           -1.2528    -2.5841    -2.3155 C.2     
  20 O20           -1.9318    -2.0031    -3.1354 O.2     
  21 C21           -1.0400    -4.0715    -2.4313 C.3     
  22 O22           -1.7337    -4.5640    -3.5794 O.3     
  23 N23           -3.8823    -6.6539    -4.0075 N.am    
  24 C24           -2.7392    -6.7479    -3.0813 C.3     
  25 C25           -1.5962    -5.9719    -3.7820 C.3     
  26 C26           -1.8322    -6.3454    -5.2693 C.3     
  27 C27           -3.3704    -6.4232    -5.3662 C.3     
  28 C28           -3.7763    -7.5822    -6.2789 C.3     
  29 N29           -3.3736    -7.2838    -7.6555 N.pl3   
  30 C30           -3.5447    -8.2378    -8.6519 C.ar    
  31 C31           -4.0990    -9.4740    -8.3351 C.ar    
  32 C32           -4.2635   -10.4138    -9.3363 C.ar    
  33 C33           -3.8667   -10.0848   -10.6259 C.ar    
  34 C34           -3.3239    -8.8393   -10.8692 C.ar    
  35 N35           -3.1837    -7.9600    -9.8951 N.ar    
  36 C36           -5.1813    -6.7665    -3.6661 C.2     
  37 O37           -6.0450    -6.5808    -4.4970 O.2     
  38 C38           -5.5604    -7.1232    -2.2518 C.3     
  39 C39           -7.0845    -7.1859    -2.1328 C.3     
  40 C40           -7.6274    -8.2490    -3.0900 C.3     
  41 C41           -7.4695    -7.5481    -0.6970 C.3     
  42 C42           -7.6807    -5.8236    -2.4925 C.3     
  43 H43           -0.5942    -0.3519     0.9425 H       
  44 H44           -1.9608    -0.2460    -1.0859 H       
  45 H45           -0.5137     0.0387    -2.0824 H       
  46 H46           -1.4911     3.1245     0.1875 H       
  47 H47            1.6654    -0.4841    -0.9026 H       
  48 H48            5.3955    -3.5502     1.0155 H       
  49 H49            6.4946     0.5605     0.7039 H       
  50 H50            4.0005     2.0406     1.8198 H       
  51 H51            4.7454     2.1703     0.2084 H       
  52 H52            3.0294     1.7232     0.3622 H       
  53 H53            7.8133    -2.0806    -0.2739 H       
  54 H54            8.1533    -1.1360     1.1959 H       
  55 H55            7.6948    -2.8510     1.3263 H       
  56 H56            2.3930    -3.5330     0.2018 H       
  57 H57            3.1357    -4.0742     1.7261 H       
  58 H58            1.8750    -2.8178     1.7472 H       
  59 H59           -0.1458    -2.3644    -0.6449 H       
  60 H60            0.0252    -4.2792    -2.5335 H       
  61 H61           -1.4220    -4.5639    -1.5370 H       
  62 H62           -2.9848    -6.2818    -2.1270 H       
  63 H63           -2.4554    -7.7899    -2.9336 H       
  64 H64           -0.6212    -6.3202    -3.4410 H       
  65 H65           -1.4430    -5.5693    -5.9283 H       
  66 H66           -1.3819    -7.3108    -5.5006 H       
  67 H67           -3.7651    -5.4853    -5.7569 H       
  68 H68           -3.2841    -8.4961    -5.9463 H       
  69 H69           -4.8573    -7.7159    -6.2374 H       
  70 H70           -2.9876    -6.4206    -7.8717 H       
  71 H71           -4.3965    -9.6968    -7.3210 H       
  72 H72           -4.6907   -11.3819    -9.1201 H       
  73 H73           -3.9814   -10.7964   -11.4301 H       
  74 H74           -3.0140    -8.5793   -11.8706 H       
  75 H75           -5.1357    -8.0937    -1.9956 H       
  76 H76           -5.1737    -6.3658    -1.5700 H       
  77 H77           -7.2027    -9.2196    -2.8337 H       
  78 H78           -8.7132    -8.2937    -3.0052 H       
  79 H79           -7.3532    -7.9910    -4.1129 H       
  80 H80           -7.0827    -6.7907    -0.0151 H       
  81 H81           -8.5553    -7.5928    -0.6122 H       
  82 H82           -7.0447    -8.5186    -0.4407 H       
  83 H83           -7.4064    -5.5656    -3.5155 H       
  84 H84           -8.7665    -5.8683    -2.4078 H       
  85 H85           -7.2939    -5.0662    -1.8107 H       
@<TRIPOS>BOND
   1    1    2 1
   2    1    4 2
   3    1    5 1
   4    2    3 1
   5    2    6 1
   6    2   43 1
   7    3   18 1
   8    3   44 1
   9    3   45 1
  10    5   46 1
  11    6    7 am
  12    6   47 1
  13    7    8 1
  14    7   14 2
  15    8    9 ar
  16    8   13 ar
  17    9   10 ar
  18    9   17 1
  19   10   11 ar
  20   10   48 1
  21   11   12 ar
  22   11   16 1
  23   12   13 ar
  24   12   49 1
  25   13   15 1
  26   15   50 1
  27   15   51 1
  28   15   52 1
  29   16   53 1
  30   16   54 1
  31   16   55 1
  32   17   56 1
  33   17   57 1
  34   17   58 1
  35   18   19 am
  36   18   59 1
  37   19   20 2
  38   19   21 1
  39   21   22 1
  40   21   60 1
  41   21   61 1
  42   22   25 1
  43   23   24 1
  44   23   27 1
  45   23   36 am
  46   24   25 1
  47   24   62 1
  48   24   63 1
  49   25   26 1
  50   25   64 1
  51   26   27 1
  52   26   65 1
  53   26   66 1
  54   27   28 1
  55   27   67 1
  56   28   29 1
  57   28   68 1
  58   28   69 1
  59   29   30 1
  60   29   70 1
  61   30   31 ar
  62   30   35 ar
  63   31   32 ar
  64   31   71 1
  65   32   33 ar
  66   32   72 1
  67   33   34 ar
  68   33   73 1
  69   34   35 ar
  70   34   74 1
  71   36   37 2
  72   36   38 1
  73   38   39 1
  74   38   75 1
  75   38   76 1
  76   39   40 1
  77   39   41 1
  78   39   42 1
  79   40   77 1
  80   40   78 1
  81   40   79 1
  82   41   80 1
  83   41   81 1
  84   41   82 1
  85   42   83 1
  86   42   84 1
  87   42   85 1

#	End of record

