#	Name: ASD01918534
#	Creating user name:	WinNT
#	Creation time:	15. 06. 2019 20:11

#	Modifying user name:	WinNT
#	Modification time:	15. 06. 2019 20:11

#	Program:	/corina/corina34_cracker 3.40 0067  02.08.2006

@<TRIPOS>MOLECULE
ASD01918534
  39   42    0    0    0
SMALL
NO_CHARGES


@<TRIPOS>ATOM
   1 F1            -0.0963     0.0044    -0.0285 F       
   2 C2            -0.1009     1.3553    -0.0154 C.ar    
   3 C3            -1.3022     2.0528     0.0228 C.ar    
   4 C4            -1.2623     3.4360     0.0351 C.ar    
   5 C5            -0.0264     4.0784     0.0089 C.ar    
   6 N6             1.0988     3.3767    -0.0274 N.ar    
   7 C7             1.0918     2.0593    -0.0340 C.ar    
   8 C8             0.0318     5.5607     0.0211 C.2     
   9 C9             1.2039     6.3450    -0.0078 C.2     
  10 C10            0.8322     7.6367     0.0175 C.2     
  11 C11            1.7245     8.8558     0.0144 C.3     
  12 N12            0.8549    10.0267    -0.2047 N.am    
  13 C13           -0.4201    10.0858     0.5261 C.3     
  14 C14           -1.3121     8.9226     0.0791 C.3     
  15 N15           -0.5208     7.6887     0.0547 N.pl3   
  16 N16           -1.0027     6.3768     0.0551 N.2     
  17 C17            1.2174    11.0124    -1.0493 C.2     
  18 O18            0.4420    11.9145    -1.2990 O.2     
  19 C19            2.5583    10.9964    -1.6720 C.ar    
  20 C20            2.7325    11.4719    -2.9725 C.ar    
  21 C21            3.9864    11.4549    -3.5484 C.ar    
  22 C22            5.0699    10.9681    -2.8399 C.ar    
  23 C23            4.9045    10.4947    -1.5489 C.ar    
  24 Cl24           6.2707     9.8861    -0.6675 Cl      
  25 C25            3.6561    10.5112    -0.9597 C.ar    
  26 H26           -2.2455     1.5273     0.0421 H       
  27 H27           -2.1768     4.0097     0.0642 H       
  28 H28            2.0279     1.5213    -0.0591 H       
  29 H29            2.2177     5.9744    -0.0435 H       
  30 H30            2.2346     8.9457     0.9735 H       
  31 H31            2.4553     8.7796    -0.7908 H       
  32 H32           -0.2302    10.0085     1.5966 H       
  33 H33           -0.9193    11.0307     0.3115 H       
  34 H34           -2.1407     8.8098     0.7782 H       
  35 H35           -1.7016     9.1251    -0.9186 H       
  36 H36            1.8875    11.8521    -3.5273 H       
  37 H37            4.1219    11.8224    -4.5549 H       
  38 H38            6.0491    10.9568    -3.2954 H       
  39 H39            3.5286    10.1460     0.0487 H       
@<TRIPOS>BOND
   1    1    2 1
   2    2    7 ar
   3    2    3 ar
   4    3    4 ar
   5    3   26 1
   6    4    5 ar
   7    4   27 1
   8    5    6 ar
   9    5    8 1
  10    6    7 ar
  11    7   28 1
  12    8   16 2
  13    8    9 1
  14    9   10 2
  15    9   29 1
  16   10   15 1
  17   10   11 1
  18   11   12 1
  19   11   30 1
  20   11   31 1
  21   12   13 1
  22   12   17 am
  23   13   14 1
  24   13   32 1
  25   13   33 1
  26   14   15 1
  27   14   34 1
  28   14   35 1
  29   15   16 1
  30   17   18 2
  31   17   19 1
  32   19   25 ar
  33   19   20 ar
  34   20   21 ar
  35   20   36 1
  36   21   22 ar
  37   21   37 1
  38   22   23 ar
  39   22   38 1
  40   23   24 1
  41   23   25 ar
  42   25   39 1

#	End of record

