#	Name: ASD01811606
#	Creating user name:	WinNT
#	Creation time:	15. 06. 2019 19:27

#	Modifying user name:	WinNT
#	Modification time:	15. 06. 2019 19:27

#	Program:	/corina/corina34_cracker 3.40 0067  02.08.2006

@<TRIPOS>MOLECULE
ASD01811606
  68   72    0    0    0
SMALL
NO_CHARGES


@<TRIPOS>ATOM
   1 C1            -0.3948     1.3377     0.3613 C.ar    
   2 C2            -0.3885    -0.0107     0.0259 C.ar    
   3 C3            -1.5747    -0.6644    -0.2513 C.ar    
   4 C4            -2.7729     0.0177    -0.1969 C.ar    
   5 C5            -2.7900     1.3727     0.1395 C.ar    
   6 C6            -1.5939     2.0306     0.4248 C.ar    
   7 C7            -4.0724     2.1063     0.1981 C.2     
   8 O8            -4.1486     3.2338    -0.2496 O.2     
   9 N9            -5.1569     1.5248     0.7480 N.am    
  10 C10           -6.4138     2.2716     0.8935 C.3     
  11 C11           -6.8654     2.1967     2.3554 C.3     
  12 C12           -6.9524     0.7301     2.7838 C.3     
  13 C13           -5.5710     0.0811     2.6711 C.3     
  14 C14           -5.1064     0.1302     1.2076 C.3     
  15 C15           -7.4292     0.6514     4.2112 C.ar    
  16 C16           -8.6006    -0.0216     4.5099 C.ar    
  17 C17           -6.6904     1.2476     5.2178 C.ar    
  18 C18           -7.1208     1.1791     6.5266 C.ar    
  19 C19           -8.3048     0.5061     6.8345 C.ar    
  20 C20           -9.0426    -0.0979     5.8144 C.ar    
  21 C21           -8.7576     0.4309     8.1910 C.1     
  22 N22           -9.1168     0.3713     9.2670 N.1     
  23 N23            0.8088     1.9949     0.6407 N.am    
  24 C24            0.8022     3.1401     1.3512 C.2     
  25 C25            0.9158    -0.7630    -0.0362 C.3     
  26 C26            0.9890    -1.9507     0.9379 C.3     
  27 C27            1.6966    -2.7269    -0.1853 C.3     
  28 C28            0.9783    -1.7946    -1.1750 C.3     
  29 C29            2.0807     3.9139     1.5454 C.3     
  30 O30           -0.2328     3.5479     1.8345 O.2     
  31 C31            1.7986     5.1634     2.3820 C.3     
  32 C32            3.0636     6.0484     2.4971 C.3     
  33 C33            1.5284     4.7891     3.8616 C.3     
  34 O34            1.8772     5.9906     4.5821 O.3     
  35 C35            3.0608     6.5223     3.9635 C.3     
  36 H36           -1.5635    -1.7125    -0.5118 H       
  37 H37           -3.6974    -0.4963    -0.4149 H       
  38 H38           -1.6009     3.0786     0.6856 H       
  39 H39           -6.2548     3.3128     0.6130 H       
  40 H40           -7.1771     1.8307     0.2522 H       
  41 H41           -6.1449     2.7177     2.9859 H       
  42 H42           -7.8446     2.6644     2.4581 H       
  43 H43           -7.6546     0.2039     2.1371 H       
  44 H44           -4.8627     0.6221     3.2986 H       
  45 H45           -5.6289    -0.9569     2.9985 H       
  46 H46           -5.7639    -0.4862     0.5946 H       
  47 H47           -4.0837    -0.2400     1.1363 H       
  48 H48           -9.1705    -0.4880     3.7198 H       
  49 H49           -5.7746     1.7675     4.9783 H       
  50 H50           -6.5430     1.6446     7.3114 H       
  51 H51           -9.9595    -0.6197     6.0456 H       
  52 H52            1.6479     1.6262     0.3228 H       
  53 H53            1.7853    -0.1072     0.0088 H       
  54 H54            1.6215    -1.7651     1.8060 H       
  55 H55            0.0136    -2.3586     1.2031 H       
  56 H56            2.7802    -2.6088    -0.1820 H       
  57 H57            1.3836    -3.7683    -0.2606 H       
  58 H58           -0.0000    -2.1598    -1.4875 H       
  59 H59            1.6022    -1.4830    -2.0127 H       
  60 H60            2.8093     3.2883     2.0610 H       
  61 H61            2.4779     4.2089     0.5742 H       
  62 H62            0.9651     5.7286     1.9648 H       
  63 H63            3.9589     5.4633     2.2870 H       
  64 H64            2.9959     6.9004     1.8207 H       
  65 H65            0.4766     4.5443     4.0097 H       
  66 H66            2.1638     3.9587     4.1696 H       
  67 H67            3.9470     6.1477     4.4757 H       
  68 H68            3.0412     7.6115     4.0009 H       
@<TRIPOS>BOND
   1    1    2 ar
   2    1   23 1
   3    1    6 ar
   4    2    3 ar
   5    2   25 1
   6    3    4 ar
   7    3   36 1
   8    4    5 ar
   9    4   37 1
  10    5    6 ar
  11    5    7 1
  12    6   38 1
  13    7    8 2
  14    7    9 am
  15    9   10 1
  16    9   14 1
  17   10   11 1
  18   10   39 1
  19   10   40 1
  20   11   12 1
  21   11   41 1
  22   11   42 1
  23   12   13 1
  24   12   15 1
  25   12   43 1
  26   13   14 1
  27   13   44 1
  28   13   45 1
  29   14   46 1
  30   14   47 1
  31   15   16 ar
  32   15   17 ar
  33   16   20 ar
  34   16   48 1
  35   17   18 ar
  36   17   49 1
  37   18   19 ar
  38   18   50 1
  39   19   20 ar
  40   19   21 1
  41   20   51 1
  42   21   22 3
  43   23   24 am
  44   23   52 1
  45   24   29 1
  46   24   30 2
  47   25   26 1
  48   25   28 1
  49   25   53 1
  50   26   27 1
  51   26   54 1
  52   26   55 1
  53   27   28 1
  54   27   56 1
  55   27   57 1
  56   28   58 1
  57   28   59 1
  58   29   31 1
  59   29   60 1
  60   29   61 1
  61   31   32 1
  62   31   33 1
  63   31   62 1
  64   32   35 1
  65   32   63 1
  66   32   64 1
  67   33   34 1
  68   33   65 1
  69   33   66 1
  70   34   35 1
  71   35   67 1
  72   35   68 1

#	End of record

