#	Name: ASD01478118
#	Creating user name:	WinNT
#	Creation time:	15. 06. 2019 19:21

#	Modifying user name:	WinNT
#	Modification time:	15. 06. 2019 19:21

#	Program:	/corina/corina34_cracker 3.40 0067  02.08.2006

@<TRIPOS>MOLECULE
ASD01478118
  77   80    0    0    0
SMALL
NO_CHARGES


@<TRIPOS>ATOM
   1 C1            -1.4622     0.4240    -0.4805 C.2     
   2 N2            -1.0590    -0.8509    -0.3116 N.am    
   3 O3            -0.6402     1.3072    -0.6240 O.2     
   4 O4            -2.7760     0.7181    -0.4956 O.3     
   5 C5             0.3704    -1.1718    -0.3012 C.3     
   6 C6             0.5687    -2.6307    -0.7174 C.3     
   7 C7             2.0649    -2.9308    -0.8274 C.3     
   8 N8             2.2541    -4.2800    -1.3661 N.am    
   9 S9             2.4894    -4.4973    -2.9908 S.o2    
  10 O10            2.0925    -5.8310    -3.2789 O.2     
  11 O11            1.9250    -3.3625    -3.6334 O.2     
  12 C12            4.2256    -4.4212    -3.2811 C.ar    
  13 C13            4.9860    -5.5746    -3.2249 C.ar    
  14 C14            6.3474    -5.5176    -3.4522 C.ar    
  15 C15            6.9516    -4.3017    -3.7369 C.ar    
  16 C16            6.1865    -3.1458    -3.7927 C.ar    
  17 C17            4.8245    -3.2090    -3.5703 C.ar    
  18 O18            8.2908    -4.2429    -3.9604 O.3     
  19 C19            8.8448    -2.9574    -4.2479 C.3     
  20 C20            2.2350    -5.4369    -0.4675 C.3     
  21 C21            3.4126    -5.3467     0.5051 C.3     
  22 C22            3.3086    -6.4710     1.5375 C.3     
  23 C23            4.7251    -5.4849    -0.2690 C.3     
  24 O24           -0.0187    -3.4895     0.2621 O.3     
  25 C25            0.9298    -0.9628     1.1075 C.3     
  26 C26            0.8463     0.4976     1.4696 C.ar    
  27 C27           -0.2832     0.9913     2.0951 C.ar    
  28 C28           -0.3598     2.3309     2.4271 C.ar    
  29 C29            0.6935     3.1769     2.1341 C.ar    
  30 C30            1.8234     2.6831     1.5094 C.ar    
  31 C31            1.9017     1.3426     1.1812 C.ar    
  32 C32           -4.2970     3.9844     0.3328 C.3     
  33 C33           -5.2171     3.4425    -0.7945 C.3     
  34 C34           -4.4967     2.2259    -1.4001 C.3     
  35 C35           -3.1373     2.1120    -0.6817 C.3     
  36 C36           -3.3728     2.7978     0.6854 C.3     
  37 C37           -4.4658     5.5829    -1.2644 C.3     
  38 O38           -3.5194     4.9972    -0.3448 O.3     
  39 O39           -5.2532     4.4948    -1.7759 O.3     
  40 H40           -1.7152    -1.5560    -0.1971 H       
  41 H41            0.8942    -0.5201    -1.0005 H       
  42 H42            0.0921    -2.8011    -1.6828 H       
  43 H43            2.5332    -2.2051    -1.4923 H       
  44 H44            2.5219    -2.8666     0.1601 H       
  45 H45            4.5152    -6.5209    -3.0029 H       
  46 H46            6.9410    -6.4188    -3.4078 H       
  47 H47            6.6545    -2.1980    -4.0142 H       
  48 H48            4.2277    -2.3102    -3.6183 H       
  49 H49            8.3798    -2.5543    -5.1475 H       
  50 H50            8.6579    -2.2856    -3.4101 H       
  51 H51            9.9192    -3.0517    -4.4053 H       
  52 H52            1.3004    -5.4459     0.0933 H       
  53 H53            2.3164    -6.3529    -1.0527 H       
  54 H54            3.3906    -4.3830     1.0139 H       
  55 H55            3.3306    -7.4347     1.0287 H       
  56 H56            4.1476    -6.4068     2.2304 H       
  57 H57            2.3736    -6.3726     2.0890 H       
  58 H58            4.7501    -6.4514    -0.7722 H       
  59 H59            4.7960    -4.6879    -1.0092 H       
  60 H60            5.5642    -5.4137     0.4230 H       
  61 H61            0.4158    -3.4566     1.1253 H       
  62 H62            0.3478    -1.5476     1.8199 H       
  63 H63            1.9705    -1.2856     1.1368 H       
  64 H64           -1.1061     0.3303     2.3240 H       
  65 H65           -1.2426     2.7167     2.9152 H       
  66 H66            0.6334     4.2237     2.3929 H       
  67 H67            2.6462     3.3442     1.2802 H       
  68 H68            2.7861     0.9560     0.6965 H       
  69 H69           -4.8498     4.3622     1.1929 H       
  70 H70           -6.2079     3.1827    -0.4217 H       
  71 H71           -5.0840     1.3231    -1.2323 H       
  72 H72           -4.3424     2.3776    -2.4684 H       
  73 H73           -2.3639     2.6360    -1.2433 H       
  74 H74           -2.4316     3.1546     1.1038 H       
  75 H75           -3.8685     2.1166     1.3770 H       
  76 H76           -5.1048     6.2946    -0.7418 H       
  77 H77           -3.9386     6.0795    -2.0790 H       
@<TRIPOS>BOND
   1    1    2 am
   2    1    3 2
   3    1    4 1
   4    2    5 1
   5    2   40 1
   6    4   35 1
   7    5    6 1
   8    5   25 1
   9    5   41 1
  10    6    7 1
  11    6   24 1
  12    6   42 1
  13    7    8 1
  14    7   43 1
  15    7   44 1
  16    8    9 am
  17    8   20 1
  18    9   10 2
  19    9   11 2
  20    9   12 1
  21   12   13 ar
  22   12   17 ar
  23   13   14 ar
  24   13   45 1
  25   14   15 ar
  26   14   46 1
  27   15   16 ar
  28   15   18 1
  29   16   17 ar
  30   16   47 1
  31   17   48 1
  32   18   19 1
  33   19   49 1
  34   19   50 1
  35   19   51 1
  36   20   21 1
  37   20   52 1
  38   20   53 1
  39   21   22 1
  40   21   23 1
  41   21   54 1
  42   22   55 1
  43   22   56 1
  44   22   57 1
  45   23   58 1
  46   23   59 1
  47   23   60 1
  48   24   61 1
  49   25   26 1
  50   25   62 1
  51   25   63 1
  52   26   27 ar
  53   26   31 ar
  54   27   28 ar
  55   27   64 1
  56   28   29 ar
  57   28   65 1
  58   29   30 ar
  59   29   66 1
  60   30   31 ar
  61   30   67 1
  62   31   68 1
  63   32   33 1
  64   32   36 1
  65   32   38 1
  66   32   69 1
  67   33   34 1
  68   33   39 1
  69   33   70 1
  70   34   35 1
  71   34   71 1
  72   34   72 1
  73   35   36 1
  74   35   73 1
  75   36   74 1
  76   36   75 1
  77   37   38 1
  78   37   39 1
  79   37   76 1
  80   37   77 1

#	End of record

