#	Name: ASD03081122
#	Creating user name:	WinNT
#	Creation time:	15. 06. 2019 20:27

#	Modifying user name:	WinNT
#	Modification time:	15. 06. 2019 20:27

#	Program:	/corina/corina34_cracker 3.40 0067  02.08.2006

@<TRIPOS>MOLECULE
ASD03081122
  25   27    0    0    0
SMALL
NO_CHARGES


@<TRIPOS>ATOM
   1 O1            -0.0144     1.2085     0.0087 O.3     
   2 N2             0.0021    -0.0041     0.0020 N.2     
   3 C3             1.2345    -0.4420    -0.0121 C.2     
   4 N4             2.0453     0.6365    -0.0141 N.2     
   5 C5             1.2411     1.6827    -0.0008 C.2     
   6 C6             3.0152    -2.2108    -0.0377 C.ar    
   7 C7             1.6625    -1.8640    -0.0234 C.ar    
   8 C8             0.7240    -2.9019    -0.0196 C.ar    
   9 C9             1.1984    -4.2026    -0.0302 C.ar    
  10 N10            2.4981    -4.4298    -0.0435 N.ar    
  11 N11            3.3630    -3.4824    -0.0470 N.ar    
  12 C12            1.6456     3.1047     0.0026 C.ar    
  13 C13            0.6764     4.1087     0.0173 C.ar    
  14 C14            1.0615     5.4357     0.0203 C.ar    
  15 C15            2.4068     5.7688     0.0083 C.ar    
  16 C16            3.3704     4.7770    -0.0068 C.ar    
  17 C17            2.9981     3.4482    -0.0032 C.ar    
  18 F18            0.1255     6.4097     0.0345 F       
  19 H19            3.7727    -1.4409    -0.0456 H       
  20 H20           -0.3359    -2.6951    -0.0083 H       
  21 H21            0.5050    -5.0306    -0.0274 H       
  22 H22           -0.3719     3.8492     0.0259 H       
  23 H23            2.7037     6.8072     0.0103 H       
  24 H24            4.4171     5.0431    -0.0168 H       
  25 H25            3.7524     2.6753    -0.0101 H       
@<TRIPOS>BOND
   1    1    2 1
   2    1    5 1
   3    2    3 2
   4    3    4 1
   5    3    7 1
   6    4    5 2
   7    5   12 1
   8    6    7 ar
   9    6   11 ar
  10    6   19 1
  11    7    8 ar
  12    8    9 ar
  13    8   20 1
  14    9   10 ar
  15    9   21 1
  16   10   11 ar
  17   12   13 ar
  18   12   17 ar
  19   13   14 ar
  20   13   22 1
  21   14   15 ar
  22   14   18 1
  23   15   16 ar
  24   15   23 1
  25   16   17 ar
  26   16   24 1
  27   17   25 1

#	End of record

