#	Name: ASD05313041
#	Creating user name:	WinNT
#	Creation time:	15. 06. 2019 20:58

#	Modifying user name:	WinNT
#	Modification time:	15. 06. 2019 20:58

#	Program:	/corina/corina34_cracker 3.40 0067  02.08.2006

@<TRIPOS>MOLECULE
ASD05313041
  40   43    0    0    0
SMALL
NO_CHARGES


@<TRIPOS>ATOM
   1 C1            -0.0732     0.8186     1.0191 C.2     
   2 C2             0.1130    -0.6180     0.5929 C.3     
   3 N3             0.9376     1.7360     1.0452 N.pl3   
   4 N4             1.4568    -0.7169    -0.0078 N.am    
   5 C5             2.5717    -0.0378     0.6694 C.3     
   6 C6             2.3234     1.4755     0.6604 C.3     
   7 N7            -0.9006     2.6449     1.7003 N.2     
   8 N8            -1.1549     1.4130     1.4199 N.2     
   9 C9             0.3778     2.8968     1.4883 C.2     
  10 N10            2.3071     4.5214     1.2137 N.pl3   
  11 C11            1.0663     4.1822     1.6943 C.2     
  12 C12            0.5844     5.2492     2.3963 C.2     
  13 C13            1.5562     6.2593     2.3400 C.2     
  14 C14            2.5955     5.7910     1.6140 C.2     
  15 C15            1.6573    -1.4108    -1.1456 C.2     
  16 O16            2.7492    -1.4000    -1.6798 O.2     
  17 C17            0.5498    -2.1848    -1.7439 C.ar    
  18 C18            0.3179    -2.1291    -3.1207 C.ar    
  19 C19           -0.7192    -2.8553    -3.6724 C.ar    
  20 C20           -1.5269    -3.6356    -2.8650 C.ar    
  21 C21           -1.3025    -3.6944    -1.5008 C.ar    
  22 C22           -0.2662    -2.9796    -0.9370 C.ar    
  23 C23           -0.9717    -2.7971    -5.1570 C.3     
  24 F24           -2.0655    -3.6088    -5.4761 F       
  25 F25           -1.2451    -1.4774    -5.5321 F       
  26 F26            0.1612    -3.2512    -5.8408 F       
  27 Cl27           1.3304    -1.1492    -4.1349 Cl      
  28 H28            0.0436    -1.2753     1.4597 H       
  29 H29           -0.6443    -0.8892    -0.1427 H       
  30 H30            2.6405    -0.3892     1.6989 H       
  31 H31            3.5027    -0.2569     0.1466 H       
  32 H32            2.5037     1.8685    -0.3402 H       
  33 H33            2.9954     1.9590     1.3694 H       
  34 H34            2.8836     3.9508     0.6816 H       
  35 H35           -0.3685     5.3052     2.9015 H       
  36 H36            1.4861     7.2363     2.7949 H       
  37 H37            3.5024     6.3325     1.3890 H       
  38 H38           -2.3369    -4.2013    -3.3013 H       
  39 H39           -1.9377    -4.3052    -0.8764 H       
  40 H40           -0.0895    -3.0310     0.1272 H       
@<TRIPOS>BOND
   1    1    2 1
   2    1    3 1
   3    1    8 2
   4    2    4 1
   5    2   28 1
   6    2   29 1
   7    3    6 1
   8    3    9 1
   9    4    5 1
  10    4   15 am
  11    5    6 1
  12    5   30 1
  13    5   31 1
  14    6   32 1
  15    6   33 1
  16    7    8 1
  17    7    9 2
  18    9   11 1
  19   10   11 1
  20   10   14 1
  21   10   34 1
  22   11   12 2
  23   12   13 1
  24   12   35 1
  25   13   14 2
  26   13   36 1
  27   14   37 1
  28   15   16 2
  29   15   17 1
  30   17   18 ar
  31   17   22 ar
  32   18   19 ar
  33   18   27 1
  34   19   20 ar
  35   19   23 1
  36   20   21 ar
  37   20   38 1
  38   21   22 ar
  39   21   39 1
  40   22   40 1
  41   23   24 1
  42   23   25 1
  43   23   26 1

#	End of record

