#	Name: ASD04910231
#	Creating user name:	WinNT
#	Creation time:	15. 06. 2019 20:55

#	Modifying user name:	WinNT
#	Modification time:	15. 06. 2019 20:55

#	Program:	/corina/corina34_cracker 3.40 0067  02.08.2006

@<TRIPOS>MOLECULE
ASD04910231
  51   51    0    0    0
SMALL
NO_CHARGES


@<TRIPOS>ATOM
   1 C1             0.0984     1.5214    -0.0615 C.3     
   2 C2             0.0000    -0.0041     0.0032 C.3     
   3 C3             0.7421    -0.5109     1.2415 C.3     
   4 C4             0.0280    -0.0175     2.5015 C.3     
   5 N5             1.5033     1.9146    -0.2336 N.3     
   6 C6             0.7628    -2.0407     1.2331 C.3     
   7 C7            -0.7114     2.0279    -1.2272 C.ar    
   8 C8            -1.9760     2.5460    -1.0155 C.ar    
   9 C9            -2.7206     3.0110    -2.0816 C.ar    
  10 C10           -2.1980     2.9584    -3.3672 C.ar    
  11 C11           -0.9275     2.4380    -3.5764 C.ar    
  12 C12           -0.1860     1.9790    -2.5055 C.ar    
  13 O13           -2.9274     3.4142    -4.4170 O.3     
  14 C14           -1.7218     5.1815    -5.6035 C.2     
  15 C15           -1.3523     6.4525    -5.6535 C.2     
  16 N16           -2.7285     4.7865    -4.7040 N.pl3   
  17 N17           -1.9778     7.3907    -4.8007 N.pl3   
  18 C18           -3.1736     7.0338    -4.1361 C.2     
  19 C19           -3.5370     5.7609    -4.0912 C.2     
  20 C20           -1.3923     8.7196    -4.6070 C.3     
  21 F21           -1.3218     9.3819    -5.8373 F       
  22 F22           -2.1903     9.4568    -3.7256 F       
  23 F23           -0.1058     8.5891    -4.0733 F       
  24 C24           -0.3566     2.3787    -4.9698 C.3     
  25 C25           -4.0991     3.5744    -1.8503 C.3     
  26 H26           -0.2882     1.9500     0.8631 H       
  27 H27           -1.0478    -0.2984     0.0618 H       
  28 H28            0.4492    -0.4355    -0.8914 H       
  29 H29            1.7646    -0.1336     1.2321 H       
  30 H30           -0.9946    -0.3948     2.5110 H       
  31 H31            0.5567    -0.3785     3.3837 H       
  32 H32            0.0132     1.0724     2.5075 H       
  33 H33            1.8850     1.5293    -1.0845 H       
  34 H34            1.6027     2.9185    -0.2147 H       
  35 H35            1.1931    -2.3931     0.2957 H       
  36 H36            1.3651    -2.4005     2.0673 H       
  37 H37           -0.2550    -2.4185     1.3304 H       
  38 H38           -2.3820     2.5866    -0.0155 H       
  39 H39            0.8037     1.5780    -2.6670 H       
  40 H40           -1.2563     4.4542    -6.2522 H       
  41 H41           -0.5802     6.7691    -6.3391 H       
  42 H42           -3.7848     7.7919    -3.6692 H       
  43 H43           -4.4481     5.4732    -3.5878 H       
  44 H44            0.1852     3.3008    -5.1801 H       
  45 H45            0.3244     1.5312    -5.0477 H       
  46 H46           -1.1667     2.2611    -5.6896 H       
  47 H47           -4.0274     4.6467    -1.6682 H       
  48 H48           -4.7170     3.3958    -2.7302 H       
  49 H49           -4.5498     3.0883    -0.9851 H       
  50 Cl50           6.8850    14.4568     8.3837 Cl      
  51 H51            6.8850    15.8268     8.3837 H       
@<TRIPOS>BOND
   1    1    2 1
   2    1    5 1
   3    1    7 1
   4    1   26 1
   5    2    3 1
   6    2   27 1
   7    2   28 1
   8    3    4 1
   9    3    6 1
  10    3   29 1
  11    4   30 1
  12    4   31 1
  13    4   32 1
  14    5   33 1
  15    5   34 1
  16    6   35 1
  17    6   36 1
  18    6   37 1
  19    7    8 ar
  20    7   12 ar
  21    8    9 ar
  22    8   38 1
  23    9   10 ar
  24    9   25 1
  25   10   11 ar
  26   10   13 1
  27   11   12 ar
  28   11   24 1
  29   12   39 1
  30   13   16 1
  31   14   15 2
  32   14   16 1
  33   14   40 1
  34   15   17 1
  35   15   41 1
  36   16   19 1
  37   17   18 1
  38   17   20 1
  39   18   19 2
  40   18   42 1
  41   19   43 1
  42   20   21 1
  43   20   22 1
  44   20   23 1
  45   24   44 1
  46   24   45 1
  47   24   46 1
  48   25   47 1
  49   25   48 1
  50   25   49 1
  51   50   51 1

#	End of record

