#	Name: ASD00170228
#	Creating user name:	WinNT
#	Creation time:	15. 06. 2019 18:31

#	Modifying user name:	WinNT
#	Modification time:	15. 06. 2019 18:31

#	Program:	/corina/corina34_cracker 3.40 0067  02.08.2006

@<TRIPOS>MOLECULE
ASD00170228
  47   50    0    0    0
SMALL
NO_CHARGES


@<TRIPOS>ATOM
   1 C1            -0.0161     1.3326     0.0094 C.2     
   2 C2             0.0021    -0.0041     0.0020 C.2     
   3 C3            -1.3336    -0.5765     0.0108 C.2     
   4 C4            -2.3263     0.3666     0.0249 C.2     
   5 S5            -1.6653     1.9354     0.0208 S.3     
   6 N6            -3.6783     0.0838     0.0355 N.pl3   
   7 C7            -1.5917    -2.0160     0.0050 C.2     
   8 O8            -1.7213    -2.6734    -1.1659 O.3     
   9 O9            -1.6897    -2.6206     1.0562 O.2     
  10 C10            1.2252     2.2044     0.0022 C.3     
  11 C11            2.4303     1.3486     0.4017 C.3     
  12 C12            2.4403     0.0733    -0.4464 C.3     
  13 C13            1.2807    -0.8267    -0.0133 C.3     
  14 C14           -1.9725    -4.0784    -1.0967 C.3     
  15 C15           -2.0867    -4.6376    -2.4915 C.ar    
  16 C16           -0.9584    -5.1049    -3.1410 C.ar    
  17 C17           -1.0571    -5.6181    -4.4184 C.ar    
  18 C18           -2.2963    -5.6648    -5.0537 C.ar    
  19 C19           -3.4296    -5.1926    -4.3948 C.ar    
  20 C20           -3.3202    -4.6868    -3.1153 C.ar    
  21 C21           -2.4087    -6.2149    -6.4273 C.ar    
  22 C22           -3.6479    -6.2617    -7.0627 C.ar    
  23 C23           -3.7466    -6.7744    -8.3403 C.ar    
  24 C24           -2.6183    -7.2418    -8.9897 C.ar    
  25 C25           -1.3857    -7.1982    -8.3636 C.ar    
  26 C26           -1.2744    -6.6814    -7.0886 C.ar    
  27 H27           -3.9811    -0.8377     0.0331 H       
  28 H28           -4.3249     0.8068     0.0453 H       
  29 H29            1.3807     2.6106    -0.9972 H       
  30 H30            1.1033     3.0196     0.7154 H       
  31 H31            3.3490     1.9091     0.2283 H       
  32 H32            2.3563     1.0845     1.4566 H       
  33 H33            2.3258     0.3345    -1.4984 H       
  34 H34            3.3837    -0.4532    -0.3014 H       
  35 H35            1.4755    -1.2187     0.9850 H       
  36 H36            1.1755    -1.6516    -0.7179 H       
  37 H37           -1.1511    -4.5691    -0.5746 H       
  38 H38           -2.9030    -4.2550    -0.5572 H       
  39 H39            0.0017    -5.0679    -2.6477 H       
  40 H40           -0.1755    -5.9824    -4.9247 H       
  41 H41           -4.3926    -5.2265    -4.8826 H       
  42 H42           -4.1980    -4.3205    -2.6036 H       
  43 H43           -4.5296    -5.8977    -6.5562 H       
  44 H44           -4.7066    -6.8111    -8.8336 H       
  45 H45           -2.7001    -7.6426    -9.9893 H       
  46 H46           -0.5080    -7.5648    -8.8751 H       
  47 H47           -0.3115    -6.6475    -6.6007 H       
@<TRIPOS>BOND
   1    1    2 2
   2    1   10 1
   3    1    5 1
   4    2    3 1
   5    2   13 1
   6    3    4 2
   7    3    7 1
   8    4    5 1
   9    4    6 1
  10    6   27 1
  11    6   28 1
  12    7    8 1
  13    7    9 2
  14    8   14 1
  15   10   11 1
  16   10   29 1
  17   10   30 1
  18   11   12 1
  19   11   31 1
  20   11   32 1
  21   12   13 1
  22   12   33 1
  23   12   34 1
  24   13   35 1
  25   13   36 1
  26   14   15 1
  27   14   37 1
  28   14   38 1
  29   15   16 ar
  30   15   20 ar
  31   16   17 ar
  32   16   39 1
  33   17   18 ar
  34   17   40 1
  35   18   19 ar
  36   18   21 1
  37   19   20 ar
  38   19   41 1
  39   20   42 1
  40   21   22 ar
  41   21   26 ar
  42   22   23 ar
  43   22   43 1
  44   23   24 ar
  45   23   44 1
  46   24   25 ar
  47   24   45 1
  48   25   26 ar
  49   25   46 1
  50   26   47 1

#	End of record

