#	Name: ASD02508296
#	Creating user name:	WinNT
#	Creation time:	15. 06. 2019 20:24

#	Modifying user name:	WinNT
#	Modification time:	15. 06. 2019 20:24

#	Program:	/corina/corina34_cracker 3.40 0067  02.08.2006

@<TRIPOS>MOLECULE
ASD02508296
  24   25    0    0    0
SMALL
NO_CHARGES


@<TRIPOS>ATOM
   1 C1            -0.0170     1.4011     0.0097 C.ar    
   2 C2             0.0021    -0.0041     0.0020 C.ar    
   3 N3            -1.2877    -0.4248     0.0121 N.2     
   4 C4            -2.0847     0.6156     0.0253 C.2     
   5 N5            -1.3435     1.7660     0.0298 N.pl3   
   6 S6            -3.8452     0.5438     0.0411 S.3     
   7 C7            -4.0867    -1.2500     0.0340 C.3     
   8 N8             1.1346     2.0621     0.0023 N.ar    
   9 C9             2.2801     1.4129    -0.0121 C.ar    
  10 N10            2.3462     0.0940    -0.0203 N.ar    
  11 C11            1.2469    -0.6497    -0.0133 C.ar    
  12 O12            1.3256    -2.0027    -0.0214 O.3     
  13 C13            3.5627     2.2041    -0.0201 C.3     
  14 C14           -5.5618    -1.5583     0.0460 C.2     
  15 O15           -5.9809    -2.8335     0.0432 O.3     
  16 O16           -6.3671    -0.6577     0.0581 O.2     
  17 H17           -1.6897     2.6721     0.0391 H       
  18 H18           -3.6342    -1.6740    -0.8624 H       
  19 H19           -3.6178    -1.6832     0.9175 H       
  20 H20            1.3572    -2.4001     0.8596 H       
  21 H21            3.8818     2.3893     1.0056 H       
  22 H22            4.3342     1.6401    -0.5444 H       
  23 H23            3.3999     3.1550    -0.5273 H       
  24 H24           -6.9365    -2.9815     0.0512 H       
@<TRIPOS>BOND
   1    1    2 ar
   2    1    8 ar
   3    1    5 1
   4    2    3 1
   5    2   11 ar
   6    3    4 2
   7    4    5 1
   8    4    6 1
   9    5   17 1
  10    6    7 1
  11    7   14 1
  12    7   18 1
  13    7   19 1
  14    8    9 ar
  15    9   10 ar
  16    9   13 1
  17   10   11 ar
  18   11   12 1
  19   12   20 1
  20   13   21 1
  21   13   22 1
  22   13   23 1
  23   14   15 1
  24   14   16 2
  25   15   24 1

#	End of record

