#	Name: ASD01120262
#	Creating user name:	WinNT
#	Creation time:	15. 06. 2019 18:59

#	Modifying user name:	WinNT
#	Modification time:	15. 06. 2019 18:59

#	Program:	/corina/corina34_cracker 3.40 0067  02.08.2006

@<TRIPOS>MOLECULE
ASD01120262
  29   29    0    0    0
SMALL
NO_CHARGES


@<TRIPOS>ATOM
   1 O1            -0.0173     1.4248     0.0099 O.3     
   2 C2             0.0021    -0.0041     0.0020 C.3     
   3 O3             0.6932    -0.4777     1.1597 O.3     
   4 C4             0.1201    -0.0502     2.3970 C.3     
   5 C5             0.9548    -0.5907     3.5597 C.3     
   6 O6             2.2574    -0.0042     3.5239 O.3     
   7 P7             3.4030    -0.3462     4.6023 P.3     
   8 O8             3.6213    -1.8094     4.6429 O.2     
   9 O9             4.7722     0.3893     4.1823 O.3     
  10 O10            2.9418     0.1681     6.0566 O.3     
  11 C11           -1.3113    -0.5822     2.5055 C.3     
  12 C12           -2.1245    -0.0858     1.3060 C.3     
  13 C13           -1.4341    -0.5342     0.0143 C.3     
  14 O14           -2.1444    -0.0152    -1.1118 O.3     
  15 O15           -3.4417    -0.6373     1.3603 O.3     
  16 O16           -1.9065    -0.1081     3.7151 O.3     
  17 H17            0.8606     1.8301     0.0037 H       
  18 H18            0.5119    -0.3558    -0.8949 H       
  19 H19            0.1070     1.0391     2.4344 H       
  20 H20            0.4693    -0.3401     4.5029 H       
  21 H21            1.0414    -1.6737     3.4722 H       
  22 H22            5.5077     0.2272     4.7888 H       
  23 H23            2.7804     1.1204     6.1040 H       
  24 H24           -1.2956    -1.6720     2.5090 H       
  25 H25           -2.1822     1.0024     1.3298 H       
  26 H26           -1.4208    -1.6231    -0.0325 H       
  27 H27           -1.7617    -0.2605    -1.9653 H       
  28 H28           -4.0128    -0.3644     0.6293 H       
  29 H29           -2.8163    -0.4072     3.8493 H       
@<TRIPOS>BOND
   1    1    2 1
   2    1   17 1
   3    2    3 1
   4    2   13 1
   5    2   18 1
   6    3    4 1
   7    4    5 1
   8    4   11 1
   9    4   19 1
  10    5    6 1
  11    5   20 1
  12    5   21 1
  13    6    7 1
  14    7    8 2
  15    7    9 1
  16    7   10 1
  17    9   22 1
  18   10   23 1
  19   11   12 1
  20   11   16 1
  21   11   24 1
  22   12   13 1
  23   12   15 1
  24   12   25 1
  25   13   14 1
  26   13   26 1
  27   14   27 1
  28   15   28 1
  29   16   29 1

#	End of record

