#	Name: ASD01812010
#	Creating user name:	WinNT
#	Creation time:	15. 06. 2019 19:27

#	Modifying user name:	WinNT
#	Modification time:	15. 06. 2019 19:27

#	Program:	/corina/corina34_cracker 3.40 0067  02.08.2006

@<TRIPOS>MOLECULE
ASD01812010
  52   54    0    0    0
SMALL
NO_CHARGES


@<TRIPOS>ATOM
   1 N1            -0.0178     1.4642     0.0101 N.3     
   2 C2             0.0021    -0.0041     0.0020 C.3     
   3 C3            -1.4271    -0.5342    -0.1339 C.3     
   4 C4            -2.2695    -0.0230     1.0380 C.3     
   5 C5            -2.2342     1.5077     1.0524 C.3     
   6 C6            -0.7816     1.9786     1.1540 C.3     
   7 C7             1.3463     2.0093    -0.0000 C.3     
   8 C8             2.1073     1.4565    -1.2072 C.3     
   9 C9             3.5396     1.9997    -1.1953 C.3     
  10 N10            3.4885     3.4668    -1.1344 N.am    
  11 C11            2.7077     4.1026    -0.0644 C.3     
  12 C12            1.2847     3.5359    -0.0890 C.3     
  13 C13            4.1458     4.2151    -2.0424 C.2     
  14 O14            4.0903     5.5586    -1.9746 O.3     
  15 O15            4.7884     3.6772    -2.9222 O.2     
  16 C16            4.8224     6.3005    -2.9854 C.3     
  17 C17            4.6422     7.8011    -2.7472 C.3     
  18 N18           -2.9909     2.0036     2.2047 N.am    
  19 C19           -4.3260     2.1644     2.1155 C.2     
  20 C20           -5.0831     2.6606     3.2684 C.2     
  21 O21           -4.9031     1.8976     1.0777 O.2     
  22 C22           -6.4338     2.8648     3.3014 C.2     
  23 C23           -6.8830     3.3364     4.5120 C.2     
  24 C24           -5.9348     3.5131     5.4396 C.2     
  25 S25           -4.3997     3.0814     4.8329 S.3     
  26 H26            0.6009    -0.3545    -0.8386 H       
  27 H27            0.4368    -0.3665     0.9335 H       
  28 H28           -1.8576    -0.1835    -1.0719 H       
  29 H29           -1.4134    -1.6241    -0.1242 H       
  30 H30           -3.2988    -0.3625     0.9222 H       
  31 H31           -1.8619    -0.4056     1.9738 H       
  32 H32           -2.6774     1.8906     0.1331 H       
  33 H33           -0.3432     1.6069     2.0801 H       
  34 H34           -0.7520     3.0682     1.1500 H       
  35 H35            1.8599     1.7196     0.9167 H       
  36 H36            2.1305     0.3680    -1.1553 H       
  37 H37            1.6081     1.7668    -2.1252 H       
  38 H38            4.0687     1.6159    -0.3230 H       
  39 H39            4.0556     1.6895    -2.1040 H       
  40 H40            3.1689     3.8903     0.9001 H       
  41 H41            2.6748     5.1799    -0.2269 H       
  42 H42            0.7933     3.8266    -1.0175 H       
  43 H43            0.7225     3.9273     0.7588 H       
  44 H44            5.8810     6.0477    -2.9261 H       
  45 H45            4.4417     6.0411    -3.9733 H       
  46 H46            5.0228     8.0604    -1.7593 H       
  47 H47            5.1918     8.3580    -3.5061 H       
  48 H48            3.5836     8.0538    -2.8066 H       
  49 H49           -2.5309     2.2163     3.0318 H       
  50 H50           -7.0838     2.6748     2.4600 H       
  51 H51           -7.9249     3.5491     4.7006 H       
  52 H52           -6.1175     3.8763     6.4402 H       
@<TRIPOS>BOND
   1    1    2 1
   2    1    7 1
   3    1    6 1
   4    2    3 1
   5    2   26 1
   6    2   27 1
   7    3    4 1
   8    3   28 1
   9    3   29 1
  10    4    5 1
  11    4   30 1
  12    4   31 1
  13    5    6 1
  14    5   18 1
  15    5   32 1
  16    6   33 1
  17    6   34 1
  18    7    8 1
  19    7   12 1
  20    7   35 1
  21    8    9 1
  22    8   36 1
  23    8   37 1
  24    9   10 1
  25    9   38 1
  26    9   39 1
  27   10   11 1
  28   10   13 am
  29   11   12 1
  30   11   40 1
  31   11   41 1
  32   12   42 1
  33   12   43 1
  34   13   14 1
  35   13   15 2
  36   14   16 1
  37   16   17 1
  38   16   44 1
  39   16   45 1
  40   17   46 1
  41   17   47 1
  42   17   48 1
  43   18   19 am
  44   18   49 1
  45   19   20 1
  46   19   21 2
  47   20   22 2
  48   20   25 1
  49   22   23 1
  50   22   50 1
  51   23   24 2
  52   23   51 1
  53   24   25 1
  54   24   52 1

#	End of record

