#	Name: ASD03330991
#	Creating user name:	WinNT
#	Creation time:	15. 06. 2019 20:38

#	Modifying user name:	WinNT
#	Modification time:	15. 06. 2019 20:38

#	Program:	/corina/corina34_cracker 3.40 0067  02.08.2006

@<TRIPOS>MOLECULE
ASD03330991
  63   65    0    0    0
SMALL
NO_CHARGES


@<TRIPOS>ATOM
   1 N1             0.0599     1.1546    -0.7660 N.pl3   
   2 C2             0.0644    -0.1787    -0.4989 C.2     
   3 C3             1.2856    -1.0115    -0.2083 C.3     
   4 N4             2.1196    -0.3147     0.7834 N.3     
   5 C5             3.0711     0.5894     0.1347 C.3     
   6 C6             2.4734     1.1929    -1.1331 C.3     
   7 C7             1.2385     2.0257    -0.7785 C.3     
   8 C8            -1.2333     1.5193    -1.0038 C.2     
   9 N9            -1.9981     0.4609    -0.8716 N.2     
  10 C10           -1.2278    -0.6038    -0.5572 C.2     
  11 C11           -1.7014    -1.9789    -0.3203 C.2     
  12 O12           -0.9063    -2.8566    -0.0431 O.2     
  13 N13           -3.0155    -2.2640    -0.4107 N.am    
  14 C14            2.8136    -1.2729     1.6541 C.3     
  15 C15           -4.7917    -3.8443    -0.8975 C.2     
  16 C16           -3.4864    -3.6312    -0.1752 C.3     
  17 C17           -3.6924    -3.8482     1.3253 C.3     
  18 C18           -4.7886    -2.9083     1.8308 C.3     
  19 O19           -5.4265    -2.8912    -1.2967 O.2     
  20 C20           -4.1077    -5.2989     1.5784 C.3     
  21 C21           -2.3868    -3.5547     2.0670 C.3     
  22 N22           -5.2536    -5.0942    -1.0998 N.am    
  23 C23           -6.5603    -5.2992    -1.7297 C.3     
  24 C24           -6.8433    -6.7987    -1.8409 C.3     
  25 C25           -1.6960     2.8801    -1.3518 C.ar    
  26 C26           -2.5965     3.0674    -2.4042 C.ar    
  27 C27           -3.0244     4.3419    -2.7238 C.ar    
  28 C28           -2.5622     5.4302    -2.0040 C.ar    
  29 C29           -1.6699     5.2494    -0.9605 C.ar    
  30 C30           -1.2399     3.9816    -0.6275 C.ar    
  31 F31           -3.0470     2.0054    -3.1074 F       
  32 Cl32          -3.1030     7.0287    -2.4115 Cl      
  33 H33            0.9804    -1.9798     0.1882 H       
  34 H34            1.8552    -1.1557    -1.1264 H       
  35 H35            3.3306     1.3918     0.8253 H       
  36 H36            3.9732     0.0347    -0.1235 H       
  37 H37            3.2144     1.8306    -1.6151 H       
  38 H38            2.1870     0.3924    -1.8152 H       
  39 H39            1.1031     2.8113    -1.5218 H       
  40 H40            1.3713     2.4733     0.2064 H       
  41 H41           -3.6496    -1.5640    -0.6317 H       
  42 H42            3.3987    -1.9608     1.0436 H       
  43 H43            3.4765    -0.7344     2.3314 H       
  44 H44            2.0806    -1.8346     2.2332 H       
  45 H45           -2.7458    -4.3395    -0.5465 H       
  46 H46           -5.7187    -3.1174     1.3023 H       
  47 H47           -4.9354    -3.0629     2.8997 H       
  48 H48           -4.4928    -1.8748     1.6504 H       
  49 H49           -3.3168    -5.9677     1.2391 H       
  50 H50           -4.2766    -5.4476     2.6449 H       
  51 H51           -5.0256    -5.5147     1.0316 H       
  52 H52           -2.0909    -2.5212     1.8867 H       
  53 H53           -2.5336    -3.7093     3.1360 H       
  54 H54           -1.6058    -4.2243     1.7069 H       
  55 H55           -4.7209    -5.8580    -0.8283 H       
  56 H56           -7.3338    -4.8274    -1.1237 H       
  57 H57           -6.5574    -4.8552    -2.7252 H       
  58 H58           -6.0698    -7.2704    -2.4469 H       
  59 H59           -6.8461    -7.2427    -0.8455 H       
  60 H60           -7.8155    -6.9512    -2.3096 H       
  61 H61           -3.7202     4.4891    -3.5365 H       
  62 H62           -1.3132     6.1028    -0.4030 H       
  63 H63           -0.5475     3.8426     0.1896 H       
@<TRIPOS>BOND
   1    1    2 1
   2    1    7 1
   3    1    8 1
   4    2    3 1
   5    2   10 2
   6    3    4 1
   7    3   33 1
   8    3   34 1
   9    4    5 1
  10    4   14 1
  11    5    6 1
  12    5   35 1
  13    5   36 1
  14    6    7 1
  15    6   37 1
  16    6   38 1
  17    7   39 1
  18    7   40 1
  19    8    9 2
  20    8   25 1
  21    9   10 1
  22   10   11 1
  23   11   12 2
  24   11   13 am
  25   13   16 1
  26   13   41 1
  27   14   42 1
  28   14   43 1
  29   14   44 1
  30   15   19 2
  31   15   22 am
  32   15   16 1
  33   16   17 1
  34   16   45 1
  35   17   18 1
  36   17   20 1
  37   17   21 1
  38   18   46 1
  39   18   47 1
  40   18   48 1
  41   20   49 1
  42   20   50 1
  43   20   51 1
  44   21   52 1
  45   21   53 1
  46   21   54 1
  47   22   23 1
  48   22   55 1
  49   23   24 1
  50   23   56 1
  51   23   57 1
  52   24   58 1
  53   24   59 1
  54   24   60 1
  55   25   26 ar
  56   25   30 ar
  57   26   27 ar
  58   26   31 1
  59   27   28 ar
  60   27   61 1
  61   28   29 ar
  62   28   32 1
  63   29   30 ar
  64   29   62 1
  65   30   63 1

#	End of record

