#	Name: ASD01940664
#	Creating user name:	WinNT
#	Creation time:	15. 06. 2019 20:12

#	Modifying user name:	WinNT
#	Modification time:	15. 06. 2019 20:12

#	Program:	/corina/corina34_cracker 3.40 0067  02.08.2006

@<TRIPOS>MOLECULE
ASD01940664
  42   44    0    0    0
SMALL
NO_CHARGES


@<TRIPOS>ATOM
   1 C1             0.3276     0.9813     1.1575 C.ar    
   2 C2            -0.1485     0.2376     0.0934 C.ar    
   3 C3             0.6505     0.0193    -1.0160 C.ar    
   4 C4             1.9316     0.5451    -1.0647 C.ar    
   5 C5             2.4150     1.2927     0.0009 C.ar    
   6 C6             1.6085     1.5114     1.1165 C.ar    
   7 N7             2.0909     2.2655     2.1946 N.am    
   8 S8             1.6742     1.8556     3.7440 S.o2    
   9 C9             2.2885     0.1606     3.9446 C.3     
  10 O10            2.4170     2.7546     4.5561 O.2     
  11 O11            0.2534     1.8741     3.7413 O.2     
  12 F12            0.1803    -0.7081    -2.0528 F       
  13 F13            2.7099     0.3301    -2.1479 F       
  14 N14            3.7107     1.8256    -0.0450 N.pl3   
  15 C15            4.8064     1.0304     0.3041 C.ar    
  16 C16            6.0775     1.5908     0.3846 C.ar    
  17 C17            4.6280    -0.3191     0.5769 C.ar    
  18 C18            5.7129    -1.1024     0.9216 C.ar    
  19 C19            6.9756    -0.5445     0.9958 C.ar    
  20 C20            7.1579     0.8008     0.7301 C.ar    
  21 F21            6.2554     2.9047     0.1251 F       
  22 C22            1.9550    -0.5616     5.2515 C.3     
  23 C23            1.2561    -0.9685     3.9528 C.3     
  24 C24            8.1555    -1.4028     1.3727 C.3     
  25 C25            8.7737    -2.0035     0.1085 C.3     
  26 H26           -0.3002     1.1533     2.0193 H       
  27 H27           -1.1462    -0.1744     0.1280 H       
  28 H28            2.6690     3.0275     2.0332 H       
  29 H29            3.2568    -0.0456     3.4886 H       
  30 H30            3.8471     2.7460    -0.3189 H       
  31 H31            3.6421    -0.7562     0.5200 H       
  32 H32            5.5741    -2.1522     1.1338 H       
  33 H33            8.1457     1.2334     0.7889 H       
  34 H34            2.7037    -1.2432     5.6551 H       
  35 H35            1.3665    -0.0182     5.9908 H       
  36 H36            0.2079    -0.6929     3.8376 H       
  37 H37            1.5451    -1.9179     3.5019 H       
  38 H38            8.8990    -0.7933     1.8863 H       
  39 H39            7.8252    -2.2053     2.0322 H       
  40 H40            8.0303    -2.6131    -0.4051 H       
  41 H41            9.1040    -1.2010    -0.5510 H       
  42 H42            9.6271    -2.6243     0.3811 H       
@<TRIPOS>BOND
   1    1    2 ar
   2    1    6 ar
   3    1   26 1
   4    2    3 ar
   5    2   27 1
   6    3    4 ar
   7    3   12 1
   8    4    5 ar
   9    4   13 1
  10    5    6 ar
  11    5   14 1
  12    6    7 1
  13    7    8 am
  14    7   28 1
  15    8    9 1
  16    8   10 2
  17    8   11 2
  18    9   22 1
  19    9   23 1
  20    9   29 1
  21   14   15 1
  22   14   30 1
  23   15   16 ar
  24   15   17 ar
  25   16   21 1
  26   16   20 ar
  27   17   18 ar
  28   17   31 1
  29   18   19 ar
  30   18   32 1
  31   19   20 ar
  32   19   24 1
  33   20   33 1
  34   22   23 1
  35   22   34 1
  36   22   35 1
  37   23   36 1
  38   23   37 1
  39   24   25 1
  40   24   38 1
  41   24   39 1
  42   25   40 1
  43   25   41 1
  44   25   42 1

#	End of record

