#	Name: ASD03200062
#	Creating user name:	WinNT
#	Creation time:	15. 06. 2019 20:34

#	Modifying user name:	WinNT
#	Modification time:	15. 06. 2019 20:34

#	Program:	/corina/corina34_cracker 3.40 0067  02.08.2006

@<TRIPOS>MOLECULE
ASD03200062
  50   53    0    0    0
SMALL
NO_CHARGES


@<TRIPOS>ATOM
   1 C1             0.9740    -1.0614    -0.1603 C.3     
   2 N2            -0.0150     0.0115     0.0044 N.3     
   3 C3             0.3240     0.8761     1.1419 C.3     
   4 C4             1.6777     1.5442     0.8909 C.3     
   5 C5             2.7484     0.4647     0.7095 C.3     
   6 C6             2.3471    -0.4511    -0.4502 C.3     
   7 C7            -1.3006    -0.5105     0.1394 C.ar    
   8 C8            -2.0045    -0.3773     1.3336 C.ar    
   9 C9            -3.2752    -0.9079     1.4277 C.ar    
  10 N10           -3.8264    -1.5355     0.4062 N.ar    
  11 C11           -3.1966    -1.6852    -0.7441 C.ar    
  12 C12           -1.9207    -1.1775    -0.9239 C.ar    
  13 N13           -1.2563    -1.3388    -2.1473 N.am    
  14 C14           -1.4413    -2.4600    -2.8719 C.2     
  15 C15           -0.6762    -2.6709    -4.1032 C.2     
  16 O16           -2.2442    -3.2977    -2.5030 O.2     
  17 C17           -0.8918    -3.7428    -4.9406 C.2     
  18 S18            0.2320    -3.6140    -6.2913 S.3     
  19 C19            0.8929    -2.1311    -5.6121 C.2     
  20 N20            0.2831    -1.8376    -4.5090 N.2     
  21 C21            1.9809    -1.3343    -6.2162 C.ar    
  22 N22           -1.8248    -4.7432    -4.7540 N.pl3   
  23 N23            2.0262     2.3927     2.0384 N.3     
  24 C24            2.6390    -1.7968    -7.3591 C.ar    
  25 C25            3.6557    -1.0458    -7.9182 C.ar    
  26 C26            4.0228     0.1603    -7.3491 C.ar    
  27 C27            3.3763     0.6247    -6.2179 C.ar    
  28 C28            2.3534    -0.1117    -5.6507 C.ar    
  29 F29            3.2929    -1.4729    -0.5872 F       
  30 F30            1.7228     0.3437    -4.5461 F       
  31 F31            2.2825    -2.9750    -7.9158 F       
  32 H32            1.0248    -1.6520     0.7544 H       
  33 H33            0.6790    -1.7029    -0.9907 H       
  34 H34           -0.4431     1.6419     1.2573 H       
  35 H35            0.3779     0.2764     2.0505 H       
  36 H36            1.6206     2.1551    -0.0100 H       
  37 H37            3.7062     0.9353     0.4874 H       
  38 H38            2.8330    -0.1218     1.6243 H       
  39 H39            2.3005     0.1284    -1.3722 H       
  40 H40           -1.5617     0.1343     2.1754 H       
  41 H41           -3.8263    -0.8084     2.3512 H       
  42 H42           -3.6835    -2.2056    -1.5556 H       
  43 H43           -0.6634    -0.6434    -2.4726 H       
  44 H44           -2.4022    -4.7287    -3.9748 H       
  45 H45           -1.9028    -5.4606    -5.4022 H       
  46 H46            2.9517     2.7807     1.9333 H       
  47 H47            1.3413     3.1217     2.1702 H       
  48 H48            4.1652    -1.4019    -8.8014 H       
  49 H49            4.8185     0.7422    -7.7901 H       
  50 H50            3.6688     1.5673    -5.7792 H       
@<TRIPOS>BOND
   1    1    2 1
   2    1    6 1
   3    1   32 1
   4    1   33 1
   5    2    3 1
   6    2    7 1
   7    3    4 1
   8    3   34 1
   9    3   35 1
  10    4    5 1
  11    4   23 1
  12    4   36 1
  13    5    6 1
  14    5   37 1
  15    5   38 1
  16    6   29 1
  17    6   39 1
  18    7    8 ar
  19    7   12 ar
  20    8    9 ar
  21    8   40 1
  22    9   10 ar
  23    9   41 1
  24   10   11 ar
  25   11   12 ar
  26   11   42 1
  27   12   13 1
  28   13   14 am
  29   13   43 1
  30   14   15 1
  31   14   16 2
  32   15   17 2
  33   15   20 1
  34   17   18 1
  35   17   22 1
  36   18   19 1
  37   19   20 2
  38   19   21 1
  39   21   24 ar
  40   21   28 ar
  41   22   44 1
  42   22   45 1
  43   23   46 1
  44   23   47 1
  45   24   25 ar
  46   24   31 1
  47   25   26 ar
  48   25   48 1
  49   26   27 ar
  50   26   49 1
  51   27   28 ar
  52   27   50 1
  53   28   30 1

#	End of record

