#	Name: ASD02198144
#	Creating user name:	WinNT
#	Creation time:	15. 06. 2019 20:18

#	Modifying user name:	WinNT
#	Modification time:	15. 06. 2019 20:18

#	Program:	/corina/corina34_cracker 3.40 0067  02.08.2006

@<TRIPOS>MOLECULE
ASD02198144
  41   43    0    0    0
SMALL
NO_CHARGES


@<TRIPOS>ATOM
   1 C1            -0.0166     1.3753     0.0096 C.2     
   2 C2             0.0021    -0.0041     0.0020 C.2     
   3 C3            -1.1878    -0.8008     0.0091 C.1     
   4 S4             1.5675     2.0054    -0.0021 S.3     
   5 C5             2.2772     0.3990    -0.0175 C.2     
   6 C6             1.2824    -0.5520    -0.0132 C.2     
   7 C7             3.6580     0.1249    -0.0322 C.2     
   8 C8             4.6307     1.2349    -0.0350 C.2     
   9 O9             4.0506    -1.0302    -0.0426 O.2     
  10 N10            1.5294    -1.9154    -0.0224 N.pl3   
  11 N11           -1.1593     2.1393     0.0194 N.pl3   
  12 N12           -2.1317    -1.4328     0.0147 N.1     
  13 O13            4.3523     2.5515    -0.0243 O.3     
  14 C14           -1.0630     3.6011     0.0268 C.3     
  15 C15           -2.3405     4.2272    -0.5756 C.3     
  16 N16            5.3579     3.2220    -0.0300 N.2     
  17 C17            6.4378     2.4798    -0.0451 C.2     
  18 C18            5.9943     1.1300    -0.0430 C.2     
  19 C19            7.8422     2.9540    -0.0568 C.2     
  20 O20            8.7536     2.1520    -0.0709 O.2     
  21 O21            8.1071     4.2742    -0.0516 O.3     
  22 C22            9.5052     4.6660    -0.0637 C.3     
  23 C23            9.6071     6.1926    -0.0557 C.3     
  24 C24           -2.6644     5.3462     0.4403 C.3     
  25 O25           -2.0897     4.8757     1.6953 O.3     
  26 C26           -1.0115     4.1183     1.4481 C.2     
  27 O27           -0.1308     3.8835     2.2412 O.2     
  28 H28            2.4424    -2.2428    -0.0326 H       
  29 H29            0.7893    -2.5424    -0.0187 H       
  30 H30           -2.0294     1.7105     0.0213 H       
  31 H31           -0.1832     3.9255    -0.5288 H       
  32 H32           -2.1401     4.6447    -1.5623 H       
  33 H33           -3.1479     3.4963    -0.6187 H       
  34 H34            6.5936     0.2316    -0.0520 H       
  35 H35           10.0029     4.2640     0.8188 H       
  36 H36            9.9845     4.2746    -0.9610 H       
  37 H37            9.1095     6.5946    -0.9382 H       
  38 H38            9.1278     6.5840     0.8416 H       
  39 H39           10.6566     6.4867    -0.0647 H       
  40 H40           -2.1983     6.2833     0.1359 H       
  41 H41           -3.7428     5.4707     0.5385 H       
@<TRIPOS>BOND
   1    1    2 2
   2    1    4 1
   3    1   11 1
   4    2    3 1
   5    2    6 1
   6    3   12 3
   7    4    5 1
   8    5    6 2
   9    5    7 1
  10    6   10 1
  11    7    8 1
  12    7    9 2
  13    8   13 1
  14    8   18 2
  15   10   28 1
  16   10   29 1
  17   11   14 1
  18   11   30 1
  19   13   16 1
  20   14   15 1
  21   14   26 1
  22   14   31 1
  23   15   24 1
  24   15   32 1
  25   15   33 1
  26   16   17 2
  27   17   18 1
  28   17   19 1
  29   18   34 1
  30   19   20 2
  31   19   21 1
  32   21   22 1
  33   22   23 1
  34   22   35 1
  35   22   36 1
  36   23   37 1
  37   23   38 1
  38   23   39 1
  39   24   25 1
  40   24   40 1
  41   24   41 1
  42   25   26 1
  43   26   27 2

#	End of record

