#	Name: ASD01510052
#	Creating user name:	WinNT
#	Creation time:	15. 06. 2019 19:21

#	Modifying user name:	WinNT
#	Modification time:	15. 06. 2019 19:21

#	Program:	/corina/corina34_cracker 3.40 0067  02.08.2006

@<TRIPOS>MOLECULE
ASD01510052
  49   51    0    0    0
SMALL
NO_CHARGES


@<TRIPOS>ATOM
   1 C1            -0.0247     1.4071    -0.0119 C.3     
   2 O2            -0.0012    -0.0217    -0.0159 O.3     
   3 C3             0.6056    -0.6246    -1.0684 C.ar    
   4 N4             1.1469     0.1018    -2.0405 N.ar    
   5 C5             1.7411    -0.4790    -3.0717 C.ar    
   6 N6             1.8216    -1.7964    -3.1798 N.ar    
   7 C7             1.3039    -2.5894    -2.2477 C.ar    
   8 C8             0.6751    -2.0157    -1.1427 C.ar    
   9 S9            -0.0272    -3.0235     0.1205 S.3     
  10 C10            1.3623    -3.1834     1.1922 C.ar    
  11 N11            2.5013    -2.5884     0.8670 N.ar    
  12 C12            3.5667    -2.6858     1.6476 C.ar    
  13 C13            3.4838    -3.4191     2.8163 C.ar    
  14 C14            2.2714    -4.0342     3.1322 C.ar    
  15 N15            1.2412    -3.8911     2.3064 N.ar    
  16 N16            2.1425    -4.7816     4.2975 N.am    
  17 C17            0.9417    -5.2846     4.6461 C.2     
  18 O18           -0.0435    -5.0083     3.9953 O.2     
  19 C19            0.8233    -6.1905     5.8446 C.3     
  20 O20            1.3907    -3.9377    -2.3663 O.3     
  21 C21            2.0557    -4.4456    -3.5247 C.3     
  22 N22            2.2938     0.3139    -4.0654 N.3     
  23 C23            2.9035    -0.5094    -5.1175 C.3     
  24 C24            3.3723     0.3899    -6.2635 C.3     
  25 C25            4.3888     1.4022    -5.7284 C.3     
  26 C26            3.7441     2.2139    -4.6014 C.3     
  27 C27            3.2645     1.2617    -3.5035 C.3     
  28 H28            0.9968     1.7873    -0.0182 H       
  29 H29           -0.5508     1.7643    -0.8972 H       
  30 H30           -0.5380     1.7596     0.8828 H       
  31 H31            4.4904    -2.1977     1.3739 H       
  32 H32            4.3381    -3.5143     3.4701 H       
  33 H33            2.9168    -4.9410     4.8596 H       
  34 H34            1.8055    -6.3227     6.2985 H       
  35 H35            0.1442    -5.7447     6.5713 H       
  36 H36            0.4347    -7.1593     5.5308 H       
  37 H37            2.0549    -5.5352    -3.4956 H       
  38 H38            1.5357    -4.1056    -4.4204 H       
  39 H39            3.0835    -4.0833    -3.5418 H       
  40 H40            3.7568    -1.0495    -4.7072 H       
  41 H41            2.1689    -1.2222    -5.4923 H       
  42 H42            3.8388    -0.2200    -7.0372 H       
  43 H43            2.5173     0.9198    -6.6833 H       
  44 H44            5.2612     0.8739    -5.3438 H       
  45 H45            4.6929     2.0727    -6.5322 H       
  46 H46            4.4763     2.9072    -4.1875 H       
  47 H47            2.8950     2.7726    -4.9950 H       
  48 H48            2.7922     1.8354    -2.7060 H       
  49 H49            4.1162     0.7134    -3.1008 H       
@<TRIPOS>BOND
   1    1    2 1
   2    1   28 1
   3    1   29 1
   4    1   30 1
   5    2    3 1
   6    3    4 ar
   7    3    8 ar
   8    4    5 ar
   9    5    6 ar
  10    5   22 1
  11    6    7 ar
  12    7    8 ar
  13    7   20 1
  14    8    9 1
  15    9   10 1
  16   10   11 ar
  17   10   15 ar
  18   11   12 ar
  19   12   13 ar
  20   12   31 1
  21   13   14 ar
  22   13   32 1
  23   14   15 ar
  24   14   16 1
  25   16   17 am
  26   16   33 1
  27   17   18 2
  28   17   19 1
  29   19   34 1
  30   19   35 1
  31   19   36 1
  32   20   21 1
  33   21   37 1
  34   21   38 1
  35   21   39 1
  36   22   23 1
  37   22   27 1
  38   23   24 1
  39   23   40 1
  40   23   41 1
  41   24   25 1
  42   24   42 1
  43   24   43 1
  44   25   26 1
  45   25   44 1
  46   25   45 1
  47   26   27 1
  48   26   46 1
  49   26   47 1
  50   27   48 1
  51   27   49 1

#	End of record

