#	Name: ASD01917571
#	Creating user name:	WinNT
#	Creation time:	15. 06. 2019 20:09

#	Modifying user name:	WinNT
#	Modification time:	15. 06. 2019 20:09

#	Program:	/corina/corina34_cracker 3.40 0067  02.08.2006

@<TRIPOS>MOLECULE
ASD01917571
  38   41    0    0    0
SMALL
NO_CHARGES


@<TRIPOS>ATOM
   1 N1             4.8255    -0.4041    -2.1614 N.ar    
   2 C2             5.2915     0.2962    -3.1769 C.ar    
   3 C3             5.1781     1.6760    -3.1997 C.ar    
   4 C4             4.5640     2.3219    -2.1359 C.ar    
   5 C5             4.0843     1.5504    -1.0827 C.ar    
   6 C6             4.2362     0.1718    -1.1327 C.ar    
   7 F7             5.6595     2.3846    -4.2443 F       
   8 O8             3.4762     2.1384    -0.0192 O.3     
   9 C9             3.4556     3.4976     0.0336 C.2     
  10 N10            2.2017     5.5122    -0.0270 N.pl3   
  11 C11            2.2734     4.1517    -0.0740 C.2     
  12 C12            4.6562     4.1994     0.2040 C.2     
  13 C13            4.6299     5.5875     0.2573 C.2     
  14 C14            3.3364     6.2646     0.1319 C.2     
  15 C15            5.8707     6.3589     0.4359 C.2     
  16 N16            5.8260     7.7050     0.4853 N.am    
  17 O17            6.9364     5.7814     0.5388 O.2     
  18 C18            1.1521     6.3883    -0.1097 C.2     
  19 C19            1.6640     7.6335    -0.0103 C.2     
  20 N20            2.9889     7.5387     0.1426 N.2     
  21 C21            6.9968     8.4329     0.6537 C.2     
  22 S22            8.5580     7.7539     0.8107 S.3     
  23 C23            9.2552     9.3650     0.9593 C.2     
  24 C24            8.2635    10.2541     0.8784 C.2     
  25 N25            7.0656     9.7263     0.7093 N.2     
  26 C26            8.4934    11.7409     0.9667 C.3     
  27 H27            5.7682    -0.2131    -4.0014 H       
  28 H28            4.4616     3.3970    -2.1259 H       
  29 H29            3.8670    -0.4359    -0.3198 H       
  30 H30            1.3654     3.5807    -0.2005 H       
  31 H31            5.5917     3.6673     0.2934 H       
  32 H32            4.9762     8.1654     0.4032 H       
  33 H33            0.1110     6.1313    -0.2384 H       
  34 H34            1.0970     8.5523    -0.0395 H       
  35 H35           10.3023     9.5931     1.0930 H       
  36 H36            8.6696    12.1412    -0.0317 H       
  37 H37            7.6152    12.2193     1.4002 H       
  38 H38            9.3618    11.9375     1.5954 H       
@<TRIPOS>BOND
   1    1    2 ar
   2    1    6 ar
   3    2    3 ar
   4    2   27 1
   5    3    4 ar
   6    3    7 1
   7    4    5 ar
   8    4   28 1
   9    5    6 ar
  10    5    8 1
  11    6   29 1
  12    8    9 1
  13    9   12 1
  14    9   11 2
  15   10   11 1
  16   10   18 1
  17   10   14 1
  18   11   30 1
  19   12   13 2
  20   12   31 1
  21   13   14 1
  22   13   15 1
  23   14   20 2
  24   15   16 am
  25   15   17 2
  26   16   21 1
  27   16   32 1
  28   18   19 2
  29   18   33 1
  30   19   20 1
  31   19   34 1
  32   21   22 1
  33   21   25 2
  34   22   23 1
  35   23   24 2
  36   23   35 1
  37   24   25 1
  38   24   26 1
  39   26   36 1
  40   26   37 1
  41   26   38 1

#	End of record

