#	Name: ASD05313021
#	Creating user name:	WinNT
#	Creation time:	15. 06. 2019 20:58

#	Modifying user name:	WinNT
#	Modification time:	15. 06. 2019 20:58

#	Program:	/corina/corina34_cracker 3.40 0067  02.08.2006

@<TRIPOS>MOLECULE
ASD05313021
  36   38    0    0    0
SMALL
NO_CHARGES


@<TRIPOS>ATOM
   1 C1            -0.0734     0.8185     1.0180 C.2     
   2 C2             0.1129    -0.6179     0.5923 C.3     
   3 N3             0.9396     1.7382     1.0442 N.pl3   
   4 N4             1.4570    -0.7163    -0.0080 N.am    
   5 C5             2.5718    -0.0375     0.6696 C.3     
   6 C6             2.3252     1.4760     0.6598 C.3     
   7 N7            -0.8902     2.6458     1.6962 N.2     
   8 N8            -1.1512     1.4146     1.4181 N.2     
   9 C9             0.3825     2.8926     1.4843 C.2     
  10 O10            1.0176     4.0751     1.6724 O.3     
  11 C11            0.2277     5.1676     2.1462 C.3     
  12 C12            1.6578    -1.4099    -1.1460 C.2     
  13 O13            2.7499    -1.3988    -1.6799 O.2     
  14 C14            0.5505    -2.1838    -1.7448 C.ar    
  15 C15            0.3189    -2.1273    -3.1216 C.ar    
  16 C16           -0.7181    -2.8535    -3.6739 C.ar    
  17 C17           -1.5257    -3.6343    -2.8670 C.ar    
  18 C18           -1.3015    -3.6938    -1.5028 C.ar    
  19 C19           -0.2654    -2.9791    -0.9385 C.ar    
  20 C20           -0.9703    -2.7946    -5.1584 C.3     
  21 F21           -2.0640    -3.6063    -5.4782 F       
  22 F22           -1.2438    -1.4747    -5.5330 F       
  23 F23            0.1628    -3.2481    -5.8423 F       
  24 Cl24           1.3313    -1.1468    -4.1351 Cl      
  25 H25            0.0433    -1.2750     1.4591 H       
  26 H26           -0.6441    -0.8892    -0.1435 H       
  27 H27            2.6394    -0.3883     1.6994 H       
  28 H28            3.5030    -0.2578     0.1478 H       
  29 H29            2.5060     1.8680    -0.3411 H       
  30 H30            2.9977     1.9594     1.3684 H       
  31 H31            0.8567     6.0513     2.2531 H       
  32 H32           -0.5710     5.3742     1.4338 H       
  33 H33           -0.2052     4.9106     3.1129 H       
  34 H34           -2.3355    -4.1999    -3.3037 H       
  35 H35           -1.9367    -4.3050    -0.8788 H       
  36 H36           -0.0889    -3.0310     0.1257 H       
@<TRIPOS>BOND
   1    1    2 1
   2    1    3 1
   3    1    8 2
   4    2    4 1
   5    2   25 1
   6    2   26 1
   7    3    6 1
   8    3    9 1
   9    4    5 1
  10    4   12 am
  11    5    6 1
  12    5   27 1
  13    5   28 1
  14    6   29 1
  15    6   30 1
  16    7    8 1
  17    7    9 2
  18    9   10 1
  19   10   11 1
  20   11   31 1
  21   11   32 1
  22   11   33 1
  23   12   13 2
  24   12   14 1
  25   14   15 ar
  26   14   19 ar
  27   15   16 ar
  28   15   24 1
  29   16   17 ar
  30   16   20 1
  31   17   18 ar
  32   17   34 1
  33   18   19 ar
  34   18   35 1
  35   19   36 1
  36   20   21 1
  37   20   22 1
  38   20   23 1

#	End of record

