#	Name: ASD01028503
#	Creating user name:	WinNT
#	Creation time:	15. 06. 2019 18:57

#	Modifying user name:	WinNT
#	Modification time:	15. 06. 2019 18:57

#	Program:	/corina/corina34_cracker 3.40 0067  02.08.2006

@<TRIPOS>MOLECULE
ASD01028503
  48   53    0    0    0
SMALL
NO_CHARGES


@<TRIPOS>ATOM
   1 C1            -0.0171     1.4107     0.0098 C.ar    
   2 C2             0.0021    -0.0041     0.0020 C.ar    
   3 C3             1.2178     2.1059     0.0017 C.ar    
   4 C4             2.3842     1.3595    -0.0135 C.ar    
   5 C5             2.3156    -0.0274    -0.0203 C.ar    
   6 N6             1.1663    -0.6618    -0.0123 N.ar    
   7 N7             1.2571     3.4927     0.0084 N.pl3   
   8 C8             2.5460     4.1890    -0.0001 C.3     
   9 C9             2.3126     5.6778     0.0096 C.2     
  10 N10            2.1994     6.4599     1.1052 N.pl3   
  11 C11            1.9957     7.7373     0.6401 C.2     
  12 N12            1.9955     7.6681    -0.6811 N.2     
  13 N13            2.1887     6.4478    -1.0428 N.2     
  14 N14            2.2489     6.2145     2.4790 N.2     
  15 C15            2.1016     7.1994     3.3379 C.2     
  16 C16            1.8906     8.5216     2.8913 C.2     
  17 C17            1.8385     8.7911     1.5604 C.2     
  18 C18           -1.2221    -0.6978     0.0101 C.ar    
  19 C19           -2.3882     0.0404     0.0252 C.ar    
  20 C20           -2.3240     1.4376     0.0321 C.ar    
  21 N21           -1.1760     2.0696     0.0299 N.ar    
  22 O22           -3.5931    -0.5873     0.0330 O.3     
  23 C23           -4.7566     0.2422     0.0487 C.3     
  24 C24            2.1575     6.9175     4.7925 C.ar    
  25 C25            2.0021     7.9573     5.7151 C.ar    
  26 C26            2.0509     7.7113     7.0510 C.ar    
  27 C27            2.2593     6.4018     7.5331 C.ar    
  28 C28            2.4147     5.3612     6.6083 C.ar    
  29 C29            2.3584     5.6193     5.2432 C.ar    
  30 N30            2.3377     5.9582     8.8013 N.2     
  31 C31            2.5340     4.7074     8.9869 C.2     
  32 S32            2.6543     3.8660     7.5072 S.3     
  33 H33            3.3441     1.8544    -0.0203 H       
  34 H34            3.2318    -0.5991    -0.0326 H       
  35 H35            0.4311     4.0012     0.0187 H       
  36 H36            3.1182     3.9052     0.8831 H       
  37 H37            3.1015     3.9142    -0.8968 H       
  38 H38            1.7706     9.3202     3.6084 H       
  39 H39            1.6772     9.8009     1.2130 H       
  40 H40           -1.2485    -1.7775     0.0042 H       
  41 H41           -3.2409     2.0082     0.0435 H       
  42 H42           -4.7625     0.8765    -0.8377 H       
  43 H43           -5.6490    -0.3837     0.0535 H       
  44 H44           -4.7458     0.8665     0.9421 H       
  45 H45            1.8422     8.9655     5.3625 H       
  46 H46            1.9294     8.5257     7.7498 H       
  47 H47            2.4786     4.8131     4.5347 H       
  48 H48            2.6141     4.2426     9.9584 H       
@<TRIPOS>BOND
   1    1    2 ar
   2    1    3 ar
   3    1   21 ar
   4    2   18 ar
   5    2    6 ar
   6    3    4 ar
   7    3    7 1
   8    4    5 ar
   9    4   33 1
  10    5    6 ar
  11    5   34 1
  12    7    8 1
  13    7   35 1
  14    8    9 1
  15    8   36 1
  16    8   37 1
  17    9   10 1
  18    9   13 2
  19   10   11 1
  20   10   14 1
  21   11   12 2
  22   11   17 1
  23   12   13 1
  24   14   15 2
  25   15   16 1
  26   15   24 1
  27   16   17 2
  28   16   38 1
  29   17   39 1
  30   18   19 ar
  31   18   40 1
  32   19   20 ar
  33   19   22 1
  34   20   21 ar
  35   20   41 1
  36   22   23 1
  37   23   42 1
  38   23   43 1
  39   23   44 1
  40   24   25 ar
  41   24   29 ar
  42   25   26 ar
  43   25   45 1
  44   26   27 ar
  45   26   46 1
  46   27   28 ar
  47   27   30 1
  48   28   29 ar
  49   28   32 1
  50   29   47 1
  51   30   31 2
  52   31   32 1
  53   31   48 1

#	End of record

