#	Name: ASD00310002
#	Creating user name:	WinNT
#	Creation time:	15. 06. 2019 18:33

#	Modifying user name:	WinNT
#	Modification time:	15. 06. 2019 18:33

#	Program:	/corina/corina34_cracker 3.40 0067  02.08.2006

@<TRIPOS>MOLECULE
ASD00310002
  39   44    0    0    0
SMALL
NO_CHARGES


@<TRIPOS>ATOM
   1 C1             0.0232     1.4049     0.0654 C.ar    
   2 C2             2.4456     0.0235    -0.0567 C.ar    
   3 C3             1.2542    -0.6986    -0.1331 C.ar    
   4 C4             0.0311     0.0021     0.0437 C.ar    
   5 C5            -1.1660    -0.7160     0.2497 C.ar    
   6 C6            -1.1802    -2.0665     0.1935 C.ar    
   7 C7             1.1852    -2.1278    -0.4397 C.ar    
   8 C8            -0.0251    -2.7950    -0.1268 C.ar    
   9 C9             2.2055    -4.1293    -1.0536 C.ar    
  10 N10            2.1508    -2.8187    -1.0455 N.ar    
  11 C11            1.1440    -4.9163    -0.5765 C.ar    
  12 C12           -0.0304    -4.2590    -0.1281 C.ar    
  13 C13           -1.1320    -5.0089     0.2791 C.ar    
  14 C14           -1.0712    -6.3746     0.2657 C.ar    
  15 C15            1.1970    -6.3161    -0.5555 C.ar    
  16 C16            0.0838    -7.0347    -0.1420 C.ar    
  17 O17            0.4055    -8.3555    -0.2423 O.3     
  18 C18            1.4926    -8.4531    -1.1711 C.3     
  19 O19            2.1612    -7.2202    -0.8750 O.3     
  20 C20            1.2097     2.0947     0.0570 C.ar    
  21 C21            2.4279     1.3969     0.0196 C.ar    
  22 O22            3.4173     2.3328     0.0564 O.3     
  23 C23            2.8452     3.5512    -0.4382 C.3     
  24 O24            1.5130     3.4221     0.0752 O.3     
  25 C25            3.1708    -2.1457    -1.8548 C.3     
  26 H26           -0.9153     1.9402     0.0841 H       
  27 H27            3.4006    -0.4796     0.0058 H       
  28 H28           -2.0796    -0.1797     0.4575 H       
  29 H29           -2.1006    -2.5916     0.4028 H       
  30 H30            3.0937    -4.6100    -1.4357 H       
  31 H31           -2.0356    -4.5157     0.6055 H       
  32 H32           -1.9333    -6.9485     0.5725 H       
  33 H33            2.1263    -9.3112    -0.9525 H       
  34 H34            1.1361    -8.4729    -2.2002 H       
  35 H35            3.3478     4.4226    -0.0233 H       
  36 H36            2.8466     3.5723    -1.5277 H       
  37 H37            2.8358    -2.0925    -2.8907 H       
  38 H38            3.3310    -1.1376    -1.4726 H       
  39 H39            4.1040    -2.7065    -1.8031 H       
@<TRIPOS>BOND
   1    1    4 ar
   2    1   20 ar
   3    1   26 1
   4    2   21 ar
   5    2    3 ar
   6    2   27 1
   7    3    4 ar
   8    3    7 ar
   9    4    5 ar
  10    5    6 ar
  11    5   28 1
  12    6    8 ar
  13    6   29 1
  14    7    8 ar
  15    7   10 ar
  16    8   12 ar
  17    9   10 ar
  18    9   11 ar
  19    9   30 1
  20   10   25 1
  21   11   12 ar
  22   11   15 ar
  23   12   13 ar
  24   13   14 ar
  25   13   31 1
  26   14   16 ar
  27   14   32 1
  28   15   16 ar
  29   15   19 1
  30   16   17 1
  31   17   18 1
  32   18   19 1
  33   18   33 1
  34   18   34 1
  35   20   21 ar
  36   20   24 1
  37   21   22 1
  38   22   23 1
  39   23   24 1
  40   23   35 1
  41   23   36 1
  42   25   37 1
  43   25   38 1
  44   25   39 1

#	End of record

