#	Name: ASD03090134
#	Creating user name:	WinNT
#	Creation time:	15. 06. 2019 20:28

#	Modifying user name:	WinNT
#	Modification time:	15. 06. 2019 20:28

#	Program:	/corina/corina34_cracker 3.40 0067  02.08.2006

@<TRIPOS>MOLECULE
ASD03090134
  54   56    0    0    0
SMALL
NO_CHARGES


@<TRIPOS>ATOM
   1 C1            -0.0186     1.5024     0.0154 C.2     
   2 C2             0.0014    -0.0045     0.0123 C.3     
   3 O3             1.0237     2.1227     0.0093 O.2     
   4 N4            -1.1946     2.1607     0.0195 N.am    
   5 C5             1.4287    -0.4880     0.0013 C.ar    
   6 C6             2.0905    -0.7116     1.1947 C.ar    
   7 C7             3.3986    -1.1547     1.1881 C.ar    
   8 C8             4.0493    -1.3757    -0.0191 C.ar    
   9 C9             3.3815    -1.1500    -1.2160 C.ar    
  10 C10            2.0717    -0.7123    -1.2023 C.ar    
  11 N11            5.3724    -1.8233    -0.0293 N.pl3   
  12 C12            6.0571    -2.0558    -1.3034 C.3     
  13 C13            7.5680    -1.9233    -1.1020 C.3     
  14 C14            8.2832    -2.1662    -2.4326 C.3     
  15 C15            7.9574    -3.5733    -2.9373 C.3     
  16 C16            6.4465    -3.7058    -3.1387 C.3     
  17 C17            5.7314    -3.4630    -1.8081 C.3     
  18 C18            8.6725    -3.8161    -4.2679 C.3     
  19 F19           10.0540    -3.6950    -4.0837 F       
  20 F20            8.3746    -5.1028    -4.7294 F       
  21 F21            8.2428    -2.8727    -5.2073 F       
  22 C22           -1.2153     3.5574     0.1329 C.ar    
  23 C23           -2.1839     4.2939    -0.5363 C.ar    
  24 C24           -2.2048     5.6696    -0.4248 C.ar    
  25 C25           -1.2567     6.3175     0.3575 C.ar    
  26 C26           -0.2879     5.5802     1.0273 C.ar    
  27 C27           -0.2708     4.2041     0.9191 C.ar    
  28 S28           -1.2824     8.0736     0.4997 S.3     
  29 C29            0.1193     8.4145     1.5995 C.3     
  30 F30           -0.0833     7.7727     2.8260 F       
  31 F31            1.2978     7.9397     1.0139 F       
  32 H32           -0.5013    -0.3764     0.9052 H       
  33 H33           -0.5139    -0.3729    -0.8747 H       
  34 H34           -2.0266     1.6678    -0.0562 H       
  35 H35            1.5841    -0.5393     2.1329 H       
  36 H36            3.9150    -1.3289     2.1205 H       
  37 H37            3.8846    -1.3208    -2.1563 H       
  38 H38            1.5504    -0.5412    -2.1325 H       
  39 H39            5.8378    -1.9803     0.8071 H       
  40 H40            5.7223    -1.3208    -2.0353 H       
  41 H41            7.8001    -0.9209    -0.7424 H       
  42 H42            7.9028    -2.6584    -0.3701 H       
  43 H43            7.9483    -1.4311    -3.1645 H       
  44 H44            9.3595    -2.0718    -2.2891 H       
  45 H45            8.2922    -4.3084    -2.2054 H       
  46 H46            6.1117    -2.9707    -3.8706 H       
  47 H47            6.2144    -4.7083    -3.4983 H       
  48 H48            6.0662    -4.1981    -1.0763 H       
  49 H49            4.6550    -3.5574    -1.9516 H       
  50 H50           -2.9208     3.7903    -1.1443 H       
  51 H51           -2.9577     6.2424    -0.9458 H       
  52 H52            0.4492     6.0833     1.6355 H       
  53 H53            0.4798     3.6306     1.4427 H       
  54 H54            0.2013     9.4893     1.7611 H       
@<TRIPOS>BOND
   1    1    2 1
   2    1    3 2
   3    1    4 am
   4    2    5 1
   5    2   32 1
   6    2   33 1
   7    4   22 1
   8    4   34 1
   9    5    6 ar
  10    5   10 ar
  11    6    7 ar
  12    6   35 1
  13    7    8 ar
  14    7   36 1
  15    8    9 ar
  16    8   11 1
  17    9   10 ar
  18    9   37 1
  19   10   38 1
  20   11   12 1
  21   11   39 1
  22   12   13 1
  23   12   17 1
  24   12   40 1
  25   13   14 1
  26   13   41 1
  27   13   42 1
  28   14   15 1
  29   14   43 1
  30   14   44 1
  31   15   16 1
  32   15   18 1
  33   15   45 1
  34   16   17 1
  35   16   46 1
  36   16   47 1
  37   17   48 1
  38   17   49 1
  39   18   19 1
  40   18   20 1
  41   18   21 1
  42   22   23 ar
  43   22   27 ar
  44   23   24 ar
  45   23   50 1
  46   24   25 ar
  47   24   51 1
  48   25   26 ar
  49   25   28 1
  50   26   27 ar
  51   26   52 1
  52   27   53 1
  53   28   29 1
  54   29   30 1
  55   29   31 1
  56   29   54 1

#	End of record

