#	Name: ASD01901388
#	Creating user name:	WinNT
#	Creation time:	15. 06. 2019 19:53

#	Modifying user name:	WinNT
#	Modification time:	15. 06. 2019 19:53

#	Program:	/corina/corina34_cracker 3.40 0067  02.08.2006

@<TRIPOS>MOLECULE
ASD01901388
  37   40    0    0    0
SMALL
NO_CHARGES


@<TRIPOS>ATOM
   1 C1            -0.0168     1.3882     0.0097 C.ar    
   2 N2             1.1073     2.0760     0.0026 N.ar    
   3 C3             2.2869     1.4827    -0.0118 C.ar    
   4 C4             2.3892     0.0982    -0.0201 C.ar    
   5 C5             1.2334    -0.6652    -0.0132 C.ar    
   6 C6             0.0021    -0.0041     0.0020 C.ar    
   7 C7            -1.2666    -0.7746     0.0104 C.2     
   8 N8            -2.7242    -2.2660     1.1173 N.2     
   9 C9            -1.6032    -1.5872     1.1148 C.2     
  10 C10           -2.1278    -0.7032    -1.0484 C.2     
  11 N11           -3.2846    -1.4239    -1.0085 N.pl3   
  12 C12           -3.5729    -2.2061     0.0801 C.2     
  13 C13           -4.3233    -1.5586    -1.8899 C.2     
  14 C14           -5.2110    -2.4075    -1.3298 C.2     
  15 N15           -4.7420    -2.7911    -0.1388 N.2     
  16 C16           -6.5136    -2.8495    -1.9456 C.3     
  17 O17           -6.6707    -2.2299    -3.2236 O.3     
  18 C18           -7.8020    -2.5248    -3.9175 C.ar    
  19 C19           -8.7432    -3.3880    -3.3762 C.ar    
  20 C20           -8.0187    -1.9584    -5.1650 C.ar    
  21 C21           -9.1689    -2.2586    -5.8688 C.ar    
  22 C22          -10.1053    -3.1240    -5.3294 C.ar    
  23 C23           -9.8926    -3.6864    -4.0823 C.ar    
  24 F24            3.4100     2.2335    -0.0189 F       
  25 F25            3.6017    -0.4975    -0.0353 F       
  26 F26          -11.2302    -3.4161    -6.0184 F       
  27 H27           -0.9624     1.9098     0.0260 H       
  28 H28            1.2824    -1.7440    -0.0198 H       
  29 H29           -0.9343    -1.6498     1.9604 H       
  30 H30           -1.8959    -0.0852    -1.9032 H       
  31 H31           -4.4154    -1.0763    -2.8518 H       
  32 H32           -6.5099    -3.9329    -2.0650 H       
  33 H33           -7.3395    -2.5583    -1.2966 H       
  34 H34           -8.5775    -3.8268    -2.4034 H       
  35 H35           -7.2887    -1.2827    -5.5857 H       
  36 H36           -9.3379    -1.8176    -6.8402 H       
  37 H37          -10.6256    -4.3585    -3.6610 H       
@<TRIPOS>BOND
   1    1    6 ar
   2    1    2 ar
   3    1   27 1
   4    2    3 ar
   5    3    4 ar
   6    3   24 1
   7    4    5 ar
   8    4   25 1
   9    5    6 ar
  10    5   28 1
  11    6    7 1
  12    7   10 2
  13    7    9 1
  14    8    9 2
  15    8   12 1
  16    9   29 1
  17   10   11 1
  18   10   30 1
  19   11   13 1
  20   11   12 1
  21   12   15 2
  22   13   14 2
  23   13   31 1
  24   14   15 1
  25   14   16 1
  26   16   17 1
  27   16   32 1
  28   16   33 1
  29   17   18 1
  30   18   20 ar
  31   18   19 ar
  32   19   23 ar
  33   19   34 1
  34   20   21 ar
  35   20   35 1
  36   21   22 ar
  37   21   36 1
  38   22   23 ar
  39   22   26 1
  40   23   37 1

#	End of record

