#	Name: ASD01917904
#	Creating user name:	WinNT
#	Creation time:	15. 06. 2019 20:10

#	Modifying user name:	WinNT
#	Modification time:	15. 06. 2019 20:10

#	Program:	/corina/corina34_cracker 3.40 0067  02.08.2006

@<TRIPOS>MOLECULE
ASD01917904
  42   45    0    0    0
SMALL
NO_CHARGES


@<TRIPOS>ATOM
   1 C1             0.0022     1.2913    -0.0681 C.2     
   2 C2            -0.0043    -0.0549    -0.0602 C.2     
   3 C3            -1.2837    -0.8763    -0.0192 C.3     
   4 C4            -2.4299     0.0056     0.4819 C.3     
   5 N5            -2.3983     1.2894    -0.2349 N.am    
   6 C6            -1.2311     2.1641    -0.0261 C.3     
   7 C7            -3.4039     1.6536    -1.0549 C.2     
   8 O8            -4.3041     0.8740    -1.2956 O.2     
   9 S9             1.6693     1.8460    -0.1272 S.3     
  10 C10            2.2157     0.2264    -0.1315 C.2     
  11 N11            1.2133    -0.5792    -0.0932 N.2     
  12 C12            3.6615    -0.1965    -0.1744 C.3     
  13 O13            4.0754    -0.3406    -1.5346 O.3     
  14 C14            5.3623    -0.7200    -1.7509 C.ar    
  15 C15            5.8313    -0.8791    -3.0468 C.ar    
  16 C16            7.1399    -1.2650    -3.2641 C.ar    
  17 C17            7.9819    -1.4926    -2.1913 C.ar    
  18 C18            7.5168    -1.3352    -0.8988 C.ar    
  19 C19            6.2108    -0.9435    -0.6763 C.ar    
  20 C20           -3.4117     3.0063    -1.6636 C.2     
  21 C21           -4.3233     3.5002    -2.6379 C.2     
  22 C22           -3.9078     4.7689    -2.8589 C.2     
  23 O23           -2.8445     4.9685    -2.0678 O.3     
  24 N24           -2.5842     3.9890    -1.4084 N.2     
  25 C25           -4.5211     5.7639    -3.8101 C.3     
  26 H26           -1.5151    -1.2406    -1.0201 H       
  27 H27           -1.1525    -1.7217     0.6561 H       
  28 H28           -3.3813    -0.4925     0.2954 H       
  29 H29           -2.3132     0.1822     1.5511 H       
  30 H30           -1.3057     2.6560     0.9437 H       
  31 H31           -1.1817     2.9111    -0.8183 H       
  32 H32            4.2759     0.5597     0.3142 H       
  33 H33            3.7770    -1.1486     0.3434 H       
  34 H34            5.1738    -0.7018    -3.8851 H       
  35 H35            7.5053    -1.3893    -4.2727 H       
  36 H36            9.0046    -1.7942    -2.3632 H       
  37 H37            8.1763    -1.5142    -0.0625 H       
  38 H38            5.8480    -0.8206     0.3335 H       
  39 H39           -5.1537     2.9827    -3.0951 H       
  40 H40           -5.2890     6.3372    -3.2907 H       
  41 H41           -3.7487     6.4399    -4.1767 H       
  42 H42           -4.9694     5.2342    -4.6507 H       
@<TRIPOS>BOND
   1    1    2 2
   2    1    9 1
   3    1    6 1
   4    2    3 1
   5    2   11 1
   6    3    4 1
   7    3   26 1
   8    3   27 1
   9    4    5 1
  10    4   28 1
  11    4   29 1
  12    5    6 1
  13    5    7 am
  14    6   30 1
  15    6   31 1
  16    7    8 2
  17    7   20 1
  18    9   10 1
  19   10   11 2
  20   10   12 1
  21   12   13 1
  22   12   32 1
  23   12   33 1
  24   13   14 1
  25   14   15 ar
  26   14   19 ar
  27   15   16 ar
  28   15   34 1
  29   16   17 ar
  30   16   35 1
  31   17   18 ar
  32   17   36 1
  33   18   19 ar
  34   18   37 1
  35   19   38 1
  36   20   21 1
  37   20   24 2
  38   21   22 2
  39   21   39 1
  40   22   23 1
  41   22   25 1
  42   23   24 1
  43   25   40 1
  44   25   41 1
  45   25   42 1

#	End of record

