#	Name: ASD07300301
#	Creating user name:	WinNT
#	Creation time:	15. 06. 2019 21:09

#	Modifying user name:	WinNT
#	Modification time:	15. 06. 2019 21:09

#	Program:	/corina/corina34_cracker 3.40 0067  02.08.2006

@<TRIPOS>MOLECULE
ASD07300301
  35   37    0    0    0
SMALL
NO_CHARGES


@<TRIPOS>ATOM
   1 C1            -0.0169     1.3941     0.0097 C.ar    
   2 C2             0.0021    -0.0041     0.0020 C.ar    
   3 C3             1.2197    -0.6677    -0.0128 C.ar    
   4 C4             2.3815     0.0923    -0.0194 C.ar    
   5 C5             2.2879     1.4724    -0.0111 C.ar    
   6 N6             1.1157     2.0771     0.0026 N.ar    
   7 C7            -2.1141     0.6619     0.0347 C.2     
   8 N8            -1.3548     1.7733     0.0301 N.am    
   9 N9            -1.3234    -0.4280     0.0124 N.am    
  10 O10           -3.3306     0.6447     0.0513 O.2     
  11 C11           -1.7798    -1.8201     0.0086 C.3     
  12 C12           -2.6119    -2.0875     1.2644 C.3     
  13 C13           -2.6362    -2.0726    -1.2339 C.3     
  14 C14           -1.8326     3.0923     0.0444 C.ar    
  15 C15           -3.1991     3.3356     0.0644 C.ar    
  16 C16           -3.6689     4.6340     0.0789 C.ar    
  17 C17           -2.7754     5.6952     0.0731 C.ar    
  18 C18           -1.4097     5.4527     0.0527 C.ar    
  19 C19           -0.9388     4.1546     0.0443 C.ar    
  20 O20           -3.2385     6.9735     0.0870 O.3     
  21 Cl21           3.9355    -0.6813    -0.0373 Cl      
  22 H22            1.2631    -1.7468    -0.0186 H       
  23 H23            3.1906     2.0653    -0.0159 H       
  24 H24           -0.9166    -2.4855    -0.0038 H       
  25 H25           -2.9515    -3.1232     1.2615 H       
  26 H26           -2.0018    -1.9076     2.1496 H       
  27 H27           -3.4752    -1.4221     1.2767 H       
  28 H28           -2.0434    -1.8822    -2.1286 H       
  29 H29           -2.9758    -3.1084    -1.2368 H       
  30 H30           -3.4994    -1.4073    -1.2216 H       
  31 H31           -3.8948     2.5095     0.0682 H       
  32 H32           -4.7320     4.8234     0.0945 H       
  33 H33           -0.7146     6.2792     0.0478 H       
  34 H34            0.1245     3.9658     0.0330 H       
  35 H35           -3.3604     7.3381     0.9743 H       
@<TRIPOS>BOND
   1    1    2 ar
   2    1    6 ar
   3    1    8 1
   4    2    3 ar
   5    2    9 1
   6    3    4 ar
   7    3   22 1
   8    4    5 ar
   9    4   21 1
  10    5    6 ar
  11    5   23 1
  12    7    8 am
  13    7    9 am
  14    7   10 2
  15    8   14 1
  16    9   11 1
  17   11   12 1
  18   11   13 1
  19   11   24 1
  20   12   25 1
  21   12   26 1
  22   12   27 1
  23   13   28 1
  24   13   29 1
  25   13   30 1
  26   14   15 ar
  27   14   19 ar
  28   15   16 ar
  29   15   31 1
  30   16   17 ar
  31   16   32 1
  32   17   18 ar
  33   17   20 1
  34   18   19 ar
  35   18   33 1
  36   19   34 1
  37   20   35 1

#	End of record

