#	Name: ASD04880461
#	Creating user name:	WinNT
#	Creation time:	15. 06. 2019 20:53

#	Modifying user name:	WinNT
#	Modification time:	15. 06. 2019 20:53

#	Program:	/corina/corina34_cracker 3.40 0067  02.08.2006

@<TRIPOS>MOLECULE
ASD04880461
  48   50    0    0    0
SMALL
NO_CHARGES


@<TRIPOS>ATOM
   1 C1             0.0100     0.9255    -0.1659 C.ar    
   2 C2            -0.0509    -0.4596    -0.1288 C.ar    
   3 C3            -1.2723    -1.0984    -0.0768 C.ar    
   4 C4            -2.4515    -0.3500    -0.0608 C.ar    
   5 C5            -2.3897     1.0458    -0.0977 C.ar    
   6 C6            -1.1622     1.6788    -0.1445 C.ar    
   7 O7             1.2163     1.5499    -0.2176 O.3     
   8 C8             2.3777     0.7174    -0.2309 C.3     
   9 C9            -3.7581    -1.0306    -0.0056 C.2     
  10 C10           -3.9658    -2.5268    -0.0706 C.3     
  11 C11           -5.4951    -2.6941     0.0279 C.3     
  12 N12           -5.9873    -1.3115     0.1361 N.am    
  13 N13           -4.8984    -0.4424     0.1110 N.2     
  14 C14           -7.2798    -0.9458     0.2460 C.2     
  15 O15           -8.1555    -1.7817     0.1674 O.2     
  16 C16           -7.6372     0.5015     0.4665 C.3     
  17 O17           -6.4511     1.2478     0.7462 O.3     
  18 C18           -6.1231     1.3189     2.1352 C.3     
  19 C19           -9.6591     0.9008    -0.9562 C.ar    
  20 O20           -1.0984     3.0368    -0.1800 O.3     
  21 C21           -2.3394     3.7451    -0.1664 C.3     
  22 C22           -8.2958     1.0507    -0.7727 C.ar    
  23 C23           -7.5384     1.7046    -1.7259 C.ar    
  24 C24           -8.1427     2.2094    -2.8625 C.ar    
  25 C25           -9.5044     2.0599    -3.0463 C.ar    
  26 C26          -10.2622     1.4010    -2.0962 C.ar    
  27 Cl27         -10.6112     0.0790     0.2405 Cl      
  28 H28            0.8602    -1.0394    -0.1411 H       
  29 H29           -1.3168    -2.1771    -0.0487 H       
  30 H30           -3.2990     1.6284    -0.0855 H       
  31 H31            3.2710     1.3406    -0.2733 H       
  32 H32            2.4005     0.1110     0.6745 H       
  33 H33            2.3476     0.0657    -1.1041 H       
  34 H34           -3.5981    -2.9231    -1.0171 H       
  35 H35           -3.4726    -3.0181     0.7681 H       
  36 H36           -5.8874    -3.1718    -0.8698 H       
  37 H37           -5.7619    -3.2668     0.9162 H       
  38 H38           -8.3242     0.5818     1.3090 H       
  39 H39           -6.9392     1.7969     2.6772 H       
  40 H40           -5.9690     0.3124     2.5241 H       
  41 H41           -5.2110     1.9018     2.2638 H       
  42 H42           -2.1461     4.8174    -0.1981 H       
  43 H43           -2.9318     3.4569    -1.0348 H       
  44 H44           -2.8869     3.5014     0.7440 H       
  45 H45           -6.4744     1.8217    -1.5828 H       
  46 H46           -7.5505     2.7209    -3.6068 H       
  47 H47           -9.9759     2.4547    -3.9341 H       
  48 H48          -11.3262     1.2842    -2.2399 H       
@<TRIPOS>BOND
   1    1    2 ar
   2    1    7 1
   3    1    6 ar
   4    2    3 ar
   5    2   28 1
   6    3    4 ar
   7    3   29 1
   8    4    5 ar
   9    4    9 1
  10    5    6 ar
  11    5   30 1
  12    6   20 1
  13    7    8 1
  14    8   31 1
  15    8   32 1
  16    8   33 1
  17    9   10 1
  18    9   13 2
  19   10   11 1
  20   10   34 1
  21   10   35 1
  22   11   12 1
  23   11   36 1
  24   11   37 1
  25   12   13 1
  26   12   14 am
  27   14   15 2
  28   14   16 1
  29   16   17 1
  30   16   22 1
  31   16   38 1
  32   17   18 1
  33   18   39 1
  34   18   40 1
  35   18   41 1
  36   19   22 ar
  37   19   27 1
  38   19   26 ar
  39   20   21 1
  40   21   42 1
  41   21   43 1
  42   21   44 1
  43   22   23 ar
  44   23   24 ar
  45   23   45 1
  46   24   25 ar
  47   24   46 1
  48   25   26 ar
  49   25   47 1
  50   26   48 1

#	End of record

