#	Name: ASD01148679
#	Creating user name:	WinNT
#	Creation time:	15. 06. 2019 19:03

#	Modifying user name:	WinNT
#	Modification time:	15. 06. 2019 19:03

#	Program:	/corina/corina34_cracker 3.40 0067  02.08.2006

@<TRIPOS>MOLECULE
ASD01148679
  34   33    0    0    0
SMALL
NO_CHARGES


@<TRIPOS>ATOM
   1 C1             0.0021    -0.0041     0.0020 C.1     
   2 C2            -0.0179     1.4678     0.0101 C.3     
   3 C3             1.3631     1.9773    -0.0003 C.1     
   4 N4             0.0175    -1.1399    -0.0042 N.1     
   5 N5             2.4288     2.3705    -0.0084 N.1     
   6 C6            -0.7579     1.9746    -1.2294 C.3     
   7 C7            -0.0417     1.4812    -2.4882 C.3     
   8 C8            -0.7817     1.9880    -3.7277 C.3     
   9 C9            -0.0656     1.4946    -4.9865 C.3     
  10 F10           -0.0466     0.0958    -4.9942 F       
  11 F11           -0.7422     1.9580    -6.1199 F       
  12 F12            1.2469     1.9788    -4.9965 F       
  13 F13           -2.0942     1.5038    -3.7178 F       
  14 F14           -0.8007     3.3869    -3.7201 F       
  15 C15           -0.7340     1.9612     1.2689 C.3     
  16 C16            0.0060     1.4544     2.5084 C.3     
  17 C17           -0.7102     1.9478     3.7672 C.3     
  18 C18            0.0298     1.4409     5.0068 C.3     
  19 C19           -0.6863     1.9344     6.2656 C.3     
  20 F20           -1.9988     1.4501     6.2755 F       
  21 F21           -0.0097     1.4709     7.3990 F       
  22 F22            0.0488     0.0421     4.9991 F       
  23 F23            1.3423     1.9252     4.9968 F       
  24 F24           -0.7291     3.3466     3.7749 F       
  25 F25           -2.0227     1.4635     3.7772 F       
  26 F26            0.0249     0.0555     2.5007 F       
  27 F27            1.3185     1.9386     2.4985 F       
  28 H28           -1.7805     1.5973    -1.2217 H       
  29 H29           -0.7727     3.0645    -1.2234 H       
  30 H30            0.9809     1.8585    -2.4960 H       
  31 H31           -0.0270     0.3913    -2.4942 H       
  32 H32           -0.7488     3.0511     1.2749 H       
  33 H33           -1.7566     1.5839     1.2767 H       
  34 H34           -0.7011     3.0242     6.2716 H       
@<TRIPOS>BOND
   1    1    2 1
   2    1    4 3
   3    2    3 1
   4    2    6 1
   5    2   15 1
   6    3    5 3
   7    6    7 1
   8    6   28 1
   9    6   29 1
  10    7    8 1
  11    7   30 1
  12    7   31 1
  13    8    9 1
  14    8   13 1
  15    8   14 1
  16    9   10 1
  17    9   11 1
  18    9   12 1
  19   15   16 1
  20   15   32 1
  21   15   33 1
  22   16   17 1
  23   16   26 1
  24   16   27 1
  25   17   18 1
  26   17   24 1
  27   17   25 1
  28   18   19 1
  29   18   22 1
  30   18   23 1
  31   19   20 1
  32   19   21 1
  33   19   34 1

#	End of record

