#	Name: ASD01148678
#	Creating user name:	WinNT
#	Creation time:	15. 06. 2019 19:03

#	Modifying user name:	WinNT
#	Modification time:	15. 06. 2019 19:03

#	Program:	/corina/corina34_cracker 3.40 0067  02.08.2006

@<TRIPOS>MOLECULE
ASD01148678
  31   30    0    0    0
SMALL
NO_CHARGES


@<TRIPOS>ATOM
   1 C1             0.0021    -0.0041     0.0020 C.1     
   2 C2            -0.0179     1.4678     0.0101 C.3     
   3 C3             1.3631     1.9773    -0.0003 C.1     
   4 N4             0.0175    -1.1399    -0.0042 N.1     
   5 N5             2.4288     2.3705    -0.0084 N.1     
   6 C6            -0.7579     1.9746    -1.2294 C.3     
   7 C7            -0.0417     1.4812    -2.4882 C.3     
   8 C8            -0.7817     1.9880    -3.7277 C.3     
   9 F9            -0.8007     3.3869    -3.7201 F       
  10 F10           -0.1269     1.5369    -4.8788 F       
  11 F11           -2.0942     1.5038    -3.7178 F       
  12 C12           -0.7340     1.9612     1.2689 C.3     
  13 C13            0.0060     1.4544     2.5084 C.3     
  14 C14           -0.7102     1.9478     3.7672 C.3     
  15 C15            0.0298     1.4409     5.0068 C.3     
  16 C16           -0.6863     1.9344     6.2656 C.3     
  17 F17           -1.9988     1.4501     6.2755 F       
  18 F18           -0.0097     1.4709     7.3990 F       
  19 F19            0.0488     0.0421     4.9991 F       
  20 F20            1.3423     1.9252     4.9968 F       
  21 F21           -0.7291     3.3466     3.7749 F       
  22 F22           -2.0227     1.4635     3.7772 F       
  23 F23            0.0249     0.0555     2.5007 F       
  24 F24            1.3185     1.9386     2.4985 F       
  25 H25           -1.7805     1.5973    -1.2217 H       
  26 H26           -0.7727     3.0645    -1.2234 H       
  27 H27            0.9809     1.8585    -2.4960 H       
  28 H28           -0.0270     0.3913    -2.4942 H       
  29 H29           -0.7488     3.0511     1.2749 H       
  30 H30           -1.7566     1.5839     1.2767 H       
  31 H31           -0.7011     3.0242     6.2716 H       
@<TRIPOS>BOND
   1    1    2 1
   2    1    4 3
   3    2    3 1
   4    2    6 1
   5    2   12 1
   6    3    5 3
   7    6    7 1
   8    6   25 1
   9    6   26 1
  10    7    8 1
  11    7   27 1
  12    7   28 1
  13    8    9 1
  14    8   10 1
  15    8   11 1
  16   12   13 1
  17   12   29 1
  18   12   30 1
  19   13   14 1
  20   13   23 1
  21   13   24 1
  22   14   15 1
  23   14   21 1
  24   14   22 1
  25   15   16 1
  26   15   19 1
  27   15   20 1
  28   16   17 1
  29   16   18 1
  30   16   31 1

#	End of record

