#	Name: ASD03900055
#	Creating user name:	WinNT
#	Creation time:	15. 06. 2019 20:47

#	Modifying user name:	WinNT
#	Modification time:	15. 06. 2019 20:47

#	Program:	/corina/corina34_cracker 3.40 0067  02.08.2006

@<TRIPOS>MOLECULE
ASD03900055
  47   51    0    0    0
SMALL
NO_CHARGES


@<TRIPOS>ATOM
   1 C1             0.0570     1.2557     0.1488 C.ar    
   2 C2             0.0663    -0.1094    -0.0268 C.ar    
   3 C3             1.2610    -0.8171    -0.2597 C.ar    
   4 C4             2.4878    -0.1508    -0.3218 C.ar    
   5 C5             2.4621     1.2245    -0.1438 C.ar    
   6 C6             1.2851     1.9085     0.0856 C.ar    
   7 C7            -1.0330    -1.1243    -0.0255 C.3     
   8 O8            -0.3981    -2.4152    -0.2653 O.3     
   9 C9             0.9307    -2.2346    -0.4008 C.2     
  10 O10            1.7360    -3.1198    -0.6096 O.2     
  11 C11           -1.7259    -1.1480     1.3104 C.ar    
  12 C12           -2.9829    -0.5868     1.4663 C.ar    
  13 C13           -3.2579    -0.2937    -0.8480 C.ar    
  14 C14           -2.0151    -0.8371    -1.1294 C.ar    
  15 C15           -4.1506    -0.0388    -1.8822 C.ar    
  16 C16           -3.7981    -0.3249    -3.1904 C.ar    
  17 C17           -2.5502    -0.8679    -3.4676 C.ar    
  18 C18           -1.6647    -1.1218    -2.4382 C.ar    
  19 C19           -1.0931    -1.7387     2.3909 C.ar    
  20 C20           -1.7099    -1.7725     3.6265 C.ar    
  21 C21           -2.9703    -1.2118     3.7877 C.ar    
  22 C22           -3.6049    -0.6198     2.7087 C.ar    
  23 O23           -3.5797    -1.2442     5.0024 O.3     
  24 O24           -4.6720    -0.0754    -4.2013 O.3     
  25 O25           -3.6211    -0.0023     0.4242 O.3     
  26 C26           -5.4070    -1.1094    -4.6408 C.2     
  27 C27           -6.3012    -0.9415    -5.8422 C.3     
  28 O28           -5.3517    -2.1745    -4.0730 O.2     
  29 C29           -3.2398    -0.2872     5.8806 C.2     
  30 C30           -3.9506    -0.1940     7.2061 C.3     
  31 O31           -2.3640     0.4993     5.6081 O.2     
  32 Cl32          -0.9104    -2.5156     4.9765 Cl      
  33 Cl33          -2.1035    -1.2269    -5.1063 Cl      
  34 H34           -0.8616     1.7963     0.3232 H       
  35 H35            3.4116    -0.6812    -0.4995 H       
  36 H36            3.3898     1.7760    -0.1845 H       
  37 H37            1.3177     2.9799     0.2180 H       
  38 H38           -5.1210     0.3827    -1.6653 H       
  39 H39           -0.6946    -1.5439    -2.6554 H       
  40 H40           -0.1131    -2.1754     2.2671 H       
  41 H41           -4.5850    -0.1835     2.8327 H       
  42 H42           -6.2191     0.0790    -6.2164 H       
  43 H43           -5.9971    -1.6400    -6.6218 H       
  44 H44           -7.3340    -1.1420    -5.5573 H       
  45 H45           -4.7023    -0.9807     7.2715 H       
  46 H46           -3.2291    -0.3129     8.0145 H       
  47 H47           -4.4346     0.7789     7.2913 H       
@<TRIPOS>BOND
   1    1    2 ar
   2    1    6 ar
   3    1   34 1
   4    2    3 ar
   5    2    7 1
   6    3    4 ar
   7    3    9 1
   8    4    5 ar
   9    4   35 1
  10    5    6 ar
  11    5   36 1
  12    6   37 1
  13    7   11 1
  14    7    8 1
  15    7   14 1
  16    8    9 1
  17    9   10 2
  18   11   12 ar
  19   11   19 ar
  20   12   25 1
  21   12   22 ar
  22   13   14 ar
  23   13   15 ar
  24   13   25 1
  25   14   18 ar
  26   15   16 ar
  27   15   38 1
  28   16   17 ar
  29   16   24 1
  30   17   18 ar
  31   17   33 1
  32   18   39 1
  33   19   20 ar
  34   19   40 1
  35   20   21 ar
  36   20   32 1
  37   21   22 ar
  38   21   23 1
  39   22   41 1
  40   23   29 1
  41   24   26 1
  42   26   27 1
  43   26   28 2
  44   27   42 1
  45   27   43 1
  46   27   44 1
  47   29   30 1
  48   29   31 2
  49   30   45 1
  50   30   46 1
  51   30   47 1

#	End of record

