#	Name: ASD01814412
#	Creating user name:	WinNT
#	Creation time:	15. 06. 2019 19:32

#	Modifying user name:	WinNT
#	Modification time:	15. 06. 2019 19:32

#	Program:	/corina/corina34_cracker 3.40 0067  02.08.2006

@<TRIPOS>MOLECULE
ASD01814412
  56   61    0    0    0
SMALL
NO_CHARGES


@<TRIPOS>ATOM
   1 C1            -0.0167     1.3819     0.0096 C.ar    
   2 C2             0.0021    -0.0041     0.0020 C.ar    
   3 C3             1.1970    -0.6936    -0.0126 C.ar    
   4 C4             2.3990     0.0034    -0.0203 C.ar    
   5 C5             2.3751     1.4118    -0.0130 C.ar    
   6 C6             1.1661     2.0940     0.0022 C.ar    
   7 N7             3.6102    -0.6577    -0.0345 N.pl3   
   8 N8             4.7455    -0.0610    -0.0416 N.2     
   9 C9             4.8827     1.2395    -0.0363 C.2     
  10 C10            3.6768     2.1037    -0.0217 C.2     
  11 C11            6.0122     2.1720    -0.0422 C.2     
  12 N12            5.4770     3.4118    -0.0314 N.am    
  13 N13            4.0818     3.3389    -0.0194 N.2     
  14 C14            3.5986    -2.1226    -0.0412 C.3     
  15 C15            3.5816    -2.6183    -1.4643 C.ar    
  16 C16            4.7721    -2.8547    -2.1268 C.ar    
  17 C17            4.7597    -3.3086    -3.4313 C.ar    
  18 C18            3.5504    -3.5279    -4.0771 C.ar    
  19 C19            2.3568    -3.2900    -3.4090 C.ar    
  20 C20            2.3755    -2.8412    -2.1030 C.ar    
  21 O21            7.1978     1.8862    -0.0541 O.2     
  22 C22            6.2152     4.6009    -0.0321 C.ar    
  23 C23            7.1592     4.8334    -1.0238 C.ar    
  24 C24            7.8860     6.0080    -1.0216 C.ar    
  25 C25            7.6749     6.9515    -0.0332 C.ar    
  26 C26            6.7355     6.7230     0.9560 C.ar    
  27 C27            6.0012     5.5537     0.9560 C.ar    
  28 N28            3.5346    -3.9881    -5.4011 N.pl3   
  29 C29            2.4325    -4.2411    -6.1426 C.2     
  30 C30            2.8438    -4.6660    -7.3598 C.2     
  31 C31            4.2430    -4.6732    -7.3634 C.2     
  32 N32            4.6578    -4.2615    -6.1924 N.2     
  33 C33            6.5088     7.7542     2.0313 C.3     
  34 C34            4.9778     5.3056     2.0341 C.3     
  35 H35           -0.9605     1.9069     0.0169 H       
  36 H36           -0.9294    -0.5505     0.0080 H       
  37 H37            1.1981    -1.7735    -0.0177 H       
  38 H38            1.1510     3.1739     0.0077 H       
  39 H39            4.4903    -2.4954     0.4627 H       
  40 H40            2.7105    -2.4813     0.4791 H       
  41 H41            5.7125    -2.6839    -1.6239 H       
  42 H42            5.6898    -3.4923    -3.9485 H       
  43 H43            1.4145    -3.4594    -3.9090 H       
  44 H44            1.4473    -2.6560    -1.5828 H       
  45 H45            7.3250     4.0965    -1.7958 H       
  46 H46            8.6203     6.1894    -1.7925 H       
  47 H47            8.2451     7.8688    -0.0332 H       
  48 H48            1.4080    -4.1255    -5.8210 H       
  49 H49            2.2049    -4.9494    -8.1831 H       
  50 H50            4.8723    -4.9641    -8.1914 H       
  51 H51            5.7339     8.4501     1.7098 H       
  52 H52            6.1938     7.2584     2.9495 H       
  53 H53            7.4348     8.3000     2.2124 H       
  54 H54            4.0119     5.6974     1.7153 H       
  55 H55            4.8934     4.2341     2.2152 H       
  56 H56            5.2880     5.8058     2.9515 H       
@<TRIPOS>BOND
   1    1    2 ar
   2    1    6 ar
   3    1   35 1
   4    2    3 ar
   5    2   36 1
   6    3    4 ar
   7    3   37 1
   8    4    5 ar
   9    4    7 1
  10    5    6 ar
  11    5   10 1
  12    6   38 1
  13    7    8 1
  14    7   14 1
  15    8    9 2
  16    9   10 1
  17    9   11 1
  18   10   13 2
  19   11   12 am
  20   11   21 2
  21   12   13 1
  22   12   22 1
  23   14   15 1
  24   14   39 1
  25   14   40 1
  26   15   16 ar
  27   15   20 ar
  28   16   17 ar
  29   16   41 1
  30   17   18 ar
  31   17   42 1
  32   18   19 ar
  33   18   28 1
  34   19   20 ar
  35   19   43 1
  36   20   44 1
  37   22   23 ar
  38   22   27 ar
  39   23   24 ar
  40   23   45 1
  41   24   25 ar
  42   24   46 1
  43   25   26 ar
  44   25   47 1
  45   26   27 ar
  46   26   33 1
  47   27   34 1
  48   28   29 1
  49   28   32 1
  50   29   30 2
  51   29   48 1
  52   30   31 1
  53   30   49 1
  54   31   32 2
  55   31   50 1
  56   33   51 1
  57   33   52 1
  58   33   53 1
  59   34   54 1
  60   34   55 1
  61   34   56 1

#	End of record

