#	Name: ASD01208491
#	Creating user name:	WinNT
#	Creation time:	15. 06. 2019 19:09

#	Modifying user name:	WinNT
#	Modification time:	15. 06. 2019 19:09

#	Program:	/corina/corina34_cracker 3.40 0067  02.08.2006

@<TRIPOS>MOLECULE
ASD01208491
  54   57    0    0    0
SMALL
NO_CHARGES


@<TRIPOS>ATOM
   1 C1             1.6598    -2.9108    -6.0947 C.2     
   2 C2             1.2102    -3.1812    -4.7165 C.ar    
   3 C3             2.0324    -2.8533    -3.6340 C.ar    
   4 C4             1.6081    -3.1079    -2.3476 C.ar    
   5 C5             0.3628    -3.6905    -2.1266 C.ar    
   6 C6            -0.4556    -4.0175    -3.2006 C.ar    
   7 C7            -0.0410    -3.7604    -4.4888 C.ar    
   8 O8             2.7459    -2.4026    -6.2908 O.2     
   9 O9             0.8685    -3.2325    -7.1369 O.3     
  10 O10           -0.0524    -3.9400    -0.8586 O.3     
  11 C11           -1.2546    -4.5505    -0.6895 C.ar    
  12 C12           -2.3632    -3.8055    -0.3118 C.ar    
  13 C13           -3.5927    -4.4238    -0.1373 C.ar    
  14 C14           -3.7191    -5.7883    -0.3395 C.ar    
  15 C15           -2.6073    -6.5412    -0.7197 C.ar    
  16 C16           -1.3732    -5.9142    -0.8997 C.ar    
  17 N17           -1.7274    -8.8454    -1.3092 N.pl3   
  18 C18           -2.7372    -7.9971    -0.9360 C.2     
  19 C19           -3.8834    -8.7258    -0.7978 C.2     
  20 C20           -3.5796   -10.0578    -1.0916 C.2     
  21 C21           -2.2396   -10.1162    -1.4068 C.2     
  22 S22           -2.1633   -12.9487    -1.9025 S.3     
  23 C23           -1.4906   -11.3249    -1.7820 C.2     
  24 N24           -0.2205   -11.3672    -2.0798 N.2     
  25 C25            0.2790   -12.5407    -2.3925 C.2     
  26 C26           -0.5796   -13.5654    -2.3692 C.2     
  27 O27           -4.6749    -3.6897     0.2330 O.3     
  28 C28           -4.4535    -2.3077     0.5213 C.3     
  29 C29           -5.5503    -1.8004     1.4597 C.3     
  30 C30           -4.4839    -1.5040    -0.7803 C.3     
  31 O31           -6.8112    -1.8494     0.7891 O.3     
  32 C32           -7.9094    -1.3944     1.5821 C.3     
  33 F33            2.4011    -2.7923    -1.3003 F       
  34 H34            2.9984    -2.4018    -3.8056 H       
  35 H35           -1.4204    -4.4698    -3.0250 H       
  36 H36           -0.6804    -4.0107    -5.3224 H       
  37 H37            1.2061    -3.0362    -8.0215 H       
  38 H38           -2.2682    -2.7415    -0.1530 H       
  39 H39           -4.6765    -6.2688    -0.2027 H       
  40 H40           -0.5112    -6.4925    -1.1981 H       
  41 H41           -0.8071    -8.5906    -1.4797 H       
  42 H42           -4.8514    -8.3417    -0.5118 H       
  43 H43           -4.2687   -10.8892    -1.0740 H       
  44 H44            1.3191   -12.6701    -2.6527 H       
  45 H45           -0.3432   -14.5943    -2.5969 H       
  46 H46           -3.4816    -2.1875     0.9998 H       
  47 H47           -5.5871    -2.4294     2.3491 H       
  48 H48           -5.3330    -0.7726     1.7503 H       
  49 H49           -5.4558    -1.6242    -1.2589 H       
  50 H50           -4.3150    -0.4499    -0.5605 H       
  51 H51           -3.7025    -1.8655    -1.4489 H       
  52 H52           -7.9951    -2.0150     2.4741 H       
  53 H53           -7.7411    -0.3582     1.8753 H       
  54 H54           -8.8296    -1.4630     1.0020 H       
@<TRIPOS>BOND
   1    1    2 1
   2    1    8 2
   3    1    9 1
   4    2    3 ar
   5    2    7 ar
   6    3    4 ar
   7    3   34 1
   8    4    5 ar
   9    4   33 1
  10    5    6 ar
  11    5   10 1
  12    6    7 ar
  13    6   35 1
  14    7   36 1
  15    9   37 1
  16   10   11 1
  17   11   12 ar
  18   11   16 ar
  19   12   13 ar
  20   12   38 1
  21   13   14 ar
  22   13   27 1
  23   14   15 ar
  24   14   39 1
  25   15   16 ar
  26   15   18 1
  27   16   40 1
  28   17   18 1
  29   17   21 1
  30   17   41 1
  31   18   19 2
  32   19   20 1
  33   19   42 1
  34   20   21 2
  35   20   43 1
  36   21   23 1
  37   22   23 1
  38   22   26 1
  39   23   24 2
  40   24   25 1
  41   25   26 2
  42   25   44 1
  43   26   45 1
  44   27   28 1
  45   28   29 1
  46   28   30 1
  47   28   46 1
  48   29   31 1
  49   29   47 1
  50   29   48 1
  51   30   49 1
  52   30   50 1
  53   30   51 1
  54   31   32 1
  55   32   52 1
  56   32   53 1
  57   32   54 1

#	End of record

