#	Name: ASD01320028
#	Creating user name:	WinNT
#	Creation time:	15. 06. 2019 19:15

#	Modifying user name:	WinNT
#	Modification time:	15. 06. 2019 19:15

#	Program:	/corina/corina34_cracker 3.40 0067  02.08.2006

@<TRIPOS>MOLECULE
ASD01320028
  30   31    0    0    0
SMALL
NO_CHARGES


@<TRIPOS>ATOM
   1 O1            -0.0317     1.5042     0.1071 O.3     
   2 O2             1.5057    -1.6281    -0.7181 O.3     
   3 O3            -2.4287    -0.0742     0.6403 O.3     
   4 O4             2.6532     4.0569     0.8439 O.2     
   5 N5             1.4833     3.1037    -0.7798 N.am    
   6 N6             2.2814     5.2878    -0.9468 N.2     
   7 N7             1.8872     6.5957    -2.8498 N.pl3   
   8 C8            -0.0788     0.0604     0.0923 C.3     
   9 C9             0.9963    -0.3149    -0.9588 C.3     
  10 C10            1.3544     1.8681    -0.0033 C.3     
  11 C11            2.0717     0.7368    -0.7144 C.2     
  12 C12           -1.4594    -0.4310    -0.3472 C.3     
  13 C13            3.3376     0.6768    -1.0458 C.2     
  14 C14            0.9185     3.1888    -2.0170 C.2     
  15 C15            2.1540     4.1507    -0.2652 C.2     
  16 C16            1.0397     4.3381    -2.7226 C.2     
  17 C17            1.7488     5.4166    -2.1550 C.2     
  18 H18            0.1816    -0.3436     1.0707 H       
  19 H19            0.5948    -0.2358    -1.9691 H       
  20 H20            1.7796     2.0101     0.9903 H       
  21 H21           -1.4398    -1.5148    -0.4620 H       
  22 H22           -1.7234     0.0304    -1.2988 H       
  23 H23            3.7393    -0.2255    -1.4827 H       
  24 H24            3.9797     1.5297    -0.8821 H       
  25 H25            2.1818    -1.9096    -1.3496 H       
  26 H26            0.3804     2.3486    -2.4303 H       
  27 H27           -3.3291    -0.3549     0.4271 H       
  28 H28            0.6003     4.4272    -3.7051 H       
  29 H29            2.3753     7.3360    -2.4566 H       
  30 H30            1.4967     6.6869    -3.7331 H       
@<TRIPOS>BOND
   1    1    8 1
   2    1   10 1
   3    2   25 1
   4    2    9 1
   5    3   12 1
   6    3   27 1
   7    4   15 2
   8    5   14 1
   9    5   15 am
  10    5   10 1
  11    6   15 1
  12    6   17 2
  13    7   17 1
  14    7   29 1
  15    7   30 1
  16    8    9 1
  17    8   12 1
  18    8   18 1
  19    9   11 1
  20    9   19 1
  21   10   11 1
  22   10   20 1
  23   11   13 2
  24   12   21 1
  25   12   22 1
  26   13   23 1
  27   13   24 1
  28   14   16 2
  29   14   26 1
  30   16   17 1
  31   16   28 1

#	End of record

