#	Name: ASD01440133
#	Creating user name:	WinNT
#	Creation time:	15. 06. 2019 19:21

#	Modifying user name:	WinNT
#	Modification time:	15. 06. 2019 19:21

#	Program:	/corina/corina34_cracker 3.40 0067  02.08.2006

@<TRIPOS>MOLECULE
ASD01440133
  40   42    0    0    0
SMALL
NO_CHARGES


@<TRIPOS>ATOM
   1 C1            -0.0754     1.3466     0.0759 C.ar    
   2 C2            -0.0102    -0.0251     0.1705 C.ar    
   3 C3             1.2242    -0.6616     0.2362 C.ar    
   4 C4             2.3977     0.0837     0.2066 C.ar    
   5 C5             2.3418     1.4558     0.1116 C.ar    
   6 C6             1.1023     2.1001     0.0453 C.ar    
   7 C7             1.0374     3.5701    -0.0565 C.2     
   8 O8            -0.0348     4.1220    -0.2124 O.2     
   9 C9             2.2751     4.3719     0.0309 C.ar    
  10 O10            1.2839    -2.0140     0.3299 O.3     
  11 C11            2.5843    -2.6031     0.3935 C.3     
  12 C12            2.4528    -4.1010     0.4938 C.2     
  13 N13            3.5565    -4.8710     0.5662 N.am    
  14 O14            1.3537    -4.6135     0.5092 O.2     
  15 C15            2.8351     4.9263    -1.1226 C.ar    
  16 C16            3.9905     5.6735    -1.0338 C.ar    
  17 C17            4.5963     5.8751     0.1946 C.ar    
  18 C18            4.0482     5.3297     1.3413 C.ar    
  19 C19            2.8881     4.5843     1.2687 C.ar    
  20 Br20           2.1357     3.8458     2.8385 Br      
  21 C21            3.4356    -6.2459     0.7627 C.ar    
  22 N22            2.2369    -6.8136     0.7692 N.ar    
  23 C23            2.1259    -8.1175     0.9553 C.ar    
  24 C24            3.2572    -8.8898     1.1434 C.ar    
  25 N25            4.4539    -8.3275     1.1380 N.ar    
  26 C26            4.5728    -7.0270     0.9467 C.ar    
  27 H27           -1.0346     1.8399     0.0208 H       
  28 H28           -0.9193    -0.6078     0.1942 H       
  29 H29            3.3544    -0.4147     0.2586 H       
  30 H30            3.2537     2.0339     0.0890 H       
  31 H31            3.1436    -2.3469    -0.5062 H       
  32 H32            3.1119    -2.2253     1.2693 H       
  33 H33            4.4350    -4.4686     0.4817 H       
  34 H34            2.3644     4.7696    -2.0819 H       
  35 H35            4.4242     6.1025    -1.9250 H       
  36 H36            5.5015     6.4607     0.2576 H       
  37 H37            4.5264     5.4907     2.2963 H       
  38 H38            1.1501    -8.5803     0.9607 H       
  39 H39            3.1632    -9.9548     1.2955 H       
  40 H40            5.5507    -6.5689     0.9379 H       
@<TRIPOS>BOND
   1    1    2 ar
   2    1    6 ar
   3    1   27 1
   4    2    3 ar
   5    2   28 1
   6    3    4 ar
   7    3   10 1
   8    4    5 ar
   9    4   29 1
  10    5    6 ar
  11    5   30 1
  12    6    7 1
  13    7    8 2
  14    7    9 1
  15    9   15 ar
  16    9   19 ar
  17   10   11 1
  18   11   12 1
  19   11   31 1
  20   11   32 1
  21   12   13 am
  22   12   14 2
  23   13   21 1
  24   13   33 1
  25   15   16 ar
  26   15   34 1
  27   16   17 ar
  28   16   35 1
  29   17   18 ar
  30   17   36 1
  31   18   19 ar
  32   18   37 1
  33   19   20 1
  34   21   22 ar
  35   21   26 ar
  36   22   23 ar
  37   23   24 ar
  38   23   38 1
  39   24   25 ar
  40   24   39 1
  41   25   26 ar
  42   26   40 1

#	End of record

