#	Name: ASD05380127
#	Creating user name:	WinNT
#	Creation time:	15. 06. 2019 20:59

#	Modifying user name:	WinNT
#	Modification time:	15. 06. 2019 20:59

#	Program:	/corina/corina34_cracker 3.40 0067  02.08.2006

@<TRIPOS>MOLECULE
ASD05380127
  62   66    0    0    0
SMALL
NO_CHARGES


@<TRIPOS>ATOM
   1 C1            -0.2696     1.7429    -0.3087 C.ar    
   2 C2            -0.0034     0.3796    -0.5676 C.ar    
   3 C3             0.6323     2.7209    -0.7223 C.ar    
   4 C4             1.7821     2.3479    -1.3838 C.ar    
   5 C5             2.0468     1.0092    -1.6399 C.ar    
   6 C6             1.1684     0.0271    -1.2396 C.ar    
   7 N7            -0.8957    -0.5552    -0.1551 N.2     
   8 C8            -1.9852    -0.2271     0.4702 C.2     
   9 N9            -2.3220     1.0586     0.7614 N.am    
  10 C10           -1.5090     2.0808     0.4061 C.2     
  11 C11           -3.5178     1.3264     1.4394 C.ar    
  12 C12           -4.6873     1.5521     0.7243 C.ar    
  13 C13           -5.8865     1.8575     2.7744 C.ar    
  14 C14           -2.9249    -1.3261     0.8945 C.3     
  15 N15           -2.9258    -2.3856    -0.1173 N.pl3   
  16 C16           -4.0242    -3.2169    -0.2475 C.ar    
  17 N17           -5.0854    -3.0670     0.5374 N.ar    
  18 O18           -1.7974     3.2357     0.6605 O.2     
  19 C19           -4.0434    -4.2344    -1.2170 C.ar    
  20 C20           -5.1847    -5.0486    -1.3053 C.ar    
  21 N21           -6.2006    -4.8320    -0.4760 N.ar    
  22 C22           -6.1432    -3.8592     0.4192 C.ar    
  23 N23           -3.1723    -4.6633    -2.1633 N.2     
  24 C24           -3.6940    -5.6641    -2.8103 C.2     
  25 N25           -4.9361    -5.9404    -2.3178 N.pl3   
  26 C26           -5.8665     1.8166     1.3930 C.ar    
  27 C27           -4.7228     1.6262     3.4940 C.ar    
  28 C28           -3.5372     1.3609     2.8264 C.ar    
  29 C29           -2.4642    -1.9017     2.2352 C.3     
  30 O30           -4.7438     1.6671     4.8522 O.3     
  31 C31            0.3521     4.1761    -0.4486 C.3     
  32 C32           -5.9984     1.9537     5.4734 C.3     
  33 C33           -5.8259     1.9572     6.9936 C.3     
  34 N34           -7.2242    -3.6616     1.2624 N.pl3   
  35 O35           -4.9624     3.0310     7.3725 O.3     
  36 C36           -4.7339     3.1241     8.7800 C.3     
  37 H37            2.4833     3.1035    -1.7062 H       
  38 H38            2.9527     0.7347    -2.1599 H       
  39 H39            1.3853    -1.0109    -1.4441 H       
  40 H40           -4.6742     1.5211    -0.3551 H       
  41 H41           -6.8100     2.0652     3.2945 H       
  42 H42           -3.9321    -0.9228     0.9992 H       
  43 H43           -2.1564    -2.5043    -0.6959 H       
  44 H44           -3.2149    -6.1972    -3.6181 H       
  45 H45           -5.5336    -6.6394    -2.6265 H       
  46 H46           -6.7746     1.9922     0.8354 H       
  47 H47           -2.6304     1.1810     3.3847 H       
  48 H48           -3.1252    -2.7179     2.5266 H       
  49 H49           -1.4451    -2.2762     2.1389 H       
  50 H50           -2.4941    -1.1210     2.9953 H       
  51 H51            0.6720     4.4236     0.5635 H       
  52 H52            0.8984     4.7919    -1.1631 H       
  53 H53           -0.7167     4.3654    -0.5484 H       
  54 H54           -6.3512     2.9315     5.1455 H       
  55 H55           -6.7256     1.1920     5.1920 H       
  56 H56           -6.7979     2.0875     7.4693 H       
  57 H57           -5.3896     1.0105     7.3119 H       
  58 H58           -7.1995    -2.9536     1.9250 H       
  59 H59           -8.0060    -4.2313     1.1903 H       
  60 H60           -5.6833     3.2786     9.2928 H       
  61 H61           -4.2750     2.2015     9.1354 H       
  62 H62           -4.0692     3.9632     8.9855 H       
@<TRIPOS>BOND
   1    1    2 ar
   2    1    3 ar
   3    1   10 1
   4    2    7 1
   5    2    6 ar
   6    3    4 ar
   7    3   31 1
   8    4    5 ar
   9    4   37 1
  10    5    6 ar
  11    5   38 1
  12    6   39 1
  13    7    8 2
  14    8    9 1
  15    8   14 1
  16    9   10 am
  17    9   11 1
  18   10   18 2
  19   11   12 ar
  20   11   28 ar
  21   12   26 ar
  22   12   40 1
  23   13   26 ar
  24   13   27 ar
  25   13   41 1
  26   14   15 1
  27   14   29 1
  28   14   42 1
  29   15   16 1
  30   15   43 1
  31   16   17 ar
  32   16   19 ar
  33   17   22 ar
  34   19   20 ar
  35   19   23 1
  36   20   21 ar
  37   20   25 1
  38   21   22 ar
  39   22   34 1
  40   23   24 2
  41   24   25 1
  42   24   44 1
  43   25   45 1
  44   26   46 1
  45   27   30 1
  46   27   28 ar
  47   28   47 1
  48   29   48 1
  49   29   49 1
  50   29   50 1
  51   30   32 1
  52   31   51 1
  53   31   52 1
  54   31   53 1
  55   32   33 1
  56   32   54 1
  57   32   55 1
  58   33   35 1
  59   33   56 1
  60   33   57 1
  61   34   58 1
  62   34   59 1
  63   35   36 1
  64   36   60 1
  65   36   61 1
  66   36   62 1

#	End of record

