#	Name: ASD02198032
#	Creating user name:	WinNT
#	Creation time:	15. 06. 2019 20:18

#	Modifying user name:	WinNT
#	Modification time:	15. 06. 2019 20:18

#	Program:	/corina/corina34_cracker 3.40 0067  02.08.2006

@<TRIPOS>MOLECULE
ASD02198032
  37   39    0    0    0
SMALL
NO_CHARGES


@<TRIPOS>ATOM
   1 N1            -0.0166     1.3731     0.0096 N.pl3   
   2 C2             0.0482    -0.0016    -0.0460 C.2     
   3 C3            -1.0410    -0.8401     0.0485 C.2     
   4 C4            -2.3809    -0.3637     0.2173 C.1     
   5 S5             1.4862    -0.8950    -0.2485 S.3     
   6 C6             0.6214    -2.4228    -0.1987 C.2     
   7 C7            -0.7205    -2.1947    -0.0355 C.2     
   8 C8             1.2182    -3.6952    -0.3149 C.2     
   9 O9             0.5281    -4.6985    -0.2680 O.2     
  10 N10            2.5519    -3.8017    -0.4778 N.am    
  11 N11           -1.6641    -3.2094     0.0411 N.pl3   
  12 C12            1.1594     2.1275     0.0361 C.ar    
  13 C13            1.2218     3.3434    -0.6331 C.ar    
  14 N14           -3.4438     0.0142     0.3512 N.1     
  15 C15            2.3856     4.0863    -0.6048 C.ar    
  16 C16            3.4880     3.6213     0.0885 C.ar    
  17 C17            3.4295     2.4112     0.7554 C.ar    
  18 C18            2.2669     1.6661     0.7364 C.ar    
  19 C19            3.1417    -5.0592    -0.5926 C.2     
  20 N20            4.4132    -5.3182    -0.7530 N.2     
  21 O21            4.6175    -6.5081    -0.8191 O.3     
  22 C22            3.4828    -7.2140    -0.7089 C.2     
  23 C23            2.4829    -6.3171    -0.5527 C.2     
  24 C24            3.3487    -8.7146    -0.7465 C.3     
  25 H25           -0.8785     1.8178     0.0263 H       
  26 H26            3.1012    -3.0031    -0.5151 H       
  27 H27           -1.3857    -4.1364    -0.0214 H       
  28 H28           -2.6022    -2.9915     0.1570 H       
  29 H29            0.3613     3.7069    -1.1751 H       
  30 H30            2.4349     5.0314    -1.1252 H       
  31 H31            4.3969     4.2043     0.1090 H       
  32 H32            4.2924     2.0508     1.2957 H       
  33 H33            2.2218     0.7213     1.2577 H       
  34 H34            1.4275    -6.5117    -0.4319 H       
  35 H35            4.3327    -9.1641    -0.8795 H       
  36 H36            2.9131    -9.0640     0.1897 H       
  37 H37            2.7032    -9.0010    -1.5768 H       
@<TRIPOS>BOND
   1    1    2 1
   2    1   12 1
   3    1   25 1
   4    2    3 2
   5    2    5 1
   6    3    4 1
   7    3    7 1
   8    4   14 3
   9    5    6 1
  10    6    7 2
  11    6    8 1
  12    7   11 1
  13    8    9 2
  14    8   10 am
  15   10   19 1
  16   10   26 1
  17   11   27 1
  18   11   28 1
  19   12   13 ar
  20   12   18 ar
  21   13   15 ar
  22   13   29 1
  23   15   16 ar
  24   15   30 1
  25   16   17 ar
  26   16   31 1
  27   17   18 ar
  28   17   32 1
  29   18   33 1
  30   19   20 2
  31   19   23 1
  32   20   21 1
  33   21   22 1
  34   22   23 2
  35   22   24 1
  36   23   34 1
  37   24   35 1
  38   24   36 1
  39   24   37 1

#	End of record

