#	Name: ASD03451017
#	Creating user name:	WinNT
#	Creation time:	15. 06. 2019 20:42

#	Modifying user name:	WinNT
#	Modification time:	15. 06. 2019 20:42

#	Program:	/corina/corina34_cracker 3.40 0067  02.08.2006

@<TRIPOS>MOLECULE
ASD03451017
  36   39    0    0    0
SMALL
NO_CHARGES


@<TRIPOS>ATOM
   1 C1            -0.0013     1.6162     0.0517 C.ar    
   2 C2            -0.0342     0.2343    -0.0133 C.ar    
   3 C3             1.1554    -0.4683    -0.0584 C.ar    
   4 C4             2.3644     0.2438    -0.0368 C.ar    
   5 C5             2.3223     1.6429     0.0235 C.ar    
   6 N6             1.1397     2.2676     0.0684 N.ar    
   7 C7             3.6169    -0.5247    -0.0735 C.2     
   8 N8             4.6668    -0.2338     0.6207 N.2     
   9 C9             4.6926     0.9287     1.5087 C.3     
  10 C10            4.5150     2.1733     0.6846 C.2     
  11 N11            3.4337     2.4200     0.0335 N.2     
  12 C12            3.6788    -1.7046    -0.9599 C.2     
  13 C13            3.5727     0.8230     2.5115 C.2     
  14 S14            2.6772     2.1821     3.1783 S.3     
  15 C15            1.6935     1.0955     4.1505 C.2     
  16 C16            2.0713    -0.1652     3.9330 C.2     
  17 C17            3.1050    -0.3159     3.0248 C.2     
  18 N18            4.7149    -2.4959    -1.1108 N.2     
  19 C19            4.3994    -3.4518    -1.9914 C.2     
  20 C20            3.1286    -3.2401    -2.3937 C.2     
  21 O21            2.6809    -2.1512    -1.7430 O.3     
  22 N22            5.5374     3.0736     0.6255 N.pl3   
  23 C23            5.3925     4.2954    -0.1698 C.3     
  24 H24           -0.9288     2.1686     0.0850 H       
  25 H25           -0.9786    -0.2894    -0.0284 H       
  26 H26            1.1544    -1.5471    -0.1089 H       
  27 H27            5.6492     0.9691     2.0297 H       
  28 H28            0.9045     1.4021     4.8212 H       
  29 H29            1.6035    -1.0049     4.4253 H       
  30 H30            3.5071    -1.2819     2.7573 H       
  31 H31            5.0464    -4.2508    -2.3220 H       
  32 H32            2.5733    -3.8362    -3.1026 H       
  33 H33            6.3606     2.9051     1.1100 H       
  34 H34            5.2135     4.0314    -1.2121 H       
  35 H35            4.5511     4.8768     0.2074 H       
  36 H36            6.3049     4.8871    -0.0964 H       
@<TRIPOS>BOND
   1    1    2 ar
   2    1    6 ar
   3    1   24 1
   4    2    3 ar
   5    2   25 1
   6    3    4 ar
   7    3   26 1
   8    4    5 ar
   9    4    7 1
  10    5    6 ar
  11    5   11 1
  12    7    8 2
  13    7   12 1
  14    8    9 1
  15    9   10 1
  16    9   13 1
  17    9   27 1
  18   10   11 2
  19   10   22 1
  20   12   18 2
  21   12   21 1
  22   13   14 1
  23   13   17 2
  24   14   15 1
  25   15   16 2
  26   15   28 1
  27   16   17 1
  28   16   29 1
  29   17   30 1
  30   18   19 1
  31   19   20 2
  32   19   31 1
  33   20   21 1
  34   20   32 1
  35   22   23 1
  36   22   33 1
  37   23   34 1
  38   23   35 1
  39   23   36 1

#	End of record

