#	Name: ASD03330736
#	Creating user name:	WinNT
#	Creation time:	15. 06. 2019 20:37

#	Modifying user name:	WinNT
#	Modification time:	15. 06. 2019 20:37

#	Program:	/corina/corina34_cracker 3.40 0067  02.08.2006

@<TRIPOS>MOLECULE
ASD03330736
  67   70    0    0    0
SMALL
NO_CHARGES


@<TRIPOS>ATOM
   1 C1             0.1066     1.5969     0.1966 C.2     
   2 N2             0.2156     0.2654    -0.0225 N.pl3   
   3 C3             1.3172     2.0310     0.6458 C.2     
   4 N4             2.1496     0.9677     0.6782 N.2     
   5 C5             1.4975    -0.0965     0.2727 C.2     
   6 C6             2.0584    -1.4607     0.1560 C.ar    
   7 C7             1.6579     3.4131     1.0273 C.2     
   8 O8             0.8173     4.2890     0.9537 O.2     
   9 C9             3.2396     5.0804     1.8369 C.3     
  10 N10            2.9009     3.7064     1.4577 N.am    
  11 C11            2.8368     5.3215     3.2931 C.3     
  12 C12            3.5873     4.3428     4.1986 C.3     
  13 C13            3.1905     6.7564     3.6892 C.3     
  14 C14            4.7238     5.2922     1.6846 C.2     
  15 N15            5.3126     6.3258     1.1326 N.2     
  16 C16           -0.8652    -0.6123    -0.4800 C.3     
  17 C17           -1.5766     0.0429    -1.6678 C.3     
  18 C18           -2.6879     0.9574    -1.1623 C.3     
  19 N19           -2.3176     1.5800     0.1105 N.3     
  20 C20           -1.1270     2.4300    -0.0373 C.3     
  21 C21            1.3300     5.1065     3.4478 C.3     
  22 C22            3.4067    -1.6395    -0.1545 C.ar    
  23 C23            1.2424    -2.5735     0.3616 C.ar    
  24 C24            1.7715    -3.8430     0.2512 C.ar    
  25 C25            3.1080    -4.0137    -0.0625 C.ar    
  26 C26            3.9237    -2.9142    -0.2619 C.ar    
  27 C27            6.6320     6.0809     1.2214 C.2     
  28 N28            6.7758     4.9322     1.8118 N.2     
  29 O29            5.6917     4.4652     2.0913 O.3     
  30 C30            7.7403     6.9742     0.7266 C.3     
  31 C31           -3.4420     2.3416     0.6707 C.3     
  32 C32           -4.0072     3.2778    -0.3992 C.3     
  33 C33           -4.5344     1.3742     1.1307 C.3     
  34 H34            2.7050     5.7776     1.1919 H       
  35 H35            3.5713     3.0078     1.5164 H       
  36 H36            4.6608     4.4961     4.0884 H       
  37 H37            3.3004     4.5146     5.2360 H       
  38 H38            3.3353     3.3206     3.9165 H       
  39 H39            2.6559     7.4537     3.0441 H       
  40 H40            2.9036     6.9282     4.7266 H       
  41 H41            4.2641     6.9096     3.5790 H       
  42 H42           -0.4496    -1.5716    -0.7883 H       
  43 H43           -1.5771    -0.7665     0.3309 H       
  44 H44           -0.8586     0.6283    -2.2424 H       
  45 H45           -2.0053    -0.7304    -2.3052 H       
  46 H46           -2.8739     1.7369    -1.9012 H       
  47 H47           -3.5972     0.3727    -1.0235 H       
  48 H48           -1.1641     3.2390     0.6922 H       
  49 H49           -1.0997     2.8468    -1.0441 H       
  50 H50            1.0780     4.0842     3.1657 H       
  51 H51            1.0430     5.2783     4.4853 H       
  52 H52            0.7953     5.8037     2.8028 H       
  53 H53            4.0444    -0.7819    -0.3107 H       
  54 H54            0.1990    -2.4415     0.6069 H       
  55 H55            1.1409    -4.7052     0.4105 H       
  56 H56            3.5175    -5.0094    -0.1474 H       
  57 H57            4.9662    -3.0540    -0.5070 H       
  58 H58            8.0338     7.6621     1.5195 H       
  59 H59            8.5969     6.3649     0.4386 H       
  60 H60            7.3916     7.5418    -0.1362 H       
  61 H61           -3.0952     2.9288     1.5210 H       
  62 H62           -4.3827     2.6887    -1.2359 H       
  63 H63           -4.8210     3.8656     0.0255 H       
  64 H64           -3.2206     3.9462    -0.7494 H       
  65 H65           -5.3687     1.9393     1.5464 H       
  66 H66           -4.8812     0.7869     0.2804 H       
  67 H67           -4.1317     0.7071     1.8929 H       
@<TRIPOS>BOND
   1    1    2 1
   2    1    3 2
   3    1   20 1
   4    2   16 1
   5    2    5 1
   6    3    4 1
   7    3    7 1
   8    4    5 2
   9    5    6 1
  10    6   23 ar
  11    6   22 ar
  12    7    8 2
  13    7   10 am
  14    9   10 1
  15    9   11 1
  16    9   14 1
  17    9   34 1
  18   10   35 1
  19   11   12 1
  20   11   13 1
  21   11   21 1
  22   12   36 1
  23   12   37 1
  24   12   38 1
  25   13   39 1
  26   13   40 1
  27   13   41 1
  28   14   15 2
  29   14   29 1
  30   15   27 1
  31   16   17 1
  32   16   42 1
  33   16   43 1
  34   17   18 1
  35   17   44 1
  36   17   45 1
  37   18   19 1
  38   18   46 1
  39   18   47 1
  40   19   20 1
  41   19   31 1
  42   20   48 1
  43   20   49 1
  44   21   50 1
  45   21   51 1
  46   21   52 1
  47   22   26 ar
  48   22   53 1
  49   23   24 ar
  50   23   54 1
  51   24   25 ar
  52   24   55 1
  53   25   26 ar
  54   25   56 1
  55   26   57 1
  56   27   28 2
  57   27   30 1
  58   28   29 1
  59   30   58 1
  60   30   59 1
  61   30   60 1
  62   31   32 1
  63   31   33 1
  64   31   61 1
  65   32   62 1
  66   32   63 1
  67   32   64 1
  68   33   65 1
  69   33   66 1
  70   33   67 1

#	End of record

