#	Name: ASD03090841
#	Creating user name:	WinNT
#	Creation time:	15. 06. 2019 20:29

#	Modifying user name:	WinNT
#	Modification time:	15. 06. 2019 20:29

#	Program:	/corina/corina34_cracker 3.40 0067  02.08.2006

@<TRIPOS>MOLECULE
ASD03090841
  41   43    0    0    0
SMALL
NO_CHARGES


@<TRIPOS>ATOM
   1 C1            -0.0174     1.5259     0.1012 C.3     
   2 C2             0.0037    -0.0039     0.1151 C.3     
   3 C3            -1.4314    -0.5334     0.1478 C.3     
   4 S4             1.6841     2.1538     0.0625 S.o2    
   5 O5             2.3454     1.8779     1.2896 O.2     
   6 O6             2.2977     1.8547    -1.1838 O.2     
   7 N7             1.5164     3.8012     0.0503 N.am    
   8 S8             4.2780     4.0605    -0.0061 S.3     
   9 C9             2.5786     4.5675     0.0226 C.2     
  10 N10            2.6211     5.9370     0.0094 N.pl3   
  11 C11            3.8605     6.5094    -0.0200 C.2     
  12 C12            4.9169     5.7139    -0.0335 C.2     
  13 O13           -1.9825     9.0128     0.0778 O.3     
  14 C14           -3.1884     8.4015    -0.3931 C.3     
  15 C15           -3.2993     7.0077     0.2396 C.3     
  16 O16           -2.1537     6.2445    -0.1542 O.3     
  17 C17           -0.9443     6.8613    -0.0562 C.ar    
  18 C18           -0.8581     8.2444     0.0572 C.ar    
  19 C19            0.2113     6.0963    -0.0718 C.ar    
  20 C20            1.4523     6.7108     0.0248 C.ar    
  21 C21            1.5352     8.0919     0.1362 C.ar    
  22 C22            0.3834     8.8549     0.1518 C.ar    
  23 F23           -3.3325     7.1236     1.6334 F       
  24 F24           -4.4640     6.3766    -0.2100 F       
  25 F25           -4.2893     9.1789    -0.0179 F       
  26 F26           -3.1453     8.2849    -1.7866 F       
  27 C27            6.3656     6.1278    -0.0656 C.3     
  28 H28           -0.5532     1.8739    -0.7819 H       
  29 H29           -0.5189     1.8906     0.9977 H       
  30 H30            0.5052    -0.3685    -0.7813 H       
  31 H31            0.5396    -0.3518     0.9982 H       
  32 H32           -1.4163    -1.6232     0.1577 H       
  33 H33           -1.9329    -0.1688     1.0443 H       
  34 H34           -1.9672    -0.1854    -0.7353 H       
  35 H35            3.9750     7.5832    -0.0323 H       
  36 H36            0.1463     5.0217    -0.1580 H       
  37 H37            2.5006     8.5704     0.2104 H       
  38 H38            0.4501     9.9294     0.2382 H       
  39 H39            6.9972     5.2395    -0.0704 H       
  40 H40            6.5562     6.7140    -0.9646 H       
  41 H41            6.5912     6.7293     0.8150 H       
@<TRIPOS>BOND
   1    1    2 1
   2    1    4 1
   3    1   28 1
   4    1   29 1
   5    2    3 1
   6    2   30 1
   7    2   31 1
   8    3   32 1
   9    3   33 1
  10    3   34 1
  11    4    5 2
  12    4    6 2
  13    4    7 am
  14    7    9 2
  15    8    9 1
  16    8   12 1
  17    9   10 1
  18   10   11 1
  19   10   20 1
  20   11   12 2
  21   11   35 1
  22   12   27 1
  23   13   14 1
  24   13   18 1
  25   14   15 1
  26   14   25 1
  27   14   26 1
  28   15   16 1
  29   15   23 1
  30   15   24 1
  31   16   17 1
  32   17   18 ar
  33   17   19 ar
  34   18   22 ar
  35   19   20 ar
  36   19   36 1
  37   20   21 ar
  38   21   22 ar
  39   21   37 1
  40   22   38 1
  41   27   39 1
  42   27   40 1
  43   27   41 1

#	End of record

