#	Name: ASD04882439
#	Creating user name:	WinNT
#	Creation time:	15. 06. 2019 20:54

#	Modifying user name:	WinNT
#	Modification time:	15. 06. 2019 20:54

#	Program:	/corina/corina34_cracker 3.40 0067  02.08.2006

@<TRIPOS>MOLECULE
ASD04882439
  83   88    0    0    0
SMALL
NO_CHARGES


@<TRIPOS>ATOM
   1 C1            -0.0215     1.4012    -0.0092 C.ar    
   2 C2            -0.0115     0.0036    -0.0053 C.ar    
   3 C3            -1.2093    -0.7019    -0.0160 C.ar    
   4 C4            -2.4096    -0.0269    -0.0304 C.ar    
   5 C5            -2.4267     1.3707    -0.0344 C.ar    
   6 C6            -1.2239     2.0825    -0.0184 C.ar    
   7 N7             1.1998    -0.6830     0.0089 N.3     
   8 C8             1.3076    -1.5363     1.2005 C.3     
   9 C9             1.3717    -1.4731    -1.2183 C.3     
  10 C10            2.7456    -2.1473    -1.1994 C.3     
  11 N11            2.8534    -3.0005    -0.0078 N.3     
  12 C12            2.6815    -2.2105     1.2194 C.3     
  13 C13           -3.7126     2.0937    -0.0504 C.2     
  14 O14           -3.7266     3.3095    -0.0539 O.2     
  15 N15           -4.8720     1.4064    -0.0612 N.am    
  16 N16            1.1866     2.1110     0.0021 N.am    
  17 C17            1.2296     3.3600     0.5068 C.2     
  18 C18            2.5162     4.0732     0.6000 C.2     
  19 N19            3.7322     3.6011     0.2128 N.2     
  20 C20            4.0684    -3.6893     0.0064 C.ar    
  21 O21            0.2069     3.8985     0.8853 O.2     
  22 C22            2.7106     5.3303     1.0841 C.2     
  23 O23            4.0246     5.5883     0.9868 O.3     
  24 C24            4.6240     4.5155     0.4515 C.2     
  25 C25            6.0993     4.3896     0.1707 C.3     
  26 C26            6.7235     5.3997    -0.7942 C.3     
  27 C27            7.0165     5.4917     0.7046 C.3     
  28 C28            5.2666    -2.9869     0.0167 C.ar    
  29 C29            6.4664    -3.6711     0.0312 C.ar    
  30 C30            6.4755    -5.0537     0.0351 C.ar    
  31 C31            5.2842    -5.7563     0.0249 C.ar    
  32 C32            4.0811    -5.0785     0.0162 C.ar    
  33 C33           -6.1489     2.1243    -0.0770 C.3     
  34 C34           -7.3003     1.1168    -0.0868 C.3     
  35 C35           -8.6339     1.8666    -0.1034 C.3     
  36 N36           -9.7364     0.9019    -0.1128 N.am    
  37 C37          -11.0121     1.3365    -0.1278 C.2     
  38 O38          -11.2479     2.5290    -0.1337 O.2     
  39 C39            2.7836    -5.8449     0.0056 C.3     
  40 C40          -12.1247     0.3630    -0.1373 C.ar    
  41 C41          -13.4469     0.8098    -0.1529 C.ar    
  42 C42          -11.8574    -1.0070    -0.1365 C.ar    
  43 C43          -12.9002    -1.9101    -0.1458 C.ar    
  44 C44          -14.2087    -1.4606    -0.1564 C.ar    
  45 C45          -14.4805    -0.1040    -0.1622 C.ar    
  46 H46           -1.1986    -1.7819    -0.0132 H       
  47 H47           -3.3385    -0.5778    -0.0391 H       
  48 H48           -1.2340     3.1624    -0.0215 H       
  49 H49            1.1895    -0.9265     2.0963 H       
  50 H50            0.5288    -2.2984     1.1738 H       
  51 H51            0.5937    -2.2345    -1.2725 H       
  52 H52            1.3003    -0.8173    -2.0860 H       
  53 H53            2.8637    -2.7571    -2.0952 H       
  54 H54            3.5244    -1.3851    -1.1727 H       
  55 H55            3.4595    -1.4490     1.2736 H       
  56 H56            2.7529    -2.8663     2.0871 H       
  57 H57           -4.8609     0.4365    -0.0584 H       
  58 H58            1.9919     1.7035    -0.3534 H       
  59 H59            1.9522     5.9940     1.4725 H       
  60 H60            6.4900     3.3722     0.1565 H       
  61 H61            7.5251     5.0468    -1.4430 H       
  62 H62            6.0670     6.1552    -1.2260 H       
  63 H63            6.5529     6.3078     1.2589 H       
  64 H64            8.0109     5.1994     1.0419 H       
  65 H65            5.2602    -1.9069     0.0129 H       
  66 H66            7.3984    -3.1256     0.0391 H       
  67 H67            7.4150    -5.5863     0.0457 H       
  68 H68            5.2948    -6.8363     0.0276 H       
  69 H69           -6.2235     2.7527     0.8105 H       
  70 H70           -6.2041     2.7479    -0.9694 H       
  71 H71           -7.2257     0.4884    -0.9743 H       
  72 H72           -7.2451     0.4933     0.8055 H       
  73 H73           -8.7085     2.4950     0.7841 H       
  74 H74           -8.6892     2.4901    -0.9957 H       
  75 H75           -9.5483    -0.0497    -0.1081 H       
  76 H76            2.4628    -6.0304     1.0307 H       
  77 H77            2.0221    -5.2629    -0.5137 H       
  78 H78            2.9273    -6.7956    -0.5079 H       
  79 H79          -13.6604     1.8684    -0.1574 H       
  80 H80          -10.8364    -1.3591    -0.1289 H       
  81 H81          -12.6947    -2.9704    -0.1452 H       
  82 H82          -15.0214    -2.1718    -0.1644 H       
  83 H83          -15.5041     0.2404    -0.1704 H       
@<TRIPOS>BOND
   1    1    2 ar
   2    1   16 1
   3    1    6 ar
   4    2    3 ar
   5    2    7 1
   6    3    4 ar
   7    3   46 1
   8    4    5 ar
   9    4   47 1
  10    5    6 ar
  11    5   13 1
  12    6   48 1
  13    7    8 1
  14    7    9 1
  15    8   12 1
  16    8   49 1
  17    8   50 1
  18    9   10 1
  19    9   51 1
  20    9   52 1
  21   10   11 1
  22   10   53 1
  23   10   54 1
  24   11   12 1
  25   11   20 1
  26   12   55 1
  27   12   56 1
  28   13   14 2
  29   13   15 am
  30   15   33 1
  31   15   57 1
  32   16   17 am
  33   16   58 1
  34   17   18 1
  35   17   21 2
  36   18   22 2
  37   18   19 1
  38   19   24 2
  39   20   28 ar
  40   20   32 ar
  41   22   23 1
  42   22   59 1
  43   23   24 1
  44   24   25 1
  45   25   26 1
  46   25   27 1
  47   25   60 1
  48   26   27 1
  49   26   61 1
  50   26   62 1
  51   27   63 1
  52   27   64 1
  53   28   29 ar
  54   28   65 1
  55   29   30 ar
  56   29   66 1
  57   30   31 ar
  58   30   67 1
  59   31   32 ar
  60   31   68 1
  61   32   39 1
  62   33   34 1
  63   33   69 1
  64   33   70 1
  65   34   35 1
  66   34   71 1
  67   34   72 1
  68   35   36 1
  69   35   73 1
  70   35   74 1
  71   36   37 am
  72   36   75 1
  73   37   38 2
  74   37   40 1
  75   39   76 1
  76   39   77 1
  77   39   78 1
  78   40   41 ar
  79   40   42 ar
  80   41   45 ar
  81   41   79 1
  82   42   43 ar
  83   42   80 1
  84   43   44 ar
  85   43   81 1
  86   44   45 ar
  87   44   82 1
  88   45   83 1

#	End of record

