#	Name: ASD01209130
#	Creating user name:	WinNT
#	Creation time:	15. 06. 2019 19:11

#	Modifying user name:	WinNT
#	Modification time:	15. 06. 2019 19:11

#	Program:	/corina/corina34_cracker 3.40 0067  02.08.2006

@<TRIPOS>MOLECULE
ASD01209130
  78   80    0    0    0
SMALL
NO_CHARGES


@<TRIPOS>ATOM
   1 C1            -0.0910     2.7210     1.6767 C.ar    
   2 C2             0.0496     1.3594     1.9010 C.ar    
   3 C3            -1.0727     0.5492     2.0011 C.ar    
   4 C4            -2.3385     1.0977     1.8769 C.ar    
   5 C5            -2.4843     2.4670     1.6513 C.ar    
   6 C6            -1.3534     3.2788     1.5575 C.ar    
   7 O7             1.0114     3.5100     1.5795 O.3     
   8 C8             0.8000     4.8801     1.2327 C.3     
   9 O9            -0.9296    -0.7842     2.2209 O.3     
  10 C10           -1.2644    -1.6358     1.2163 C.ar    
  11 C11           -1.2272    -3.0069     1.4262 C.ar    
  12 C12           -3.8332     3.0568     1.5176 C.2     
  13 N13           -4.9245     2.2717     1.6136 N.am    
  14 O14           -3.9582     4.2498     1.3211 O.2     
  15 C15           -6.1905     2.8082     1.3896 C.ar    
  16 P16          -10.3735     4.3535    -1.0662 P.3     
  17 O17           -9.2955     5.0603    -1.7933 O.2     
  18 C18           -1.5685    -3.8705     0.4035 C.ar    
  19 C19           -1.9465    -3.3697    -0.8286 C.ar    
  20 C20           -1.9844    -2.0039    -1.0404 C.ar    
  21 C21           -1.6496    -1.1358    -0.0194 C.ar    
  22 S22           -2.3801    -4.4741    -2.1313 S.o2    
  23 O23           -2.1041    -3.7421    -3.3177 O.2     
  24 O24           -1.6743    -5.6693    -1.8270 O.2     
  25 C25           -4.1665    -4.7230    -1.9380 C.3     
  26 C26          -10.0137     4.3707     0.7209 C.3     
  27 N27           -6.3332     4.1099     1.1792 N.ar    
  28 C28           -7.5361     4.6155     0.9665 C.ar    
  29 C29           -8.6445     3.7898     0.9632 C.ar    
  30 N30           -8.5066     2.4912     1.1726 N.ar    
  31 C31           -7.3087     1.9784     1.3804 C.ar    
  32 C32            2.0629     5.4404     0.5753 C.3     
  33 O33            3.1299     5.4513     1.5258 O.3     
  34 C34            0.4835     5.6830     2.4961 C.3     
  35 O35          -11.7779     5.0923    -1.3380 O.3     
  36 C36          -11.9187     6.5142    -1.3560 C.3     
  37 C37          -12.3111     6.9701    -2.7628 C.3     
  38 C38          -13.0051     6.9318    -0.3630 C.3     
  39 O39          -10.4596     2.8307    -1.5817 O.3     
  40 C40          -10.6600     2.4834    -2.9533 C.3     
  41 C41           -9.4212     1.7578    -3.4820 C.3     
  42 C42          -11.8787     1.5664    -3.0744 C.3     
  43 H43            1.0351     0.9285     1.9976 H       
  44 H44           -3.2114     0.4664     1.9543 H       
  45 H45           -1.4618     4.3391     1.3833 H       
  46 H46           -0.0354     4.9540     0.5365 H       
  47 H47           -0.9313    -3.3986     2.3882 H       
  48 H48           -4.8284     1.3331     1.8386 H       
  49 H49           -1.5397    -4.9378     0.5664 H       
  50 H50           -2.2796    -1.6153    -2.0039 H       
  51 H51           -1.6793    -0.0690    -0.1853 H       
  52 H52           -4.6788    -3.7651    -2.0290 H       
  53 H53           -4.5247    -5.4016    -2.7121 H       
  54 H54           -4.3695    -5.1517    -0.9566 H       
  55 H55          -10.0432     5.3967     1.0875 H       
  56 H56          -10.7595     3.7751     1.2474 H       
  57 H57           -7.6529     5.6755     0.7954 H       
  58 H58           -7.1966     0.9179     1.5513 H       
  59 H59            2.3388     4.8148    -0.2735 H       
  60 H60            1.8727     6.4570     0.2309 H       
  61 H61            3.9638     5.7951     1.1771 H       
  62 H62            1.3189     5.6091     3.1923 H       
  63 H63            0.3223     6.7280     2.2316 H       
  64 H64           -0.4161     5.2838     2.9644 H       
  65 H65          -10.9724     6.9766    -1.0750 H       
  66 H66          -13.2981     6.5788    -3.0095 H       
  67 H67          -12.3326     8.0593    -2.7990 H       
  68 H68          -11.5821     6.5970    -3.4822 H       
  69 H69          -13.9514     6.4695    -0.6440 H       
  70 H70          -12.7256     6.6070     0.6392 H       
  71 H71          -13.1125     8.0164    -0.3767 H       
  72 H72          -10.8273     3.3889    -3.5366 H       
  73 H73           -9.5740     1.4929    -4.5282 H       
  74 H74           -8.5529     2.4111    -3.3957 H       
  75 H75           -9.2539     0.8523    -2.8986 H       
  76 H76          -12.7431     2.0486    -2.6180 H       
  77 H77          -12.0845     1.3726    -4.1271 H       
  78 H78          -11.6768     0.6245    -2.5643 H       
@<TRIPOS>BOND
   1    1    2 ar
   2    1    7 1
   3    1    6 ar
   4    2    3 ar
   5    2   43 1
   6    3    4 ar
   7    3    9 1
   8    4    5 ar
   9    4   44 1
  10    5    6 ar
  11    5   12 1
  12    6   45 1
  13    7    8 1
  14    8   32 1
  15    8   34 1
  16    8   46 1
  17    9   10 1
  18   10   11 ar
  19   10   21 ar
  20   11   18 ar
  21   11   47 1
  22   12   13 am
  23   12   14 2
  24   13   15 1
  25   13   48 1
  26   15   27 ar
  27   15   31 ar
  28   16   17 2
  29   16   35 1
  30   16   39 1
  31   16   26 1
  32   18   19 ar
  33   18   49 1
  34   19   20 ar
  35   19   22 1
  36   20   21 ar
  37   20   50 1
  38   21   51 1
  39   22   23 2
  40   22   24 2
  41   22   25 1
  42   25   52 1
  43   25   53 1
  44   25   54 1
  45   26   29 1
  46   26   55 1
  47   26   56 1
  48   27   28 ar
  49   28   29 ar
  50   28   57 1
  51   29   30 ar
  52   30   31 ar
  53   31   58 1
  54   32   33 1
  55   32   59 1
  56   32   60 1
  57   33   61 1
  58   34   62 1
  59   34   63 1
  60   34   64 1
  61   35   36 1
  62   36   37 1
  63   36   38 1
  64   36   65 1
  65   37   66 1
  66   37   67 1
  67   37   68 1
  68   38   69 1
  69   38   70 1
  70   38   71 1
  71   39   40 1
  72   40   41 1
  73   40   42 1
  74   40   72 1
  75   41   73 1
  76   41   74 1
  77   41   75 1
  78   42   76 1
  79   42   77 1
  80   42   78 1

#	End of record

