#	Name: ASD00170321
#	Creating user name:	WinNT
#	Creation time:	15. 06. 2019 18:31

#	Modifying user name:	WinNT
#	Modification time:	15. 06. 2019 18:31

#	Program:	/corina/corina34_cracker 3.40 0067  02.08.2006

@<TRIPOS>MOLECULE
ASD00170321
  32   33    0    0    0
SMALL
NO_CHARGES


@<TRIPOS>ATOM
   1 N1            -0.0179     1.4657     0.0101 N.3     
   2 C2             0.0021    -0.0041     0.0020 C.3     
   3 C3            -1.3800    -0.5322     0.3997 C.3     
   4 C4            -2.4223     0.1807    -0.4478 C.2     
   5 C5            -2.1560     1.3051    -1.1232 C.2     
   6 C6            -0.8023     1.9877    -1.1188 C.3     
   7 C7            -3.7933    -0.2600    -0.6218 C.2     
   8 C8            -4.5254     0.5625    -1.4378 C.2     
   9 S9            -3.5736     1.8602    -1.9947 S.3     
  10 N10           -5.8532     0.3658    -1.7637 N.pl3   
  11 C11           -4.3392    -1.4609     0.0095 C.2     
  12 C12            1.3462     2.0108     0.0000 C.3     
  13 O13           -4.2697    -2.6485    -0.6269 O.3     
  14 O14           -4.8560    -1.3891     1.1086 O.2     
  15 C15           -4.8229    -3.7798     0.0485 C.3     
  16 C16           -4.6523    -5.0268    -0.8215 C.3     
  17 H17            0.2533    -0.3589    -0.9975 H       
  18 H18            0.7466    -0.3617     0.7132 H       
  19 H19           -1.4297    -1.6058     0.2179 H       
  20 H20           -1.5619    -0.3285     1.4549 H       
  21 H21           -0.9353     3.0636    -1.0056 H       
  22 H22           -0.2831     1.7769    -2.0537 H       
  23 H23           -6.3320    -0.3987    -1.4072 H       
  24 H24           -6.3068     0.9922    -2.3492 H       
  25 H25            1.8658     1.6732    -0.8968 H       
  26 H26            1.3024     3.0999     0.0063 H       
  27 H27            1.8827     1.6637     0.8831 H       
  28 H28           -4.3061    -3.9252     0.9971 H       
  29 H29           -5.8832    -3.6090     0.2349 H       
  30 H30           -3.5920    -5.1975    -1.0078 H       
  31 H31           -5.0743    -5.8897    -0.3063 H       
  32 H32           -5.1691    -4.8814    -1.7701 H       
@<TRIPOS>BOND
   1    1    2 1
   2    1   12 1
   3    1    6 1
   4    2    3 1
   5    2   17 1
   6    2   18 1
   7    3    4 1
   8    3   19 1
   9    3   20 1
  10    4    5 2
  11    4    7 1
  12    5    6 1
  13    5    9 1
  14    6   21 1
  15    6   22 1
  16    7    8 2
  17    7   11 1
  18    8    9 1
  19    8   10 1
  20   10   23 1
  21   10   24 1
  22   11   13 1
  23   11   14 2
  24   12   25 1
  25   12   26 1
  26   12   27 1
  27   13   15 1
  28   15   16 1
  29   15   28 1
  30   15   29 1
  31   16   30 1
  32   16   31 1
  33   16   32 1

#	End of record

