#	Name: ASD01121009
#	Creating user name:	WinNT
#	Creation time:	15. 06. 2019 18:59

#	Modifying user name:	WinNT
#	Modification time:	15. 06. 2019 18:59

#	Program:	/corina/corina34_cracker 3.40 0067  02.08.2006

@<TRIPOS>MOLECULE
ASD01121009
  53   54    0    0    0
SMALL
NO_CHARGES


@<TRIPOS>ATOM
   1 C1             0.0646     0.9639    -0.0347 C.ar    
   2 C2             1.0316     1.9679    -0.0139 C.ar    
   3 C3             0.4683    -0.3619    -0.0623 C.ar    
   4 S4             0.5671     3.6672     0.0221 S.3     
   5 C5             2.3753     1.5950    -0.0219 C.ar    
   6 N6             1.7551    -0.6789    -0.0686 N.ar    
   7 C7             2.7020     0.2486    -0.0499 C.ar    
   8 N8             4.0424    -0.1350    -0.0585 N.am    
   9 C9             4.3705    -1.4395     0.0254 C.2     
  10 O10            3.5047    -2.2737     0.2061 O.2     
  11 N11            5.6584    -1.8193    -0.0911 N.am    
  12 S12            6.0616    -3.4221     0.0120 S.o2    
  13 C13            5.3255    -4.2349    -1.3672 C.2     
  14 O14            7.4673    -3.4956    -0.1823 O.2     
  15 O15            5.4096    -3.9262     1.1696 O.2     
  16 S16            3.7185    -4.9496    -1.3837 S.3     
  17 C17            5.8995    -4.3971    -2.5603 C.2     
  18 C18            3.9258    -5.4503    -3.0570 C.2     
  19 C19            5.1276    -5.0690    -3.4924 C.2     
  20 C20            2.9005    -6.1921    -3.8752 C.3     
  21 C21            5.6092    -5.3500    -4.8925 C.3     
  22 C22            3.1071    -7.6988    -3.7073 C.3     
  23 O23            2.1348    -8.4023    -4.4831 O.3     
  24 C24            2.2404    -9.8247    -4.3962 C.3     
  25 H25            4.7387     0.5370    -0.1249 H       
  26 H26            6.3491    -1.1537    -0.2353 H       
  27 N27           -0.4905    -1.3737    -0.0832 N.am    
  28 C28           -0.1103    -2.6597    -0.2179 C.2     
  29 N29           -1.0399    -3.6279    -0.3404 N.am    
  30 O30            1.0711    -2.9464    -0.2290 O.2     
  31 C31           -0.6266    -5.0258    -0.4868 C.3     
  32 C32           -1.2454     3.5949     0.0213 C.3     
  33 H33           -0.9856     1.2157    -0.0248 H       
  34 H34            3.1514     2.3459    -0.0067 H       
  35 H35            6.8912    -4.0317    -2.7823 H       
  36 H36            1.9004    -5.9225    -3.5357 H       
  37 H37            3.0118    -5.9250    -4.9261 H       
  38 H38            5.3274    -4.5245    -5.5461 H       
  39 H39            6.6939    -5.4567    -4.8890 H       
  40 H40            5.1545    -6.2720    -5.2549 H       
  41 H41            4.1071    -7.9685    -4.0468 H       
  42 H42            2.9958    -7.9659    -2.6564 H       
  43 H43            2.1111   -10.1360    -3.3596 H       
  44 H44            1.4680   -10.2847    -5.0127 H       
  45 H45            3.2224   -10.1385    -4.7500 H       
  46 H46           -1.4313    -1.1522    -0.0008 H       
  47 H47           -1.9825    -3.3992    -0.3315 H       
  48 H48           -0.0465    -5.3265     0.3857 H       
  49 H49           -1.5099    -5.6588    -0.5716 H       
  50 H50           -0.0160    -5.1321    -1.3834 H       
  51 H51           -1.5884     3.0858    -0.8795 H       
  52 H52           -1.5876     3.0483     0.9001 H       
  53 H53           -1.6495     4.6070     0.0428 H       
@<TRIPOS>BOND
   1    1    2 ar
   2    1    3 ar
   3    1   33 1
   4    2    4 1
   5    2    5 ar
   6    3    6 ar
   7    3   27 1
   8    4   32 1
   9    5    7 ar
  10    5   34 1
  11    6    7 ar
  12    7    8 1
  13    8   25 1
  14    8    9 am
  15    9   10 2
  16    9   11 am
  17   11   26 1
  18   11   12 am
  19   12   13 1
  20   12   15 2
  21   12   14 2
  22   13   16 1
  23   13   17 2
  24   16   18 1
  25   17   19 1
  26   17   35 1
  27   18   19 2
  28   18   20 1
  29   19   21 1
  30   20   22 1
  31   20   36 1
  32   20   37 1
  33   21   38 1
  34   21   39 1
  35   21   40 1
  36   22   23 1
  37   22   41 1
  38   22   42 1
  39   23   24 1
  40   24   43 1
  41   24   44 1
  42   24   45 1
  43   27   28 am
  44   27   46 1
  45   28   29 am
  46   28   30 2
  47   29   31 1
  48   29   47 1
  49   31   48 1
  50   31   49 1
  51   31   50 1
  52   32   51 1
  53   32   52 1
  54   32   53 1

#	End of record

