#	Name: ASD05430180
#	Creating user name:	WinNT
#	Creation time:	15. 06. 2019 20:59

#	Modifying user name:	WinNT
#	Modification time:	15. 06. 2019 20:59

#	Program:	/corina/corina34_cracker 3.40 0067  02.08.2006

@<TRIPOS>MOLECULE
ASD05430180
  72   79    0    0    0
SMALL
NO_CHARGES


@<TRIPOS>ATOM
   1 C1            -0.0171     1.4094     0.0098 C.ar    
   2 C2             0.0021    -0.0041     0.0020 C.ar    
   3 C3             1.1892    -0.7041    -0.0218 C.ar    
   4 C4             2.3940    -0.0276    -0.0385 C.ar    
   5 C5             2.3911     1.3521    -0.0268 C.ar    
   6 C6             1.1995     2.0622     0.0017 C.ar    
   7 C7             4.2404     0.8652     2.2004 C.3     
   8 C8             4.6711     1.8484     1.1101 C.3     
   9 C9             3.7003     2.0981    -0.0447 C.3     
  10 C10            5.1749     0.9428     3.4016 C.3     
  11 C11            6.5933     1.4053     3.0727 C.3     
  12 N12            6.5245     2.7408     2.4779 N.pl3   
  13 C13            5.5019     3.0146     1.5876 C.2     
  14 N14            5.2695     4.2137     1.2014 N.2     
  15 C15            8.5577     3.8176     1.7027 C.ar    
  16 C16            9.8855     4.0070     2.0375 C.ar    
  17 N17           -1.2118    -0.7086     0.0194 N.pl3   
  18 C18            4.9745     1.2836    -0.2776 C.3     
  19 C19           -2.2478    -0.5108     0.8748 C.2     
  20 C20           -1.5777    -1.7222    -0.8277 C.2     
  21 C21           -2.8139    -2.1104    -0.4605 C.2     
  22 N22           -3.1981    -1.3555     0.5793 N.2     
  23 C23           -3.6268    -3.2012    -1.1089 C.3     
  24 C24            7.5069     3.7801     2.7823 C.3     
  25 C25            6.7793     5.1281     2.8420 C.3     
  26 O26            6.0147     5.3186     1.6558 O.3     
  27 C27           10.8500     4.0420     1.0483 C.ar    
  28 C28           10.4859     3.8872    -0.2785 C.ar    
  29 C29            9.1557     3.6975    -0.6127 C.ar    
  30 C30            8.1923     3.6681     0.3778 C.ar    
  31 F31           11.4278     3.9216    -1.2464 F       
  32 C32            4.5623     1.6753     4.6064 C.3     
  33 O33            5.1170     0.6023     5.3945 O.3     
  34 C34            5.1398    -0.3168     4.2833 C.3     
  35 C35            1.0453     3.5878     0.0388 C.3     
  36 Si36          -0.7903     3.6595     0.4867 Si      
  37 O37           -1.1937     2.1265     0.0133 O.3     
  38 C38           -1.0450     3.9053     2.3157 C.3     
  39 C39           -1.6934     4.9497    -0.5085 C.3     
  40 H40            1.1777    -1.7841    -0.0271 H       
  41 H41            3.3265    -0.5721    -0.0602 H       
  42 H42            3.2262     1.1053     2.5193 H       
  43 H43            4.2583    -0.1473     1.7973 H       
  44 H44            3.6624     3.1044    -0.4618 H       
  45 H45            7.1871     1.4418     3.9860 H       
  46 H46            7.0488     0.7127     2.3649 H       
  47 H47           10.1692     4.1281     3.0726 H       
  48 H48            5.7751     1.7539    -0.8485 H       
  49 H49            4.8657     0.2082    -0.4181 H       
  50 H50           -2.2798     0.2223     1.6672 H       
  51 H51           -0.9879    -2.1309    -1.6349 H       
  52 H52           -3.4151    -4.1519    -0.6195 H       
  53 H53           -4.6877    -2.9707    -1.0112 H       
  54 H54           -3.3657    -3.2701    -2.1649 H       
  55 H55            7.9752     3.5725     3.7444 H       
  56 H56            6.1160     5.1435     3.7068 H       
  57 H57            7.5110     5.9307     2.9340 H       
  58 H58           11.8872     4.1903     1.3101 H       
  59 H59            8.8705     3.5766    -1.6473 H       
  60 H60            7.1547     3.5202     0.1174 H       
  61 H61            5.0119     2.6479     4.8067 H       
  62 H62            3.4726     1.7004     4.6001 H       
  63 H63            4.2276    -0.9041     4.1777 H       
  64 H64            6.0462    -0.9197     4.2278 H       
  65 H65            1.6663     4.0361     0.8143 H       
  66 H66            1.2392     4.0355    -0.9360 H       
  67 H67           -0.5800     4.8415     2.6247 H       
  68 H68           -2.1127     3.9411     2.5323 H       
  69 H69           -0.5914     3.0772     2.8603 H       
  70 H70           -1.6085     4.7154    -1.5696 H       
  71 H71           -2.7450     4.9595    -0.2217 H       
  72 H72           -1.2553     5.9291    -0.3165 H       
@<TRIPOS>BOND
   1    1    2 ar
   2    1    6 ar
   3    1   37 1
   4    2    3 ar
   5    2   17 1
   6    3    4 ar
   7    3   40 1
   8    4    5 ar
   9    4   41 1
  10    5    6 ar
  11    5    9 1
  12    6   35 1
  13    7    8 1
  14    7   10 1
  15    7   42 1
  16    7   43 1
  17    8    9 1
  18    8   18 1
  19    8   13 1
  20    9   18 1
  21    9   44 1
  22   10   11 1
  23   10   32 1
  24   10   34 1
  25   11   12 1
  26   11   45 1
  27   11   46 1
  28   12   13 1
  29   12   24 1
  30   13   14 2
  31   14   26 1
  32   15   16 ar
  33   15   24 1
  34   15   30 ar
  35   16   27 ar
  36   16   47 1
  37   17   19 1
  38   17   20 1
  39   18   48 1
  40   18   49 1
  41   19   22 2
  42   19   50 1
  43   20   21 2
  44   20   51 1
  45   21   22 1
  46   21   23 1
  47   23   52 1
  48   23   53 1
  49   23   54 1
  50   24   25 1
  51   24   55 1
  52   25   26 1
  53   25   56 1
  54   25   57 1
  55   27   28 ar
  56   27   58 1
  57   28   29 ar
  58   28   31 1
  59   29   30 ar
  60   29   59 1
  61   30   60 1
  62   32   33 1
  63   32   61 1
  64   32   62 1
  65   33   34 1
  66   34   63 1
  67   34   64 1
  68   35   36 1
  69   35   65 1
  70   35   66 1
  71   36   37 1
  72   36   38 1
  73   36   39 1
  74   38   67 1
  75   38   68 1
  76   38   69 1
  77   39   70 1
  78   39   71 1
  79   39   72 1

#	End of record

