#	Name: ASD07300201
#	Creating user name:	WinNT
#	Creation time:	15. 06. 2019 21:09

#	Modifying user name:	WinNT
#	Modification time:	15. 06. 2019 21:09

#	Program:	/corina/corina34_cracker 3.40 0067  02.08.2006

@<TRIPOS>MOLECULE
ASD07300201
  46   50    0    0    0
SMALL
NO_CHARGES


@<TRIPOS>ATOM
   1 C1            -0.0219     1.3839     0.0533 C.ar    
   2 C2            -0.0038    -0.0066     0.0655 C.ar    
   3 C3             1.1935    -0.6864     0.0371 C.ar    
   4 C4             2.3700     0.0532    -0.0038 C.ar    
   5 C5             2.2911     1.4319    -0.0141 C.ar    
   6 N6             1.1285     2.0503     0.0139 N.ar    
   7 N7            -1.3349     1.8453     0.0928 N.am    
   8 C8            -1.4455    -0.4531     0.1114 C.3     
   9 C9            -2.2286     0.8428     0.1318 C.2     
  10 O10           -3.4356     0.9547     0.1713 O.2     
  11 C11           -1.6851     3.2030     0.0919 C.ar    
  12 C12           -3.0223     3.5751     0.1330 C.ar    
  13 C13           -3.3671     4.9118     0.1317 C.ar    
  14 C14           -2.3768     5.8843     0.0898 C.ar    
  15 C15           -1.0395     5.5121     0.0492 C.ar    
  16 C16           -0.6946     4.1754     0.0557 C.ar    
  17 C17           -3.9753     7.7201     0.0154 C.2     
  18 N18           -4.0453     9.0576     0.0313 N.am    
  19 C19           -2.6864     9.6114     0.1267 C.3     
  20 C20           -1.7815     8.3646     0.1656 C.3     
  21 N21           -2.7267     7.2407     0.0880 N.am    
  22 C22           -5.2243     9.8087    -0.0328 C.ar    
  23 C23           -5.1787    11.1891     0.1123 C.ar    
  24 C24           -6.3441    11.9275     0.0486 C.ar    
  25 C25           -7.5554    11.2938    -0.1594 C.ar    
  26 C26           -7.6042     9.9194    -0.3042 C.ar    
  27 C27           -6.4416     9.1759    -0.2473 C.ar    
  28 O28           -4.9568     7.0056    -0.0536 O.2     
  29 H29            1.2180    -1.7661     0.0466 H       
  30 H30            3.3295    -0.4420    -0.0267 H       
  31 H31            3.2001     2.0142    -0.0458 H       
  32 H32           -1.6918    -1.0414    -0.7726 H       
  33 H33           -1.6399    -1.0250     1.0187 H       
  34 H34           -3.7925     2.8187     0.1656 H       
  35 H35           -4.4072     5.2012     0.1630 H       
  36 H36           -0.2692     6.2684     0.0166 H       
  37 H37            0.3455     3.8860     0.0286 H       
  38 H38           -2.4596    10.2216    -0.7476 H       
  39 H39           -2.5741    10.1944     1.0408 H       
  40 H40           -1.1054     8.3557    -0.6893 H       
  41 H41           -1.2199     8.3285     1.0991 H       
  42 H42           -4.2330    11.6846     0.2751 H       
  43 H43           -6.3093    13.0010     0.1617 H       
  44 H44           -8.4654    11.8734    -0.2084 H       
  45 H45           -8.5518     9.4274    -0.4665 H       
  46 H46           -6.4798     8.1030    -0.3653 H       
@<TRIPOS>BOND
   1    1    2 ar
   2    1    6 ar
   3    1    7 1
   4    2    3 ar
   5    2    8 1
   6    3    4 ar
   7    3   29 1
   8    4    5 ar
   9    4   30 1
  10    5    6 ar
  11    5   31 1
  12    7    9 am
  13    7   11 1
  14    8    9 1
  15    8   32 1
  16    8   33 1
  17    9   10 2
  18   11   12 ar
  19   11   16 ar
  20   12   13 ar
  21   12   34 1
  22   13   14 ar
  23   13   35 1
  24   14   15 ar
  25   14   21 1
  26   15   16 ar
  27   15   36 1
  28   16   37 1
  29   17   18 am
  30   17   21 am
  31   17   28 2
  32   18   19 1
  33   18   22 1
  34   19   20 1
  35   19   38 1
  36   19   39 1
  37   20   21 1
  38   20   40 1
  39   20   41 1
  40   22   23 ar
  41   22   27 ar
  42   23   24 ar
  43   23   42 1
  44   24   25 ar
  45   24   43 1
  46   25   26 ar
  47   25   44 1
  48   26   27 ar
  49   26   45 1
  50   27   46 1

#	End of record

