#	Name: ASD01940388
#	Creating user name:	WinNT
#	Creation time:	15. 06. 2019 20:12

#	Modifying user name:	WinNT
#	Modification time:	15. 06. 2019 20:12

#	Program:	/corina/corina34_cracker 3.40 0067  02.08.2006

@<TRIPOS>MOLECULE
ASD01940388
  51   54    0    0    0
SMALL
NO_CHARGES


@<TRIPOS>ATOM
   1 C1            -0.1227     1.2333    -0.0879 C.ar    
   2 C2            -0.2918    -0.0954    -0.4716 C.ar    
   3 C3             0.7867    -0.9238    -0.5890 C.ar    
   4 C4             1.1415     1.7333     0.1800 C.ar    
   5 C5             2.2479     0.9057     0.0657 C.ar    
   6 C6             2.0706    -0.4357    -0.3223 C.ar    
   7 C7             3.2460    -1.3014    -0.4394 C.2     
   8 C8             4.4654    -0.7686    -0.1665 C.2     
   9 C9             4.5697     0.5844     0.2171 C.2     
  10 O10            3.4885     1.3728     0.3226 O.3     
  11 O11            5.6690     1.0494     0.4592 O.2     
  12 C12            3.1065    -2.7444    -0.8510 C.3     
  13 C13            5.7034    -1.6212    -0.2731 C.3     
  14 C14            6.3261    -1.4350    -1.6327 C.ar    
  15 O15           -1.2048     2.0463     0.0188 O.3     
  16 C16           -2.0009     1.9059     1.1060 C.ar    
  17 N17           -3.1167     2.6129     1.1845 N.ar    
  18 C18           -3.9170     2.4998     2.2317 C.ar    
  19 C19           -3.5741     1.6279     3.2532 C.ar    
  20 C20           -2.3983     0.9033     3.1378 C.ar    
  21 N21           -1.6465     1.0611     2.0608 N.ar    
  22 C22            7.1961    -0.3857    -1.8752 C.ar    
  23 C23            7.7520    -0.2473    -3.1455 C.ar    
  24 N24            7.4534    -1.1053    -4.1078 N.ar    
  25 C25            6.6272    -2.1145    -3.9042 C.ar    
  26 C26            6.0448    -2.3155    -2.6695 C.ar    
  27 N27            8.6281     0.8022    -3.4044 N.am    
  28 S28            9.2927     0.9733    -4.9115 S.o2    
  29 N29            8.0539     1.3065    -5.9587 N.am    
  30 C30            7.2980     2.5544    -5.8258 C.3     
  31 O31           10.1020     2.1404    -4.8630 O.2     
  32 O32            9.7938    -0.3053    -5.2766 O.2     
  33 F33            7.5015     0.4918    -0.8944 F       
  34 H34           -1.2828    -0.4724    -0.6772 H       
  35 H35            0.6494    -1.9529    -0.8864 H       
  36 H36            1.2646     2.7645     0.4765 H       
  37 H37            2.0547    -2.9733    -1.0224 H       
  38 H38            3.6700    -2.9168    -1.7680 H       
  39 H39            3.4939    -3.3869    -0.0602 H       
  40 H40            6.4160    -1.3248     0.4966 H       
  41 H41            5.4358    -2.6690    -0.1364 H       
  42 H42           -4.8262     3.0798     2.2902 H       
  43 H43           -4.2088     1.5160     4.1198 H       
  44 H44           -2.1016     0.2152     3.9157 H       
  45 H45            6.4070    -2.7943    -4.7140 H       
  46 H46            5.3734    -3.1466    -2.5120 H       
  47 H47            8.8495     1.4337    -2.7022 H       
  48 H48            7.8286     0.6754    -6.6600 H       
  49 H49            6.8291     2.5923    -4.8425 H       
  50 H50            7.9737     3.4023    -5.9390 H       
  51 H51            6.5290     2.5973    -6.5970 H       
@<TRIPOS>BOND
   1    1    2 ar
   2    1    4 ar
   3    1   15 1
   4    2    3 ar
   5    2   34 1
   6    3    6 ar
   7    3   35 1
   8    4    5 ar
   9    4   36 1
  10    5    6 ar
  11    5   10 1
  12    6    7 1
  13    7    8 2
  14    7   12 1
  15    8    9 1
  16    8   13 1
  17    9   10 1
  18    9   11 2
  19   12   37 1
  20   12   38 1
  21   12   39 1
  22   13   14 1
  23   13   40 1
  24   13   41 1
  25   14   22 ar
  26   14   26 ar
  27   15   16 1
  28   16   17 ar
  29   16   21 ar
  30   17   18 ar
  31   18   19 ar
  32   18   42 1
  33   19   20 ar
  34   19   43 1
  35   20   21 ar
  36   20   44 1
  37   22   23 ar
  38   22   33 1
  39   23   24 ar
  40   23   27 1
  41   24   25 ar
  42   25   26 ar
  43   25   45 1
  44   26   46 1
  45   27   28 am
  46   27   47 1
  47   28   29 am
  48   28   31 2
  49   28   32 2
  50   29   30 1
  51   29   48 1
  52   30   49 1
  53   30   50 1
  54   30   51 1

#	End of record

