#	Name: ASD01811409
#	Creating user name:	WinNT
#	Creation time:	15. 06. 2019 19:26

#	Modifying user name:	WinNT
#	Modification time:	15. 06. 2019 19:26

#	Program:	/corina/corina34_cracker 3.40 0067  02.08.2006

@<TRIPOS>MOLECULE
ASD01811409
  21   21    0    0    0
SMALL
NO_CHARGES


@<TRIPOS>ATOM
   1 C1            -0.0180     1.4731     0.0101 C.2     
   2 C2             0.0021    -0.0041     0.0020 C.ar    
   3 C3             1.2189    -0.6888    -0.0133 C.ar    
   4 C4             1.2302    -2.0689    -0.0208 C.ar    
   5 C5             0.0384    -2.7738    -0.0133 C.ar    
   6 C6            -1.1702    -2.1010     0.0014 C.ar    
   7 C7            -1.1955    -0.7215     0.0154 C.ar    
   8 O8             1.0256     2.0947     0.0035 O.2     
   9 O9            -1.1936     2.1307     0.0193 O.3     
  10 C10            0.0580    -4.2806    -0.0216 C.3     
  11 Br11           2.8765    -2.9990    -0.0422 Br      
  12 C12           -1.1373     3.5816     0.0269 C.3     
  13 H13            2.1489    -0.1398    -0.0195 H       
  14 H14           -2.0961    -2.6568     0.0069 H       
  15 H15           -2.1399    -0.1978     0.0317 H       
  16 H16            0.0725    -4.6495     1.0040 H       
  17 H17           -0.8320    -4.6528    -0.5290 H       
  18 H18            0.9477    -4.6295    -0.5459 H       
  19 H19           -0.6055     3.9199     0.9162 H       
  20 H20           -0.6140     3.9296    -0.8637 H       
  21 H21           -2.1501     3.9845     0.0339 H       
@<TRIPOS>BOND
   1    1    2 1
   2    1    8 2
   3    1    9 1
   4    2    3 ar
   5    2    7 ar
   6    3    4 ar
   7    3   13 1
   8    4    5 ar
   9    4   11 1
  10    5    6 ar
  11    5   10 1
  12    6    7 ar
  13    6   14 1
  14    7   15 1
  15    9   12 1
  16   10   16 1
  17   10   17 1
  18   10   18 1
  19   12   19 1
  20   12   20 1
  21   12   21 1

#	End of record

