#	Name: ASD04660005
#	Creating user name:	WinNT
#	Creation time:	15. 06. 2019 20:52

#	Modifying user name:	WinNT
#	Modification time:	15. 06. 2019 20:52

#	Program:	/corina/corina34_cracker 3.40 0067  02.08.2006

@<TRIPOS>MOLECULE
ASD04660005
  18   18    0    0    0
SMALL
NO_CHARGES


@<TRIPOS>ATOM
   1 C1            -0.0166     1.3755     0.0096 C.ar    
   2 C2             0.0021    -0.0041     0.0020 C.ar    
   3 C3             1.2077    -0.6824    -0.0127 C.ar    
   4 C4             2.4015     0.0166    -0.0203 C.ar    
   5 C5             2.3966     1.3964    -0.0129 C.ar    
   6 C6             1.1839     2.0865     0.0020 C.ar    
   7 C7             1.1713     3.5646     0.0100 C.2     
   8 C8             0.0176     4.2175     0.0241 C.2     
   9 N9             1.2204    -2.1624    -0.0198 N.pl3   
  10 O10            0.1709    -2.7805    -0.0127 O.2     
  11 O11            2.2804    -2.7622    -0.0327 O.2     
  12 H12           -0.9585     1.9039     0.0169 H       
  13 H13           -0.9265    -0.5556     0.0079 H       
  14 H14            3.3394    -0.5188    -0.0318 H       
  15 H15            3.3292     1.9409    -0.0181 H       
  16 H16            2.1019     4.1126     0.0044 H       
  17 H17           -0.9130     3.6694     0.0297 H       
  18 H18            0.0083     5.2974     0.0300 H       
@<TRIPOS>BOND
   1    1    2 ar
   2    1    6 ar
   3    1   12 1
   4    2    3 ar
   5    2   13 1
   6    3    4 ar
   7    3    9 1
   8    4    5 ar
   9    4   14 1
  10    5    6 ar
  11    5   15 1
  12    6    7 1
  13    7    8 2
  14    7   16 1
  15    8   17 1
  16    8   18 1
  17    9   10 2
  18    9   11 2

#	End of record

