#	Name: ASD01140011
#	Creating user name:	WinNT
#	Creation time:	15. 06. 2019 18:59

#	Modifying user name:	WinNT
#	Modification time:	15. 06. 2019 18:59

#	Program:	/corina/corina34_cracker 3.40 0067  02.08.2006

@<TRIPOS>MOLECULE
ASD01140011
   9    8    0    0    0
SMALL
NO_CHARGES


@<TRIPOS>ATOM
   1 C1            -0.0187     1.5258     0.0104 C.3     
   2 C2             0.0021    -0.0041     0.0020 C.3     
   3 O3             1.3220     2.0204     0.0003 O.3     
   4 H4            -0.5459     1.8868    -0.8726 H       
   5 H5            -0.5289     1.8773     0.9072 H       
   6 H6             0.5123    -0.3556    -0.8948 H       
   7 H7             0.5293    -0.3651     0.8851 H       
   8 H8            -1.0205    -0.3814     0.0098 H       
   9 H9             1.3852     2.9853     0.0049 H       
@<TRIPOS>BOND
   1    1    2 1
   2    1    3 1
   3    1    4 1
   4    1    5 1
   5    2    6 1
   6    2    7 1
   7    2    8 1
   8    3    9 1

#	End of record

