#	Name: ASD01810500
#	Creating user name:	WinNT
#	Creation time:	15. 06. 2019 19:24

#	Modifying user name:	WinNT
#	Modification time:	15. 06. 2019 19:24

#	Program:	/corina/corina34_cracker 3.40 0067  02.08.2006

@<TRIPOS>MOLECULE
ASD01810500
  34   36    0    0    0
SMALL
NO_CHARGES


@<TRIPOS>ATOM
   1 C1            -0.0167     1.3832     0.0096 C.ar    
   2 C2             0.0021    -0.0041     0.0020 C.ar    
   3 C3             1.1959    -0.6919    -0.0126 C.ar    
   4 C4             2.4007     0.0059    -0.0203 C.ar    
   5 C5             2.3790     1.4111    -0.0130 C.ar    
   6 C6             1.1632     2.0941     0.0022 C.ar    
   7 N7             3.6013    -0.6705    -0.0344 N.pl3   
   8 C8             4.7860    -0.0462    -0.0414 C.2     
   9 C9             4.8924     1.3300    -0.0355 C.2     
  10 C10            3.6622     2.1381    -0.0214 C.2     
  11 C11            6.2118     1.9776    -0.0431 C.2     
  12 O12            6.3025     3.3226    -0.0371 O.3     
  13 C13            3.5807    -2.1353    -0.0416 C.3     
  14 C14            3.5610    -2.6305    -1.4647 C.ar    
  15 C15            4.7489    -2.8743    -2.1283 C.ar    
  16 C16            4.7308    -3.3285    -3.4337 C.ar    
  17 C17            3.5247    -3.5392    -4.0756 C.ar    
  18 C18            2.3368    -3.2962    -3.4118 C.ar    
  19 C19            2.3549    -2.8462    -2.1048 C.ar    
  20 O20            3.7023     3.3559    -0.0160 O.2     
  21 O21            7.2212     1.3003    -0.0547 O.2     
  22 *22            3.5043    -4.0508    -5.5492 Du      
  23 H23           -0.9606     1.9080     0.0170 H       
  24 H24           -0.9293    -0.5508     0.0079 H       
  25 H25            1.1970    -1.7719    -0.0177 H       
  26 H26            1.1468     3.1740     0.0074 H       
  27 H27            5.6885    -0.6393    -0.0517 H       
  28 H28            7.1917     3.7026    -0.0426 H       
  29 H29            4.4701    -2.5136     0.4625 H       
  30 H30            2.6904    -2.4887     0.4785 H       
  31 H31            5.6912    -2.7097    -1.6268 H       
  32 H32            5.6589    -3.5184    -3.9524 H       
  33 H33            1.3945    -3.4605    -3.9133 H       
  34 H34            1.4268    -2.6563    -1.5862 H       
@<TRIPOS>BOND
   1    1    2 ar
   2    1    6 ar
   3    1   23 1
   4    2    3 ar
   5    2   24 1
   6    3    4 ar
   7    3   25 1
   8    4    5 ar
   9    4    7 1
  10    5    6 ar
  11    5   10 1
  12    6   26 1
  13    7    8 1
  14    7   13 1
  15    8    9 2
  16    8   27 1
  17    9   10 1
  18    9   11 1
  19   10   20 2
  20   11   12 1
  21   11   21 2
  22   12   28 1
  23   13   14 1
  24   13   29 1
  25   13   30 1
  26   14   15 ar
  27   14   19 ar
  28   15   16 ar
  29   15   31 1
  30   16   17 ar
  31   16   32 1
  32   17   18 ar
  33   17   22 1
  34   18   19 ar
  35   18   33 1
  36   19   34 1

#	End of record

