#	Name: ASD02500379
#	Creating user name:	WinNT
#	Creation time:	15. 06. 2019 20:22

#	Modifying user name:	WinNT
#	Modification time:	15. 06. 2019 20:22

#	Program:	/corina/corina34_cracker 3.40 0067  02.08.2006

@<TRIPOS>MOLECULE
ASD02500379
  67   71    0    0    0
SMALL
NO_CHARGES


@<TRIPOS>ATOM
   1 C1             0.8784     0.3967    -0.0517 C.2     
   2 C2             0.9291    -1.0690     0.1252 C.ar    
   3 C3             2.1536    -1.7093     0.3258 C.ar    
   4 C4             2.1936    -3.0782     0.4908 C.ar    
   5 C5             1.0240    -3.8168     0.4574 C.ar    
   6 C6            -0.1928    -3.1888     0.2586 C.ar    
   7 C7            -0.2479    -1.8198     0.0984 C.ar    
   8 O8             1.9035     1.0478    -0.0229 O.2     
   9 O9            -0.3041     1.0107    -0.2505 O.3     
  10 C10            1.0757    -5.3120     0.6379 C.3     
  11 N11            0.9522    -5.6375     2.0651 N.3     
  12 C12            0.7605    -7.0807     2.2613 C.3     
  13 C13            0.8178    -7.4013     3.7586 C.3     
  14 N14           -0.1521    -6.5445     4.4574 N.am    
  15 C15           -0.1104    -5.0962     4.2040 C.3     
  16 C16           -0.1312    -4.8663     2.6891 C.3     
  17 C17           -1.0548    -7.0723     5.3077 C.2     
  18 C18           -1.9324    -6.1859     6.0953 C.ar    
  19 C19           -3.2652    -6.5415     6.3223 C.ar    
  20 C20           -4.0814    -5.7126     7.0573 C.ar    
  21 C21           -3.5812    -4.5208     7.5746 C.ar    
  22 C22           -2.2545    -4.1636     7.3499 C.ar    
  23 C23           -1.4316    -4.9913     6.6210 C.ar    
  24 O24           -1.1457    -8.2791     5.4257 O.2     
  25 S25           -3.8719    -3.0473     9.7478 S.o2    
  26 O26           -2.6183    -2.4384     9.4707 O.2     
  27 O27           -4.9706    -2.3431    10.3102 O.2     
  28 N28           -4.4084    -3.6853     8.3169 N.am    
  29 N29           -5.8507    -5.0009    10.8845 N.ar    
  30 C30           -6.8332    -5.7661    11.2935 C.ar    
  31 C31           -6.6158    -6.8439    12.1494 C.ar    
  32 C32           -5.3518    -7.1254    12.5834 C.ar    
  33 C33           -4.2990    -6.3018    12.1417 C.ar    
  34 C34           -2.9739    -6.5291    12.5458 C.ar    
  35 C35           -1.9835    -5.7095    12.0968 C.ar    
  36 C36           -2.2673    -4.6479    11.2404 C.ar    
  37 C37           -3.5406    -4.3982    10.8295 C.ar    
  38 C38           -4.5904    -5.2217    11.2717 C.ar    
  39 C39           -0.2783     2.4529    -0.4165 C.3     
  40 H40            3.0673    -1.1341     0.3513 H       
  41 H41            3.1401    -3.5747     0.6460 H       
  42 H42           -1.1019    -3.7713     0.2330 H       
  43 H43           -1.1988    -1.3303    -0.0518 H       
  44 H44            0.2554    -5.7730     0.0879 H       
  45 H45            2.0251    -5.6911     0.2597 H       
  46 H46           -0.2101    -7.3761     1.8629 H       
  47 H47            1.5485    -7.6262     1.7420 H       
  48 H48            0.5629    -8.4489     3.9188 H       
  49 H49            1.8206    -7.2036     4.1373 H       
  50 H50           -0.9790    -4.6199     4.6586 H       
  51 H51            0.8032    -4.6769     4.6255 H       
  52 H52            0.0101    -3.8059     2.4802 H       
  53 H53           -1.0894    -5.1926     2.2848 H       
  54 H54           -3.6539    -7.4657     5.9209 H       
  55 H55           -5.1112    -5.9866     7.2327 H       
  56 H56           -1.8695    -3.2381     7.7520 H       
  57 H57           -0.4011    -4.7161     6.4513 H       
  58 H58           -5.2998    -3.4762     7.9966 H       
  59 H59           -7.8381    -5.5554    10.9585 H       
  60 H60           -7.4461    -7.4558    12.4697 H       
  61 H61           -5.1652    -7.9566    13.2472 H       
  62 H62           -2.7414    -7.3490    13.2092 H       
  63 H63           -0.9643    -5.8851    12.4082 H       
  64 H64           -1.4644    -4.0116    10.8987 H       
  65 H65           -1.2936     2.8194    -0.5684 H       
  66 H66            0.1445     2.9139     0.4761 H       
  67 H67            0.3333     2.7082    -1.2818 H       
@<TRIPOS>BOND
   1    1    2 1
   2    1    8 2
   3    1    9 1
   4    2    3 ar
   5    2    7 ar
   6    3    4 ar
   7    3   40 1
   8    4    5 ar
   9    4   41 1
  10    5    6 ar
  11    5   10 1
  12    6    7 ar
  13    6   42 1
  14    7   43 1
  15    9   39 1
  16   10   11 1
  17   10   44 1
  18   10   45 1
  19   11   12 1
  20   11   16 1
  21   12   13 1
  22   12   46 1
  23   12   47 1
  24   13   14 1
  25   13   48 1
  26   13   49 1
  27   14   15 1
  28   14   17 am
  29   15   16 1
  30   15   50 1
  31   15   51 1
  32   16   52 1
  33   16   53 1
  34   17   18 1
  35   17   24 2
  36   18   19 ar
  37   18   23 ar
  38   19   20 ar
  39   19   54 1
  40   20   21 ar
  41   20   55 1
  42   21   22 ar
  43   21   28 1
  44   22   23 ar
  45   22   56 1
  46   23   57 1
  47   25   26 2
  48   25   27 2
  49   25   28 am
  50   25   37 1
  51   28   58 1
  52   29   30 ar
  53   29   38 ar
  54   30   31 ar
  55   30   59 1
  56   31   32 ar
  57   31   60 1
  58   32   33 ar
  59   32   61 1
  60   33   34 ar
  61   33   38 ar
  62   34   35 ar
  63   34   62 1
  64   35   36 ar
  65   35   63 1
  66   36   37 ar
  67   36   64 1
  68   37   38 ar
  69   39   65 1
  70   39   66 1
  71   39   67 1

#	End of record

