#	Name: ASD01810031
#	Creating user name:	WinNT
#	Creation time:	15. 06. 2019 19:23

#	Modifying user name:	WinNT
#	Modification time:	15. 06. 2019 19:23

#	Program:	/corina/corina34_cracker 3.40 0067  02.08.2006

@<TRIPOS>MOLECULE
ASD01810031
  43   47    0    0    0
SMALL
NO_CHARGES


@<TRIPOS>ATOM
   1 N1            -0.0163     1.3481     0.0095 N.am    
   2 C2             0.0021    -0.0041     0.0020 C.2     
   3 C3            -1.2675    -0.7372    -0.3572 C.3     
   4 C4            -2.5157    -0.1240     0.2729 C.3     
   5 C5            -2.5122     1.3729     0.1211 C.ar    
   6 C6            -1.2662     1.9812     0.0316 C.ar    
   7 C7            -3.6304     2.1613     0.0683 C.ar    
   8 C8            -3.5029     3.5479    -0.0487 C.ar    
   9 C9            -2.2643     4.1491    -0.0995 C.ar    
  10 C10           -1.1120     3.3586    -0.0517 C.ar    
  11 C11            0.9555     2.3030     0.0053 C.ar    
  12 C12            0.3360     3.5829    -0.0418 C.ar    
  13 C13            1.0855     4.7519    -0.0675 C.ar    
  14 C14            2.4792     4.6152    -0.0390 C.ar    
  15 C15            3.0845     3.3573     0.0133 C.ar    
  16 C16            2.3469     2.1911     0.0390 C.ar    
  17 C17           -4.7723     4.3597    -0.1229 C.3     
  18 C18           -4.4772     5.8265     0.1879 C.3     
  19 N19           -3.3533     6.2651    -0.6547 N.3     
  20 C20           -2.1068     5.6432    -0.1983 C.3     
  21 O21            1.0137    -0.6128     0.2777 O.2     
  22 C22            3.3248     5.8238    -0.0651 C.2     
  23 O23            4.6669     5.7077    -0.0382 O.3     
  24 O24            2.8110     6.9238    -0.1110 O.2     
  25 C25            5.4358     6.9391    -0.0664 C.3     
  26 H26           -1.3821    -0.7282    -1.4412 H       
  27 H27           -1.1801    -1.7718    -0.0255 H       
  28 H28           -3.4009    -0.5317    -0.2152 H       
  29 H29           -2.5432    -0.3767     1.3328 H       
  30 H30           -4.6110     1.7114     0.1167 H       
  31 H31            0.6147     5.7231    -0.1081 H       
  32 H32            4.1625     3.2956     0.0359 H       
  33 H33            2.8290     1.2256     0.0800 H       
  34 H34           -5.1940     4.2803    -1.1249 H       
  35 H35           -5.4905     3.9744     0.6009 H       
  36 H36           -5.3571     6.4314    -0.0311 H       
  37 H37           -4.2095     5.9314     1.2393 H       
  38 H38           -3.5270     6.0564    -1.6265 H       
  39 H39           -1.8439     6.0423     0.7813 H       
  40 H40           -1.3101     5.8744    -0.9054 H       
  41 H41            5.2077     7.4890    -0.9794 H       
  42 H42            5.1772     7.5489     0.7993 H       
  43 H43            6.4998     6.7038    -0.0402 H       
@<TRIPOS>BOND
   1    1    2 am
   2    1   11 1
   3    1    6 1
   4    2    3 1
   5    2   21 2
   6    3    4 1
   7    3   26 1
   8    3   27 1
   9    4    5 1
  10    4   28 1
  11    4   29 1
  12    5    6 ar
  13    5    7 ar
  14    6   10 ar
  15    7    8 ar
  16    7   30 1
  17    8    9 ar
  18    8   17 1
  19    9   10 ar
  20    9   20 1
  21   10   12 1
  22   11   12 ar
  23   11   16 ar
  24   12   13 ar
  25   13   14 ar
  26   13   31 1
  27   14   15 ar
  28   14   22 1
  29   15   16 ar
  30   15   32 1
  31   16   33 1
  32   17   18 1
  33   17   34 1
  34   17   35 1
  35   18   19 1
  36   18   36 1
  37   18   37 1
  38   19   20 1
  39   19   38 1
  40   20   39 1
  41   20   40 1
  42   22   23 1
  43   22   24 2
  44   23   25 1
  45   25   41 1
  46   25   42 1
  47   25   43 1

#	End of record

