#	Name: ASD01883594
#	Creating user name:	WinNT
#	Creation time:	15. 06. 2019 19:46

#	Modifying user name:	WinNT
#	Modification time:	15. 06. 2019 19:46

#	Program:	/corina/corina34_cracker 3.40 0067  02.08.2006

@<TRIPOS>MOLECULE
ASD01883594
  45   48    0    0    0
SMALL
NO_CHARGES


@<TRIPOS>ATOM
   1 C1            -0.0115     1.3383     0.1024 C.ar    
   2 C2            -0.0579    -0.0555     0.0832 C.ar    
   3 C3             1.1133    -0.7831     0.1271 C.ar    
   4 C4             2.3345    -0.1314     0.1902 C.ar    
   5 C5             2.3859     1.2531     0.2096 C.ar    
   6 C6             1.2202     1.9896     0.1660 C.ar    
   7 C7            -1.2660     2.1244     0.0493 C.2     
   8 C8            -2.0710     2.0783    -1.0797 C.2     
   9 C9            -3.2539     2.8337    -1.1020 C.2     
  10 C10           -3.5988     3.6193     0.0159 C.2     
  11 N11           -2.8059     3.6532     1.1053 N.am    
  12 C12           -1.6525     2.9210     1.1504 C.2     
  13 C13           -3.1706     4.4248     2.1698 C.2     
  14 C14           -2.3956     4.4829     3.2828 C.2     
  15 C15           -1.2030     3.7436     3.3494 C.2     
  16 C16           -0.8401     2.9610     2.2920 C.2     
  17 O17           -2.7739     5.2577     4.3341 O.3     
  18 C18           -3.1101     4.6381     5.4939 C.ar    
  19 O19           -4.6262     4.2762    -0.0027 O.2     
  20 C20           -4.1254     2.8058    -2.2818 C.2     
  21 O21           -5.1974     3.3817    -2.2603 O.2     
  22 N22           -3.7390     2.1424    -3.3896 N.am    
  23 C23           -3.3974     5.3751     6.6401 C.ar    
  24 C24           -3.7356     4.7078     7.7995 C.ar    
  25 N25           -3.7880     3.3897     7.8303 N.ar    
  26 C26           -3.5227     2.6567     6.7653 C.ar    
  27 C27           -3.1824     3.2487     5.5667 C.ar    
  28 F28            3.4788    -0.8482     0.2335 F       
  29 C29           -4.0486     5.4942     9.0464 C.3     
  30 F30           -5.4175     5.7804     9.0859 F       
  31 F31           -3.6968     4.7423    10.1725 F       
  32 F32           -3.3223     6.6898     9.0383 F       
  33 H33           -1.0093    -0.5644     0.0344 H       
  34 H34            1.0784    -1.8624     0.1126 H       
  35 H35            3.3401     1.7566     0.2592 H       
  36 H36            1.2613     3.0688     0.1808 H       
  37 H37           -1.7917     1.4712    -1.9281 H       
  38 H38           -4.0861     4.9961     2.1264 H       
  39 H39           -0.5836     3.7871     4.2330 H       
  40 H40            0.0739     2.3868     2.3292 H       
  41 H41           -2.9192     1.6239    -3.3831 H       
  42 H42           -4.2806     2.1835    -4.1932 H       
  43 H43           -3.3557     6.4542     6.6219 H       
  44 H44           -3.5764     1.5801     6.8320 H       
  45 H45           -2.9667     2.6431     4.6988 H       
@<TRIPOS>BOND
   1    1    2 ar
   2    1    6 ar
   3    1    7 1
   4    2    3 ar
   5    2   33 1
   6    3    4 ar
   7    3   34 1
   8    4    5 ar
   9    4   28 1
  10    5    6 ar
  11    5   35 1
  12    6   36 1
  13    7    8 1
  14    7   12 2
  15    8    9 2
  16    8   37 1
  17    9   10 1
  18    9   20 1
  19   10   11 am
  20   10   19 2
  21   11   12 1
  22   11   13 1
  23   12   16 1
  24   13   14 2
  25   13   38 1
  26   14   15 1
  27   14   17 1
  28   15   16 2
  29   15   39 1
  30   16   40 1
  31   17   18 1
  32   18   23 ar
  33   18   27 ar
  34   20   21 2
  35   20   22 am
  36   22   41 1
  37   22   42 1
  38   23   24 ar
  39   23   43 1
  40   24   25 ar
  41   24   29 1
  42   25   26 ar
  43   26   27 ar
  44   26   44 1
  45   27   45 1
  46   29   30 1
  47   29   31 1
  48   29   32 1

#	End of record

