#	Name: ASD07300177
#	Creating user name:	WinNT
#	Creation time:	15. 06. 2019 21:09

#	Modifying user name:	WinNT
#	Modification time:	15. 06. 2019 21:09

#	Program:	/corina/corina34_cracker 3.40 0067  02.08.2006

@<TRIPOS>MOLECULE
ASD07300177
  49   53    0    0    0
SMALL
NO_CHARGES


@<TRIPOS>ATOM
   1 C1            -0.8590     0.9891    -0.1280 C.ar    
   2 C2            -1.0215    -0.3801    -0.3502 C.ar    
   3 C3             0.0633    -1.2312    -0.1905 C.ar    
   4 C4             1.2783    -0.6832     0.1875 C.ar    
   5 C5             1.3710     0.6872     0.3924 C.ar    
   6 N6             0.3198     1.4733     0.2322 N.ar    
   7 C7            -2.9735     0.6175    -0.6989 C.2     
   8 N8            -2.0971     1.5792    -0.3548 N.am    
   9 N9            -2.3534    -0.5779    -0.7104 N.am    
  10 O10           -4.1469     0.8009    -0.9638 O.2     
  11 O11            2.5594     1.2282     0.7632 O.3     
  12 C12            2.5949     2.6432     0.9596 C.3     
  13 C13           -2.9732    -1.8644    -1.0371 C.3     
  14 C14           -3.5368    -2.4972     0.2368 C.3     
  15 C15           -2.3848     2.9477    -0.2436 C.ar    
  16 C16           -3.6686     3.4103    -0.4986 C.ar    
  17 C17           -3.9513     4.7574    -0.3891 C.ar    
  18 C18           -2.9525     5.6486    -0.0242 C.ar    
  19 C19           -1.6693     5.1867     0.2307 C.ar    
  20 C20           -1.3870     3.8391     0.1270 C.ar    
  21 O21           -3.2312     6.9750     0.0830 O.3     
  22 C22           -3.9069     7.3955     1.1769 C.2     
  23 N23           -4.2348     6.6404     2.1930 N.2     
  24 C24           -4.9051     7.3809     3.1144 C.ar    
  25 C25           -4.9872     8.6899     2.6108 C.ar    
  26 N26           -4.3421     8.6714     1.3860 N.pl3   
  27 C27           -5.4701     7.0857     4.3572 C.ar    
  28 C28           -6.1004     8.0777     5.0748 C.ar    
  29 C29           -6.1790     9.3681     4.5729 C.ar    
  30 C30           -5.6259     9.6761     3.3470 C.ar    
  31 H31           -0.0374    -2.2937    -0.3562 H       
  32 H32            2.1439    -1.3150     0.3217 H       
  33 H33            1.8900     2.9190     1.7440 H       
  34 H34            3.6007     2.9443     1.2527 H       
  35 H35            2.3210     3.1458     0.0320 H       
  36 H36           -3.7804    -1.7075    -1.7526 H       
  37 H37           -2.2258    -2.5278    -1.4723 H       
  38 H38           -4.2842    -1.8339     0.6720 H       
  39 H39           -3.9980    -3.4545    -0.0063 H       
  40 H40           -2.7296    -2.6541     0.9523 H       
  41 H41           -4.4461     2.7167    -0.7830 H       
  42 H42           -4.9499     5.1174    -0.5878 H       
  43 H43           -0.8921     5.8808     0.5147 H       
  44 H44           -0.3892     3.4791     0.3299 H       
  45 H45           -4.2233     9.4251     0.7870 H       
  46 H46           -5.4132     6.0828     4.7537 H       
  47 H47           -6.5371     7.8489     6.0357 H       
  48 H48           -6.6766    10.1369     5.1453 H       
  49 H49           -5.6904    10.6829     2.9617 H       
@<TRIPOS>BOND
   1    1    2 ar
   2    1    6 ar
   3    1    8 1
   4    2    3 ar
   5    2    9 1
   6    3    4 ar
   7    3   31 1
   8    4    5 ar
   9    4   32 1
  10    5    6 ar
  11    5   11 1
  12    7    8 am
  13    7    9 am
  14    7   10 2
  15    8   15 1
  16    9   13 1
  17   11   12 1
  18   12   33 1
  19   12   34 1
  20   12   35 1
  21   13   14 1
  22   13   36 1
  23   13   37 1
  24   14   38 1
  25   14   39 1
  26   14   40 1
  27   15   16 ar
  28   15   20 ar
  29   16   17 ar
  30   16   41 1
  31   17   18 ar
  32   17   42 1
  33   18   19 ar
  34   18   21 1
  35   19   20 ar
  36   19   43 1
  37   20   44 1
  38   21   22 1
  39   22   23 2
  40   22   26 1
  41   23   24 1
  42   24   25 ar
  43   24   27 ar
  44   25   26 1
  45   25   30 ar
  46   26   45 1
  47   27   28 ar
  48   27   46 1
  49   28   29 ar
  50   28   47 1
  51   29   30 ar
  52   29   48 1
  53   30   49 1

#	End of record

