#	Name: ASD03740255
#	Creating user name:	WinNT
#	Creation time:	15. 06. 2019 20:47

#	Modifying user name:	WinNT
#	Modification time:	15. 06. 2019 20:47

#	Program:	/corina/corina34_cracker 3.40 0067  02.08.2006

@<TRIPOS>MOLECULE
ASD03740255
  34   35    0    0    0
SMALL
NO_CHARGES


@<TRIPOS>ATOM
   1 N1            -0.0163     1.3531     0.0095 N.am    
   2 C2             6.8969     5.1850     1.9761 C.3     
   3 O3             1.0927     3.2812     0.0096 O.2     
   4 C4             5.5495     4.5109     2.2429 C.3     
   5 C5             5.6557     3.6357     3.4933 C.3     
   6 C6             4.4777     5.5812     2.4590 C.3     
   7 C7             5.1733     3.6549     1.0610 C.ar    
   8 C8             6.0149     3.5822    -0.0343 C.ar    
   9 C9             5.6762     2.7988    -1.1233 C.ar    
  10 C10            4.4960     2.0842    -1.1222 C.ar    
  11 C11            3.6432     2.1535    -0.0207 C.ar    
  12 C12            2.3744     1.3886    -0.0131 C.2     
  13 C13            2.3877     0.0026    -0.0207 C.2     
  14 C14            1.1712    -0.6880    -0.0123 C.2     
  15 C15            0.0021    -0.0041     0.0020 C.2     
  16 C16            1.1285     2.0619     0.0024 C.2     
  17 C17            3.9926     2.9406     1.0760 C.ar    
  18 H18           -0.8669     1.8194     0.0160 H       
  19 H19            7.6604     4.4225     1.8221 H       
  20 H20            6.8212     5.8085     1.0853 H       
  21 H21            7.1689     5.8041     2.8310 H       
  22 H22            5.9278     4.2548     4.3481 H       
  23 H23            4.6958     3.1555     3.6833 H       
  24 H24            6.4193     2.8732     3.3393 H       
  25 H25            4.4020     6.2048     1.5682 H       
  26 H26            3.5178     5.1010     2.6491 H       
  27 H27            4.7498     6.2004     3.3139 H       
  28 H28            6.9400     4.1395    -0.0397 H       
  29 H29            6.3370     2.7465    -1.9760 H       
  30 H30            4.2325     1.4733    -1.9729 H       
  31 H31            3.3235    -0.5363    -0.0328 H       
  32 H32            1.1641    -1.7679    -0.0181 H       
  33 H33           -0.9311    -0.5478     0.0080 H       
  34 H34            3.3384     2.9947     1.9336 H       
@<TRIPOS>BOND
   1    1   15 1
   2    1   16 am
   3    1   18 1
   4    2    4 1
   5    2   19 1
   6    2   20 1
   7    2   21 1
   8    3   16 2
   9    4    5 1
  10    4    6 1
  11    4    7 1
  12    5   22 1
  13    5   23 1
  14    5   24 1
  15    6   25 1
  16    6   26 1
  17    6   27 1
  18    7    8 ar
  19    7   17 ar
  20    8    9 ar
  21    8   28 1
  22    9   10 ar
  23    9   29 1
  24   10   11 ar
  25   10   30 1
  26   11   12 1
  27   11   17 ar
  28   12   13 2
  29   12   16 1
  30   13   14 1
  31   13   31 1
  32   14   15 2
  33   14   32 1
  34   15   33 1
  35   17   34 1

#	End of record

