#	Name: ASD03091609
#	Creating user name:	WinNT
#	Creation time:	15. 06. 2019 20:31

#	Modifying user name:	WinNT
#	Modification time:	15. 06. 2019 20:31

#	Program:	/corina/corina34_cracker 3.40 0067  02.08.2006

@<TRIPOS>MOLECULE
ASD03091609
  39   40    0    0    0
SMALL
NO_CHARGES


@<TRIPOS>ATOM
   1 C1            -0.0167     1.3824     0.0096 C.ar    
   2 C2             0.0021    -0.0041     0.0020 C.ar    
   3 C3             1.2046    -0.6815    -0.0131 C.ar    
   4 C4             2.4062     0.0180    -0.0204 C.ar    
   5 C5             2.4068     1.3992    -0.0129 C.ar    
   6 C6             1.1923     2.0960     0.0019 C.ar    
   7 C7             1.1833     3.5639     0.0094 C.2     
   8 O8             0.1292     4.1639     0.0223 O.2     
   9 C9             2.4837     4.3254     0.0011 C.3     
  10 C10            2.1950     5.8279     0.0114 C.3     
  11 C11            3.4954     6.5894     0.0030 C.ar    
  12 C12            4.1333     6.8609    -1.1989 C.ar    
  13 C13            4.0503     7.0226     1.1914 C.ar    
  14 C14            5.2431     7.7223     1.1843 C.ar    
  15 C15            5.8831     7.9899    -0.0114 C.ar    
  16 C16            5.3299     7.5625    -1.2032 C.ar    
  17 O17            3.5870     6.4398    -2.3698 O.3     
  18 O18           -1.1994     2.0471     0.0188 O.3     
  19 O19            3.5849    -0.6601    -0.0344 O.3     
  20 C20           -2.3888     1.2550     0.0202 C.3     
  21 C21            3.5123    -2.0872    -0.0409 C.3     
  22 H22           -0.9266    -0.5553     0.0083 H       
  23 H23            1.2122    -1.7614    -0.0190 H       
  24 H24            3.3415     1.9403    -0.0182 H       
  25 H25            3.0652     4.0611     0.8843 H       
  26 H26            3.0486     4.0701    -0.8955 H       
  27 H27            1.6135     6.0921    -0.8719 H       
  28 H28            1.6302     6.0832     0.9080 H       
  29 H29            3.5521     6.8150     2.1268 H       
  30 H30            5.6752     8.0604     2.1146 H       
  31 H31            6.8144     8.5368    -0.0143 H       
  32 H32            5.8286     7.7748    -2.1374 H       
  33 H33            2.9828     7.0777    -2.7737 H       
  34 H34           -3.2608     1.9089     0.0278 H       
  35 H35           -2.4106     0.6308    -0.8731 H       
  36 H36           -2.4022     0.6211     0.9068 H       
  37 H37            4.5202    -2.5022    -0.0520 H       
  38 H38            2.9887    -2.4285     0.8521 H       
  39 H39            2.9727    -2.4195    -0.9278 H       
@<TRIPOS>BOND
   1    1    2 ar
   2    1    6 ar
   3    1   18 1
   4    2    3 ar
   5    2   22 1
   6    3    4 ar
   7    3   23 1
   8    4    5 ar
   9    4   19 1
  10    5    6 ar
  11    5   24 1
  12    6    7 1
  13    7    8 2
  14    7    9 1
  15    9   10 1
  16    9   25 1
  17    9   26 1
  18   10   11 1
  19   10   27 1
  20   10   28 1
  21   11   13 ar
  22   11   12 ar
  23   12   16 ar
  24   12   17 1
  25   13   14 ar
  26   13   29 1
  27   14   15 ar
  28   14   30 1
  29   15   16 ar
  30   15   31 1
  31   16   32 1
  32   17   33 1
  33   18   20 1
  34   19   21 1
  35   20   34 1
  36   20   35 1
  37   20   36 1
  38   21   37 1
  39   21   38 1
  40   21   39 1

#	End of record

