#	Name: ASD05720069
#	Creating user name:	WinNT
#	Creation time:	15. 06. 2019 21:01

#	Modifying user name:	WinNT
#	Modification time:	15. 06. 2019 21:01

#	Program:	/corina/corina34_cracker 3.40 0067  02.08.2006

@<TRIPOS>MOLECULE
ASD05720069
  56   60    0    0    0
SMALL
NO_CHARGES


@<TRIPOS>ATOM
   1 O1            -0.1052     1.1932     0.1308 O.3     
   2 C2             0.0755    -0.1222    -0.0314 C.2     
   3 N3             1.3622    -0.4854    -0.1222 N.am    
   4 C4             2.2046     0.7152    -0.0116 C.3     
   5 C5             1.1893     1.8613     0.1617 C.3     
   6 O6            -0.8430    -0.9152    -0.0907 O.2     
   7 C7             3.0271     0.9140    -1.2863 C.3     
   8 C8             2.0854     1.0580    -2.4836 C.3     
   9 C9             3.8784     2.1782    -1.1521 C.3     
  10 C10            3.5738    -3.2489    -0.6469 C.2     
  11 N11            3.1119    -2.0058    -0.4809 N.2     
  12 C12            1.8247    -1.7837    -0.2925 C.2     
  13 C13            0.9191    -2.8637    -0.2636 C.2     
  14 C14            1.3831    -4.1230    -0.4308 C.2     
  15 N15            2.7220    -4.3214    -0.6245 N.pl3   
  16 N16            3.4822    -5.4794    -0.8228 N.2     
  17 C17            4.7430    -5.1510    -0.9622 C.2     
  18 C18            4.8608    -3.7588    -0.8662 C.2     
  19 C19            6.1102    -2.9735    -0.9736 C.ar    
  20 C20            7.2286    -3.3344    -0.2189 C.ar    
  21 C21            8.3908    -2.6045    -0.3183 C.ar    
  22 C22            8.4520    -1.5017    -1.1749 C.ar    
  23 C23            7.3325    -1.1410    -1.9300 C.ar    
  24 C24            6.1726    -1.8751    -1.8340 C.ar    
  25 O25            9.8981     0.3653    -2.0648 O.3     
  26 C26            9.6984    -0.7180    -1.2817 C.2     
  27 N27           10.8157    -0.9439    -0.6337 N.2     
  28 N28           11.6911    -0.0638    -0.9717 N.2     
  29 C29           11.1674     0.7591    -1.8490 C.2     
  30 N30           11.8023     1.8325    -2.4432 N.pl3   
  31 C31           13.1946     2.1385    -2.1057 C.3     
  32 C32           13.6533     3.3653    -2.8965 C.3     
  33 O33           12.9034     4.5082    -2.4801 O.3     
  34 H34            2.8567     0.6465     0.8591 H       
  35 H35            1.2719     2.5725    -0.6602 H       
  36 H36            1.3380     2.3622     1.1182 H       
  37 H37            3.6774     0.0524    -1.4372 H       
  38 H38            1.3795     1.8670    -2.2954 H       
  39 H39            2.6664     1.2836    -3.3778 H       
  40 H40            1.5393     0.1262    -2.6305 H       
  41 H41            4.6087     2.0415    -0.3546 H       
  42 H42            4.3975     2.3681    -2.0915 H       
  43 H43            3.2354     3.0257    -0.9146 H       
  44 H44           -0.1351    -2.6872    -0.1090 H       
  45 H45            0.7039    -4.9624    -0.4112 H       
  46 H46            5.5574    -5.8407    -1.1279 H       
  47 H47            7.1811    -4.1863     0.4433 H       
  48 H48            9.2554    -2.8834     0.2656 H       
  49 H49            7.3791    -0.2888    -2.5918 H       
  50 H50            5.3090    -1.5994    -2.4210 H       
  51 H51           11.3262     2.3835    -3.0840 H       
  52 H52           13.2729     2.3443    -1.0381 H       
  53 H53           13.8256     1.2864    -2.3586 H       
  54 H54           14.7135     3.5401    -2.7135 H       
  55 H55           13.4919     3.1928    -3.9606 H       
  56 H56           13.1418     5.3243    -2.9408 H       
@<TRIPOS>BOND
   1    1    2 1
   2    1    5 1
   3    2    3 am
   4    2    6 2
   5    3    4 1
   6    3   12 1
   7    4    5 1
   8    4    7 1
   9    4   34 1
  10    5   35 1
  11    5   36 1
  12    7    8 1
  13    7    9 1
  14    7   37 1
  15    8   38 1
  16    8   39 1
  17    8   40 1
  18    9   41 1
  19    9   42 1
  20    9   43 1
  21   10   11 1
  22   10   15 1
  23   10   18 2
  24   11   12 2
  25   12   13 1
  26   13   14 2
  27   13   44 1
  28   14   15 1
  29   14   45 1
  30   15   16 1
  31   16   17 2
  32   17   18 1
  33   17   46 1
  34   18   19 1
  35   19   20 ar
  36   19   24 ar
  37   20   21 ar
  38   20   47 1
  39   21   22 ar
  40   21   48 1
  41   22   23 ar
  42   22   26 1
  43   23   24 ar
  44   23   49 1
  45   24   50 1
  46   25   26 1
  47   25   29 1
  48   26   27 2
  49   27   28 1
  50   28   29 2
  51   29   30 1
  52   30   31 1
  53   30   51 1
  54   31   32 1
  55   31   52 1
  56   31   53 1
  57   32   33 1
  58   32   54 1
  59   32   55 1
  60   33   56 1

#	End of record

