#	Name: ASD01148670
#	Creating user name:	WinNT
#	Creation time:	15. 06. 2019 19:03

#	Modifying user name:	WinNT
#	Modification time:	15. 06. 2019 19:03

#	Program:	/corina/corina34_cracker 3.40 0067  02.08.2006

@<TRIPOS>MOLECULE
ASD01148670
  27   28    0    0    0
SMALL
NO_CHARGES


@<TRIPOS>ATOM
   1 O1            -0.0162     1.3421     0.0094 O.3     
   2 C2             0.0021    -0.0041     0.0020 C.2     
   3 C3             1.3218    -0.4897    -0.0132 C.2     
   4 C4             2.1877     0.5476    -0.0159 C.2     
   5 C5             1.3412     1.8012    -0.0011 C.3     
   6 O6            -0.9914    -0.7072     0.0077 O.2     
   7 N7             3.5516     0.4783    -0.0286 N.pl3   
   8 C8             4.3476     1.7082    -0.0292 C.3     
   9 C9             4.6378     2.1285     1.4131 C.3     
  10 F10            5.3980     3.3030     1.4125 F       
  11 C11            4.2187    -0.8260    -0.0417 C.3     
  12 S12            3.3140    -2.2161    -2.4391 S.3     
  13 C13            4.4013    -2.1659    -3.7576 C.2     
  14 N14            5.4593    -1.4985    -3.4367 N.2     
  15 C15            5.5087    -1.0024    -2.2159 C.2     
  16 C16            4.4345    -1.2655    -1.4669 C.2     
  17 Cl17           4.1237    -2.9056    -5.3034 Cl      
  18 H18            1.6008    -1.5330    -0.0211 H       
  19 H19            1.5317     2.3961    -0.8943 H       
  20 H20            1.5488     2.3865     0.8947 H       
  21 H21            5.2875     1.5324    -0.5525 H       
  22 H22            3.7933     2.4995    -0.5337 H       
  23 H23            3.6979     2.3043     1.9364 H       
  24 H24            5.1921     1.3372     1.9176 H       
  25 H25            5.1811    -0.7470     0.4639 H       
  26 H26            3.5964    -1.5575     0.4738 H       
  27 H27            6.3490    -0.4301    -1.8515 H       
@<TRIPOS>BOND
   1    1    2 1
   2    1    5 1
   3    2    3 1
   4    2    6 2
   5    3    4 2
   6    3   18 1
   7    4    5 1
   8    4    7 1
   9    5   19 1
  10    5   20 1
  11    7    8 1
  12    7   11 1
  13    8    9 1
  14    8   21 1
  15    8   22 1
  16    9   10 1
  17    9   23 1
  18    9   24 1
  19   11   16 1
  20   11   25 1
  21   11   26 1
  22   12   13 1
  23   12   16 1
  24   13   14 2
  25   13   17 1
  26   14   15 1
  27   15   16 2
  28   15   27 1

#	End of record

