#	Name: ASD01813055
#	Creating user name:	WinNT
#	Creation time:	15. 06. 2019 19:29

#	Modifying user name:	WinNT
#	Modification time:	15. 06. 2019 19:29

#	Program:	/corina/corina34_cracker 3.40 0067  02.08.2006

@<TRIPOS>MOLECULE
ASD01813055
  52   56    0    0    0
SMALL
NO_CHARGES


@<TRIPOS>ATOM
   1 C1            -1.9065     1.4015     0.0374 C.2     
   2 C2            -2.0104     0.0627     0.0827 C.2     
   3 N3            -0.9002    -0.7284    -0.0086 N.pl3   
   4 C4             0.3412    -0.2442    -0.1332 C.2     
   5 C5             0.5526     1.1196    -0.1788 C.2     
   6 C6            -0.6214     1.9978    -0.0941 C.2     
   7 O7            -0.4969     3.2118    -0.1282 O.2     
   8 C8            -1.0779    -2.1820     0.0326 C.3     
   9 C9            -0.8981    -2.6702     1.4469 C.ar    
  10 C10           -3.0928     2.3254     0.1130 C.3     
  11 C11           -4.3116     1.5970     0.6751 C.3     
  12 C12           -4.4909     0.2909    -0.1088 C.3     
  13 C13           -3.3353    -0.6414     0.2448 C.3     
  14 C14           -2.0042    -2.8621     2.2554 C.ar    
  15 C15           -1.8458    -3.3090     3.5513 C.ar    
  16 C16           -0.5678    -3.5676     4.0453 C.ar    
  17 C17            0.5433    -3.3727     3.2256 C.ar    
  18 C18            0.3720    -2.9301     1.9298 C.ar    
  19 C19           -0.3909    -4.0472     5.4363 C.2     
  20 O20           -2.7742     3.4317     0.9595 O.3     
  21 C21           -0.9592    -3.4503     6.4819 C.2     
  22 S22           -0.5518    -4.2648     7.9792 S.3     
  23 C23            0.4298    -5.4630     7.1459 C.ar    
  24 C24            0.4163    -5.2174     5.7723 C.ar    
  25 C25            1.1588    -6.5459     7.6494 C.ar    
  26 C26            1.8632    -7.3619     6.7965 C.ar    
  27 C27            1.8550    -7.1156     5.4304 C.ar    
  28 C28            1.1471    -6.0705     4.9202 C.ar    
  29 C29            1.9088     1.6745    -0.3125 C.2     
  30 O30            2.8660     0.9290    -0.3848 O.2     
  31 O31            2.0896     3.0094    -0.3548 O.3     
  32 H32            1.1797    -0.9218    -0.1979 H       
  33 H33           -2.0795    -2.4356    -0.3147 H       
  34 H34           -0.3386    -2.6568    -0.6124 H       
  35 H35           -3.3245     2.6942    -0.8862 H       
  36 H36           -4.1528     1.3740     1.7302 H       
  37 H37           -5.1984     2.2202     0.5596 H       
  38 H38           -5.4370    -0.1757     0.1658 H       
  39 H39           -4.4804     0.4999    -1.1785 H       
  40 H40           -3.3622    -1.5110    -0.4118 H       
  41 H41           -3.4428    -0.9699     1.2785 H       
  42 H42           -2.9936    -2.6615     1.8716 H       
  43 H43           -2.7100    -3.4578     4.1817 H       
  44 H44            1.5356    -3.5713     3.6028 H       
  45 H45            1.2317    -2.7787     1.2939 H       
  46 H46           -3.4923     4.0719     1.0570 H       
  47 H47           -1.5901    -2.5762     6.4158 H       
  48 H48            1.1683    -6.7411     8.7116 H       
  49 H49            2.4246    -8.1963     7.1901 H       
  50 H50            2.4109    -7.7610     4.7664 H       
  51 H51            1.1493    -5.8907     3.8553 H       
  52 H52            2.9988     3.3267    -0.4433 H       
@<TRIPOS>BOND
   1    1    2 2
   2    1   10 1
   3    1    6 1
   4    2    3 1
   5    2   13 1
   6    3    4 1
   7    3    8 1
   8    4    5 2
   9    4   32 1
  10    5    6 1
  11    5   29 1
  12    6    7 2
  13    8    9 1
  14    8   33 1
  15    8   34 1
  16    9   14 ar
  17    9   18 ar
  18   10   11 1
  19   10   20 1
  20   10   35 1
  21   11   12 1
  22   11   36 1
  23   11   37 1
  24   12   13 1
  25   12   38 1
  26   12   39 1
  27   13   40 1
  28   13   41 1
  29   14   15 ar
  30   14   42 1
  31   15   16 ar
  32   15   43 1
  33   16   17 ar
  34   16   19 1
  35   17   18 ar
  36   17   44 1
  37   18   45 1
  38   19   21 2
  39   19   24 1
  40   20   46 1
  41   21   22 1
  42   21   47 1
  43   22   23 1
  44   23   24 ar
  45   23   25 ar
  46   24   28 ar
  47   25   26 ar
  48   25   48 1
  49   26   27 ar
  50   26   49 1
  51   27   28 ar
  52   27   50 1
  53   28   51 1
  54   29   30 2
  55   29   31 1
  56   31   52 1

#	End of record

