#	Name: ASD01948353
#	Creating user name:	WinNT
#	Creation time:	15. 06. 2019 20:14

#	Modifying user name:	WinNT
#	Modification time:	15. 06. 2019 20:14

#	Program:	/corina/corina34_cracker 3.40 0067  02.08.2006

@<TRIPOS>MOLECULE
ASD01948353
  63   65    0    0    0
SMALL
NO_CHARGES


@<TRIPOS>ATOM
   1 C1             0.3011     0.9578     0.7065 C.2     
   2 N2             0.1942    -0.3995     0.7954 N.am    
   3 C3             1.2882    -1.1799     0.8661 C.2     
   4 C4             2.6876     0.7691     0.7595 C.2     
   5 C5             1.5145     1.5576     0.6870 C.2     
   6 C6             3.5340     2.1789    -1.4956 C.ar    
   7 C7             4.3364     2.1254    -0.3641 C.ar    
   8 N8             3.9396     1.3655     0.7413 N.pl3   
   9 C9             3.9285     2.9299    -2.5863 C.ar    
  10 C10            5.1215     3.6286    -2.5526 C.ar    
  11 C11            5.9248     3.5784    -1.4270 C.ar    
  12 C12            5.5363     2.8290    -0.3322 C.ar    
  13 N13            1.6089     2.9558     0.5946 N.am    
  14 S14            0.2339     3.8747     0.5099 S.o2    
  15 C15           -0.5749     3.6281     2.1148 C.3     
  16 O16            1.1662    -2.3933     0.9448 O.2     
  17 C17           -1.1338    -1.0176     0.8148 C.3     
  18 F18            6.3204     2.7799     0.7669 F       
  19 I19            5.7141     4.7654    -4.2095 I       
  20 O20            0.7103     5.2082     0.3914 O.2     
  21 O21           -0.5261     3.2732    -0.5292 O.2     
  22 C22            2.5654    -0.6074     0.8495 C.2     
  23 F23            3.6657    -1.3882     0.9208 F       
  24 C24           -1.8952     4.3612     2.3606 C.3     
  25 C25           -1.8914     2.8486     2.1300 C.3     
  26 C26            0.3664     3.4490     3.3076 C.3     
  27 C27            1.1432     4.7459     3.5434 C.3     
  28 O28            0.2339     5.7860     3.9087 O.3     
  29 O29           -1.6815    -1.0111    -0.5051 O.3     
  30 C30           -1.1405    -2.0171    -1.3638 C.3     
  31 C31            2.1568     4.5356     4.6701 C.3     
  32 O32            2.9611     5.7082     4.8122 O.3     
  33 C33           -1.8832    -1.9992    -2.7013 C.3     
  34 C34           -1.6171    -0.6722    -3.4148 C.3     
  35 C35           -1.3902    -3.1552    -3.5740 C.3     
  36 H36           -0.5930     1.5606     0.6466 H       
  37 H37            2.6042     1.6303    -1.5251 H       
  38 H38            4.5402     1.2557     1.4951 H       
  39 H39            3.3043     2.9712    -3.4667 H       
  40 H40            6.8561     4.1248    -1.4038 H       
  41 H41            2.4796     3.3832     0.5805 H       
  42 H42           -1.0512    -2.0452     1.1688 H       
  43 H43           -1.7868    -0.4549     1.4819 H       
  44 H44           -2.0933     4.7156     3.3722 H       
  45 H45           -2.2777     4.9917     1.5580 H       
  46 H46           -2.2715     2.4841     1.1757 H       
  47 H47           -2.0871     2.2080     2.9899 H       
  48 H48           -0.2158     3.2074     4.1968 H       
  49 H49            1.0659     2.6392     3.1001 H       
  50 H50            1.6680     5.0263     2.6302 H       
  51 H51           -0.2688     5.6039     4.7145 H       
  52 H52           -0.0821    -1.8194    -1.5333 H       
  53 H53           -1.2572    -2.9949    -0.8965 H       
  54 H54            1.6278     4.3425     5.6033 H       
  55 H55            2.7943     3.6845     4.4310 H       
  56 H56            3.6274     5.6459     5.5102 H       
  57 H57           -2.9532    -2.1084    -2.5243 H       
  58 H58           -1.9684     0.1514    -2.7931 H       
  59 H59           -0.5472    -0.5630    -3.5919 H       
  60 H60           -2.1463    -0.6595    -4.3677 H       
  61 H61           -1.5798    -4.1007    -3.0657 H       
  62 H62           -1.9193    -3.1425    -4.5268 H       
  63 H63           -0.3202    -3.0461    -3.7510 H       
@<TRIPOS>BOND
   1    1    2 1
   2    1    5 2
   3    1   36 1
   4    2    3 am
   5    2   17 1
   6    3   22 1
   7    3   16 2
   8    4    5 1
   9    4    8 1
  10    4   22 2
  11    5   13 1
  12    6    7 ar
  13    6    9 ar
  14    6   37 1
  15    7    8 1
  16    7   12 ar
  17    8   38 1
  18    9   10 ar
  19    9   39 1
  20   10   11 ar
  21   10   19 1
  22   11   12 ar
  23   11   40 1
  24   12   18 1
  25   13   14 am
  26   13   41 1
  27   14   15 1
  28   14   20 2
  29   14   21 2
  30   15   24 1
  31   15   26 1
  32   15   25 1
  33   17   29 1
  34   17   42 1
  35   17   43 1
  36   22   23 1
  37   24   25 1
  38   24   44 1
  39   24   45 1
  40   25   46 1
  41   25   47 1
  42   26   27 1
  43   26   48 1
  44   26   49 1
  45   27   28 1
  46   27   31 1
  47   27   50 1
  48   28   51 1
  49   29   30 1
  50   30   33 1
  51   30   52 1
  52   30   53 1
  53   31   32 1
  54   31   54 1
  55   31   55 1
  56   32   56 1
  57   33   34 1
  58   33   35 1
  59   33   57 1
  60   34   58 1
  61   34   59 1
  62   34   60 1
  63   35   61 1
  64   35   62 1
  65   35   63 1

#	End of record

