#	Name: ASD04570048
#	Creating user name:	WinNT
#	Creation time:	15. 06. 2019 20:49

#	Modifying user name:	WinNT
#	Modification time:	15. 06. 2019 20:49

#	Program:	/corina/corina34_cracker 3.40 0067  02.08.2006

@<TRIPOS>MOLECULE
ASD04570048
 332  333    0    0    0
SMALL
NO_CHARGES


@<TRIPOS>ATOM
   1 C1            -0.0187     1.5258     0.0104 C.3     
   2 C2             0.0021    -0.0041     0.0020 C.3     
   3 C3            -1.4333    -0.5336     0.0129 C.3     
   4 C4            -1.4126    -2.0635     0.0045 C.3     
   5 C5            -2.8479    -2.5931     0.0153 C.3     
   6 C6            -2.8272    -4.1229     0.0069 C.3     
   7 C7            -4.2626    -4.6525     0.0178 C.3     
   8 C8            -4.2418    -6.1823     0.0094 C.3     
   9 C9            -5.6772    -6.7119     0.0202 C.3     
  10 C10           -5.6565    -8.2417     0.0118 C.3     
  11 C11           -7.0918    -8.7713     0.0227 C.3     
  12 C12           -7.0711   -10.3012     0.0143 C.3     
  13 C13           -8.5065   -10.8307     0.0251 C.3     
  14 C14           -8.4857   -12.3606     0.0167 C.3     
  15 C15           -9.8995   -12.8822     0.0274 C.2     
  16 N16          -10.1278   -14.2105     0.0224 N.am    
  17 O17          -10.8319   -12.1067     0.0405 O.2     
  18 C18          -11.5022   -14.7176     0.0328 C.3     
  19 C19          -11.4818   -16.2244     0.0246 C.2     
  20 N20          -12.6397   -16.9141     0.0319 N.am    
  21 O21          -10.4234   -16.8164     0.0113 O.2     
  22 C22          -12.6198   -18.3789     0.0239 C.3     
  23 C23          -14.0336   -18.9006     0.0345 C.2     
  24 N24          -14.2619   -20.2288     0.0296 N.am    
  25 O25          -14.9660   -18.1251     0.0476 O.2     
  26 C26          -15.6363   -20.7359     0.0400 C.3     
  27 C27          -15.6677   -22.1146    -0.5676 C.2     
  28 O28          -14.6429   -22.6236    -0.9697 O.2     
  29 N29          -16.8345   -22.7821    -0.6641 N.am    
  30 C30          -16.1445   -20.8022     1.4816 C.3     
  31 C31          -16.2295   -19.4087     2.0489 C.ar    
  32 C32          -17.3963   -18.6790     1.9152 C.ar    
  33 C33          -16.8650   -24.1224    -1.2548 C.3     
  34 C34          -16.9741   -24.0068    -2.7765 C.3     
  35 C35          -18.0543   -24.8792    -0.7220 C.2     
  36 O36          -18.8028   -24.3511     0.0728 O.2     
  37 N37          -18.2862   -26.1430    -1.1288 N.am    
  38 C38          -15.7083   -23.3492    -3.3300 C.3     
  39 C39          -15.8157   -23.2353    -4.8289 C.2     
  40 N40          -14.8101   -22.6835    -5.5365 N.am    
  41 C41          -19.4424   -26.8788    -0.6109 C.3     
  42 C42          -20.6788   -26.5390    -1.4457 C.3     
  43 C43          -19.1730   -28.3593    -0.6918 C.2     
  44 O44          -18.1191   -28.7604    -1.1381 O.2     
  45 N45          -20.1034   -29.2376    -0.2681 N.am    
  46 C46          -19.8415   -30.6769    -0.3467 C.3     
  47 C47          -21.1693   -31.4337    -0.4184 C.3     
  48 C48          -19.0783   -31.1161     0.8763 C.2     
  49 C49          -21.8874   -31.0811    -1.7226 C.3     
  50 C50          -23.2152   -31.8379    -1.7943 C.3     
  51 C51          -17.4766   -17.4013     2.4344 C.ar    
  52 C52          -16.3853   -16.8505     3.0903 C.ar    
  53 C53          -15.2157   -17.5846     3.2231 C.ar    
  54 C54          -15.1423   -18.8640     2.7071 C.ar    
  55 O55          -16.4617   -15.5936     3.6015 O.3     
  56 O56          -16.8070   -23.6402    -5.3983 O.2     
  57 C57          -23.9334   -31.4854    -3.0984 C.3     
  58 N58          -25.2083   -32.2120    -3.1673 N.3     
  59 C59            1.4167     2.0553    -0.0004 C.3     
  60 H60           -9.3821   -14.8307     0.0120 H       
  61 C61          -21.0259   -25.0600    -1.2644 C.3     
  62 C62          -22.2623   -24.7202    -2.0992 C.3     
  63 C63          -22.6093   -23.2412    -1.9179 C.3     
  64 N64          -23.7964   -22.9150    -2.7194 N.3     
  65 O65          -19.0914   -30.4347     1.8732 O.2     
  66 C66          -18.2989   -32.4058     0.8553 C.3     
  67 H67           -0.5459     1.8868    -0.8726 H       
  68 H68           -0.5289     1.8773     0.9072 H       
  69 H69            0.5123    -0.3556    -0.8948 H       
  70 H70            0.5293    -0.3651     0.8851 H       
  71 H71           -1.9435    -0.1821     0.9097 H       
  72 H72           -1.9605    -0.1726    -0.8702 H       
  73 H73           -0.9024    -2.4150    -0.8923 H       
  74 H74           -0.8854    -2.4246     0.8875 H       
  75 H75           -3.3581    -2.2415     0.9121 H       
  76 H76           -3.3751    -2.2320    -0.8677 H       
  77 H77           -2.3170    -4.4744    -0.8899 H       
  78 H78           -2.3000    -4.4840     0.8900 H       
  79 H79           -4.7728    -4.3010     0.9146 H       
  80 H80           -4.7898    -4.2914    -0.8653 H       
  81 H81           -3.7316    -6.5338    -0.8874 H       
  82 H82           -3.7146    -6.5434     0.8924 H       
  83 H83           -6.1874    -6.3604     0.9170 H       
  84 H84           -6.2044    -6.3508    -0.8628 H       
  85 H85           -5.1463    -8.5933    -0.8850 H       
  86 H86           -5.1293    -8.6028     0.8949 H       
  87 H87           -7.6020    -8.4198     0.9195 H       
  88 H88           -7.6190    -8.4102    -0.8604 H       
  89 H89           -6.5609   -10.6527    -0.8825 H       
  90 H90           -6.5439   -10.6622     0.8973 H       
  91 H91           -9.0167   -10.4792     0.9219 H       
  92 H92           -9.0337   -10.4697    -0.8579 H       
  93 H93           -7.9755   -12.7121    -0.8801 H       
  94 H94           -7.9586   -12.7217     0.8998 H       
  95 H95          -12.0124   -14.3660     0.9296 H       
  96 H96          -12.0294   -14.3565    -0.8502 H       
  97 H97          -13.4862   -16.4406     0.0425 H       
  98 H98          -12.1096   -18.7305    -0.8729 H       
  99 H99          -12.0926   -18.7400     0.9069 H       
 100 H100         -13.5162   -20.8491     0.0191 H       
 101 H101         -16.2741   -20.0688    -0.5398 H       
 102 H102         -17.6542   -22.3751    -0.3425 H       
 103 H103         -17.1328   -21.2619     1.4977 H       
 104 H104         -15.4570   -21.3977     2.0822 H       
 105 H105         -18.2455   -19.1081     1.4042 H       
 106 H106         -15.9498   -24.6547    -0.9955 H       
 107 H107         -17.0861   -25.0009    -3.2094 H       
 108 H108         -17.8415   -23.3988    -3.0335 H       
 109 H109         -17.6876   -26.5655    -1.7645 H       
 110 H110         -15.5963   -22.3552    -2.8972 H       
 111 H111         -14.8409   -23.9573    -3.0731 H       
 112 H112         -14.0173   -22.3597    -5.0811 H       
 113 H113         -14.8793   -22.6102    -6.5013 H       
 114 H114         -19.6166   -26.5973     0.4276 H       
 115 H115         -20.4729   -26.7376    -2.4975 H       
 116 H116         -21.5183   -27.1521    -1.1177 H       
 117 H117         -20.9463   -28.9168     0.0889 H       
 118 H118         -19.2527   -30.8909    -1.2387 H       
 119 H119         -20.9782   -32.5064    -0.3873 H       
 120 H120         -21.7946   -31.1513     0.4285 H       
 121 H121         -22.0785   -30.0085    -1.7536 H       
 122 H122         -21.2621   -31.3635    -2.5695 H       
 123 H123         -23.0242   -32.9106    -1.7632 H       
 124 H124         -23.8406   -31.5556    -0.9473 H       
 125 H125         -18.3881   -16.8317     2.3294 H       
 126 H126         -14.3647   -17.1580     3.7332 H       
 127 H127         -14.2321   -19.4361     2.8105 H       
 128 H128         -16.7777   -15.5590     4.5147 H       
 129 H129         -24.1244   -30.4127    -3.1295 H       
 130 H130         -23.3081   -31.7677    -3.9454 H       
 131 H131         -25.7020   -31.9959    -4.0203 H       
 132 H132         -25.0632   -33.2063    -3.0754 H       
 133 H133           1.4019     3.1452     0.0056 H       
 134 H134           1.9439     1.6943     0.8826 H       
 135 H135           1.9269     1.7038    -0.8972 H       
 136 H136         -21.2318   -24.8614    -0.2126 H       
 137 H137         -20.1864   -24.4469    -1.5923 H       
 138 H138         -22.0563   -24.9188    -3.1509 H       
 139 H139         -23.1017   -25.3333    -1.7712 H       
 140 H140         -22.8153   -23.0426    -0.8661 H       
 141 H141         -21.7698   -22.6281    -2.2458 H       
 142 H142         -24.0461   -21.9428    -2.6165 H       
 143 H143         -23.6534   -23.1509    -3.6899 H       
 144 H144         -17.2821   -32.2103     0.5148 H       
 145 H145         -18.2708   -32.8297     1.8590 H       
 146 H146         -18.7802   -33.1101     0.1767 H       
 147 C147          19.4589    31.5842    12.2362 C.3     
 148 C148          18.7197    30.3581    12.7068 C.2     
 149 N149          18.3474    30.2497    13.9976 N.am    
 150 C150          17.6288    29.0578    14.4550 C.3     
 151 C151          16.8135    29.4002    15.6753 C.2     
 152 N152          16.0650    28.4524    16.2734 N.am    
 153 C153          15.2724    28.7853    17.4596 C.3     
 154 C154          15.0417    27.5394    18.2755 C.2     
 155 N155          14.3320    27.6048    19.4194 N.am    
 156 O156          15.4949    26.4780    17.9028 O.2     
 157 C157          14.1078    26.3937    20.2126 C.3     
 158 C158          13.8664    26.7727    21.6510 C.2     
 159 C159          12.8873    25.6474    19.6701 C.3     
 160 C160          13.1801    25.1539    18.2517 C.3     
 161 O161          12.0402    24.4569    17.7450 O.3     
 162 C162          12.2098    23.9519    16.4190 C.3     
 163 N163          13.6351    25.8150    22.5706 N.am    
 164 O164          13.8802    27.9397    21.9811 O.2     
 165 C165          13.4003    26.1835    23.9689 C.3     
 166 C166          13.7731    25.0284    24.8622 C.2     
 167 N167          13.6394    25.1397    26.1987 N.am    
 168 O168          14.1934    23.9988    24.3784 O.2     
 169 C169          13.9075    23.9855    27.0602 C.3     
 170 C170          12.6796    23.1146    27.1298 C.2     
 171 O171          11.6790    23.4272    26.5199 O.2     
 172 N172          12.6933    21.9883    27.8700 N.am    
 173 C173          11.4997    21.1417    27.9376 C.3     
 174 C174          10.5609    21.6695    29.0244 C.3     
 175 C175          11.9045    19.7279    28.2668 C.2     
 176 O176          13.0750    19.4545    28.4290 O.2     
 177 N177          10.9660    18.7674    28.3811 N.am    
 178 C178          11.3596    17.3930    28.7011 C.3     
 179 C179          11.4909    17.2402    30.2178 C.3     
 180 C180          10.3122    16.4383    28.1888 C.2     
 181 O181           9.3333    16.8640    27.6130 O.2     
 182 N182          10.4633    15.1114    28.3704 N.am    
 183 C183           9.4451    14.1833    27.8723 C.3     
 184 C184           9.4887    12.8913    28.6907 C.3     
 185 C185           9.7168    13.8697    26.4236 C.2     
 186 O186          10.6674    14.3721    25.8624 O.2     
 187 N187           8.9035    13.0311    25.7516 N.am    
 188 C188           9.0908    13.1902    30.1375 C.3     
 189 C189           9.1345    11.8982    30.9558 C.3     
 190 N190           8.7535    12.1845    32.3411 N.pl3   
 191 C191           8.7202    11.1701    33.2685 C.2     
 192 C192          11.9216    26.5236    24.1654 C.3     
 193 C193          11.5120    27.6117    23.1707 C.3     
 194 O194          11.1305    25.3542    23.9447 O.3     
 195 C195          14.2687    24.4710    28.4655 C.3     
 196 C196          15.5688    25.2315    28.4154 C.2     
 197 O197          16.0265    25.8513    29.5146 O.3     
 198 O198          16.1992    25.2833    27.3860 O.2     
 199 C199          10.0513    23.0568    28.6285 C.3     
 200 C200           9.1126    23.5846    29.7152 C.3     
 201 C201           8.6030    24.9718    29.3193 C.3     
 202 N202           7.7017    25.4787    30.3627 N.3     
 203 C203          12.6214    18.1044    30.7138 C.ar    
 204 C204          12.3749    19.4093    31.0987 C.ar    
 205 C205          13.9023    17.5893    30.7886 C.ar    
 206 C206          14.9403    18.3793    31.2434 C.ar    
 207 C207          14.6966    19.6906    31.6252 C.ar    
 208 C208          13.4095    20.2036    31.5538 C.ar    
 209 N209           8.3627    11.4388    34.5686 N.pl3   
 210 N210           9.0276     9.9537    32.9153 N.2     
 211 C211          13.9255    29.3676    17.0262 C.3     
 212 O212          13.1733    28.3666    16.3375 O.3     
 213 O213          16.8309    30.5288    16.1191 O.2     
 214 C214          18.6344    27.9592    14.8054 C.3     
 215 C215          19.3758    27.5240    13.5398 C.3     
 216 C216          20.3814    26.4254    13.8901 C.3     
 217 N217          21.0914    26.0086    12.6783 N.pl3   
 218 C218          22.0505    25.0260    12.7471 C.2     
 219 N219          22.7168    24.6349    11.6098 N.pl3   
 220 N220          22.3282    24.4652    13.8904 N.2     
 221 O221          18.4599    29.4690    11.9240 O.2     
 222 C222           9.1676    12.7262    24.3432 C.3     
 223 C223           8.5492    13.7909    23.4742 C.2     
 224 C224           8.5605    11.3661    23.9932 C.3     
 225 C225           9.2751    10.2696    24.7856 C.3     
 226 N226           8.6653    13.7179    22.1335 N.am    
 227 O227           7.9472    14.7135    23.9814 O.2     
 228 C228           8.5880     8.9264    24.5312 C.3     
 229 O229          15.7159    20.4697    32.0734 O.3     
 230 N230          20.2756    31.2436    11.0637 N.3     
 231 C231          18.4523    32.6727    11.8579 C.3     
 232 C232          21.5840    30.7133    11.4696 C.3     
 233 C233          19.1902    33.9383    11.5048 C.2     
 234 C234          10.7363    10.1876    24.3392 C.3     
 235 N235          20.0799    34.5747    12.2810 N.2     
 236 C236          20.5173    35.6332    11.6555 C.2     
 237 N237          19.9135    35.7039    10.4496 N.pl3   
 238 C238          19.0761    34.6255    10.3522 C.2     
 239 H239          20.1045    31.9483    13.0354 H       
 240 H240          18.5552    30.9609    14.6237 H       
 241 H241          16.9675    28.7060    13.6632 H       
 242 H242          16.0510    27.5498    15.9184 H       
 243 H243          15.8089    29.5192    18.0609 H       
 244 H244          13.9696    28.4537    19.7175 H       
 245 H245          14.9852    25.7500    20.1488 H       
 246 H246          12.6671    24.7952    20.3130 H       
 247 H247          12.0294    26.3194    19.6510 H       
 248 H248          13.4003    26.0061    17.6088 H       
 249 H249          14.0381    24.4818    18.2708 H       
 250 H250          11.3012    23.4365    16.1076 H       
 251 H251          12.4098    24.7792    15.7380 H       
 252 H252          13.0476    23.2549    16.4000 H       
 253 H253          13.6240    24.8817    22.3066 H       
 254 H254          14.0096    27.0508    24.2233 H       
 255 H255          13.3656    25.9839    26.5901 H       
 256 H256          14.7377    23.4108    26.6498 H       
 257 H257          13.4936    21.7383    28.3578 H       
 258 H258          10.9874    21.1583    26.9756 H       
 259 H259           9.7159    20.9902    29.1359 H       
 260 H260          11.1003    21.7366    29.9692 H       
 261 H261          10.0299    18.9861    28.2514 H       
 262 H262          12.3165    17.1699    28.2293 H       
 263 H263          10.5611    17.5485    30.6958 H       
 264 H264          11.6965    16.1978    30.4614 H       
 265 H265          11.2462    14.7710    28.8309 H       
 266 H266           8.4599    14.6400    27.9666 H       
 267 H267           8.7935    12.1678    28.2648 H       
 268 H268          10.4984    12.4813    28.6688 H       
 269 H269           8.1432    12.6293    26.2004 H       
 270 H270           9.7860    13.9137    30.5633 H       
 271 H271           8.0811    13.6002    30.1593 H       
 272 H272           8.4393    11.1747    30.5299 H       
 273 H273          10.1442    11.4882    30.9339 H       
 274 H274           8.5247    13.0897    32.6040 H       
 275 H275          11.7634    26.8828    25.1823 H       
 276 H276          11.6703    27.2525    22.1538 H       
 277 H277          10.4586    27.8540    23.3107 H       
 278 H278          12.1155    28.5036    23.3391 H       
 279 H279          11.2217    24.9792    23.0581 H       
 280 H280          13.4797    25.1243    28.8382 H       
 281 H281          14.3747    23.6136    29.1301 H       
 282 H282          16.8648    26.3264    29.4337 H       
 283 H283          10.8964    23.7361    28.5169 H       
 284 H284           9.5120    22.9897    27.6836 H       
 285 H285           8.2676    22.9053    29.8268 H       
 286 H286           9.6520    23.6517    30.6600 H       
 287 H287           9.4481    25.6512    29.2077 H       
 288 H288           8.0636    24.9047    28.3745 H       
 289 H289           7.3514    26.3944    30.1244 H       
 290 H290           6.9439    24.8340    30.5303 H       
 291 H291          11.3728    19.8081    31.0433 H       
 292 H292          14.0915    16.5683    30.4915 H       
 293 H293          15.9406    17.9764    31.3020 H       
 294 H294          13.2172    21.2241    31.8505 H       
 295 H295           8.1339    12.3440    34.8315 H       
 296 H296           8.3392    10.7231    35.2230 H       
 297 H297           9.0041     9.2381    33.5696 H       
 298 H298          13.3722    29.6971    17.9056 H       
 299 H299          14.0932    30.2164    16.3632 H       
 300 H300          12.3058    28.6665    16.0331 H       
 301 H301          19.3507    28.3408    15.5330 H       
 302 H302          18.1063    27.1049    15.2290 H       
 303 H303          18.6596    27.1423    12.8122 H       
 304 H304          19.9039    28.3782    13.1161 H       
 305 H305          21.0977    26.8070    14.6177 H       
 306 H306          19.8533    25.5711    14.3138 H       
 307 H307          20.8847    26.4260    11.8274 H       
 308 H308          22.5101    25.0523    10.7589 H       
 309 H309          23.3935    23.9417    11.6583 H       
 310 H310          23.0049    23.7720    13.9389 H       
 311 H311          10.2439    12.6983    24.1732 H       
 312 H312           7.5004    11.3654    24.2466 H       
 313 H313           8.6791    11.1791    22.9259 H       
 314 H314           9.2327    10.5037    25.8493 H       
 315 H315           9.1468    12.9800    21.7278 H       
 316 H316           8.2673    14.4032    21.5742 H       
 317 H317           8.6304     8.6923    23.4675 H       
 318 H318           9.0971     8.1452    25.0957 H       
 319 H319           7.5471     8.9848    24.8492 H       
 320 H320          16.1680    20.9650    31.3767 H       
 321 H321          19.7923    30.5929    10.4630 H       
 322 H322          17.8657    32.3428    11.0005 H       
 323 H323          17.7883    32.8624    12.7012 H       
 324 H324          22.2002    30.5503    10.5854 H       
 325 H325          22.0768    31.4275    12.1293 H       
 326 H326          21.4459    29.7685    11.9954 H       
 327 H327          11.2453     9.4064    24.9038 H       
 328 H328          10.7786     9.9535    23.2755 H       
 329 H329          11.2258    11.1445    24.5205 H       
 330 H330          21.2419    36.3363    12.0388 H       
 331 H331          20.0502    36.3891     9.7768 H       
 332 H332          18.4411    34.3771     9.5147 H       
@<TRIPOS>BOND
   1    1    2 1
   2    1   59 1
   3    1   67 1
   4    1   68 1
   5    2    3 1
   6    2   69 1
   7    2   70 1
   8    3    4 1
   9    3   71 1
  10    3   72 1
  11    4    5 1
  12    4   73 1
  13    4   74 1
  14    5    6 1
  15    5   75 1
  16    5   76 1
  17    6    7 1
  18    6   77 1
  19    6   78 1
  20    7    8 1
  21    7   79 1
  22    7   80 1
  23    8    9 1
  24    8   81 1
  25    8   82 1
  26    9   10 1
  27    9   83 1
  28    9   84 1
  29   10   11 1
  30   10   85 1
  31   10   86 1
  32   11   12 1
  33   11   87 1
  34   11   88 1
  35   12   13 1
  36   12   89 1
  37   12   90 1
  38   13   14 1
  39   13   91 1
  40   13   92 1
  41   14   15 1
  42   14   93 1
  43   14   94 1
  44   15   16 am
  45   15   17 2
  46   16   18 1
  47   16   60 1
  48   18   19 1
  49   18   95 1
  50   18   96 1
  51   19   20 am
  52   19   21 2
  53   20   22 1
  54   20   97 1
  55   22   23 1
  56   22   98 1
  57   22   99 1
  58   23   24 am
  59   23   25 2
  60   24   26 1
  61   24  100 1
  62   26   27 1
  63   26   30 1
  64   26  101 1
  65   27   28 2
  66   27   29 am
  67   29   33 1
  68   29  102 1
  69   30   31 1
  70   30  103 1
  71   30  104 1
  72   31   32 ar
  73   31   54 ar
  74   32   51 ar
  75   32  105 1
  76   33   34 1
  77   33   35 1
  78   33  106 1
  79   34   38 1
  80   34  107 1
  81   34  108 1
  82   35   36 2
  83   35   37 am
  84   37   41 1
  85   37  109 1
  86   38   39 1
  87   38  110 1
  88   38  111 1
  89   39   40 am
  90   39   56 2
  91   40  112 1
  92   40  113 1
  93   41   42 1
  94   41   43 1
  95   41  114 1
  96   42   61 1
  97   42  115 1
  98   42  116 1
  99   43   44 2
 100   43   45 am
 101   45   46 1
 102   45  117 1
 103   46   47 1
 104   46   48 1
 105   46  118 1
 106   47   49 1
 107   47  119 1
 108   47  120 1
 109   48   65 2
 110   48   66 1
 111   49   50 1
 112   49  121 1
 113   49  122 1
 114   50   57 1
 115   50  123 1
 116   50  124 1
 117   51   52 ar
 118   51  125 1
 119   52   53 ar
 120   52   55 1
 121   53   54 ar
 122   53  126 1
 123   54  127 1
 124   55  128 1
 125   57   58 1
 126   57  129 1
 127   57  130 1
 128   58  131 1
 129   58  132 1
 130   59  133 1
 131   59  134 1
 132   59  135 1
 133   61   62 1
 134   61  136 1
 135   61  137 1
 136   62   63 1
 137   62  138 1
 138   62  139 1
 139   63   64 1
 140   63  140 1
 141   63  141 1
 142   64  142 1
 143   64  143 1
 144   66  144 1
 145   66  145 1
 146   66  146 1
 147  147  148 1
 148  147  230 1
 149  147  231 1
 150  147  239 1
 151  148  149 am
 152  148  221 2
 153  149  150 1
 154  149  240 1
 155  150  151 1
 156  150  214 1
 157  150  241 1
 158  151  152 am
 159  151  213 2
 160  152  153 1
 161  152  242 1
 162  153  154 1
 163  153  211 1
 164  153  243 1
 165  154  155 am
 166  154  156 2
 167  155  157 1
 168  155  244 1
 169  157  158 1
 170  157  159 1
 171  157  245 1
 172  158  163 am
 173  158  164 2
 174  159  160 1
 175  159  246 1
 176  159  247 1
 177  160  161 1
 178  160  248 1
 179  160  249 1
 180  161  162 1
 181  162  250 1
 182  162  251 1
 183  162  252 1
 184  163  165 1
 185  163  253 1
 186  165  166 1
 187  165  192 1
 188  165  254 1
 189  166  167 am
 190  166  168 2
 191  167  169 1
 192  167  255 1
 193  169  170 1
 194  169  195 1
 195  169  256 1
 196  170  171 2
 197  170  172 am
 198  172  173 1
 199  172  257 1
 200  173  174 1
 201  173  175 1
 202  173  258 1
 203  174  199 1
 204  174  259 1
 205  174  260 1
 206  175  176 2
 207  175  177 am
 208  177  178 1
 209  177  261 1
 210  178  179 1
 211  178  180 1
 212  178  262 1
 213  179  203 1
 214  179  263 1
 215  179  264 1
 216  180  181 2
 217  180  182 am
 218  182  183 1
 219  182  265 1
 220  183  184 1
 221  183  185 1
 222  183  266 1
 223  184  188 1
 224  184  267 1
 225  184  268 1
 226  185  186 2
 227  185  187 am
 228  187  222 1
 229  187  269 1
 230  188  189 1
 231  188  270 1
 232  188  271 1
 233  189  190 1
 234  189  272 1
 235  189  273 1
 236  190  191 1
 237  190  274 1
 238  191  209 1
 239  191  210 2
 240  192  193 1
 241  192  194 1
 242  192  275 1
 243  193  276 1
 244  193  277 1
 245  193  278 1
 246  194  279 1
 247  195  196 1
 248  195  280 1
 249  195  281 1
 250  196  197 1
 251  196  198 2
 252  197  282 1
 253  199  200 1
 254  199  283 1
 255  199  284 1
 256  200  201 1
 257  200  285 1
 258  200  286 1
 259  201  202 1
 260  201  287 1
 261  201  288 1
 262  202  289 1
 263  202  290 1
 264  203  204 ar
 265  203  205 ar
 266  204  208 ar
 267  204  291 1
 268  205  206 ar
 269  205  292 1
 270  206  207 ar
 271  206  293 1
 272  207  208 ar
 273  207  229 1
 274  208  294 1
 275  209  295 1
 276  209  296 1
 277  210  297 1
 278  211  212 1
 279  211  298 1
 280  211  299 1
 281  212  300 1
 282  214  215 1
 283  214  301 1
 284  214  302 1
 285  215  216 1
 286  215  303 1
 287  215  304 1
 288  216  217 1
 289  216  305 1
 290  216  306 1
 291  217  218 1
 292  217  307 1
 293  218  219 1
 294  218  220 2
 295  219  308 1
 296  219  309 1
 297  220  310 1
 298  222  223 1
 299  222  224 1
 300  222  311 1
 301  223  226 am
 302  223  227 2
 303  224  225 1
 304  224  312 1
 305  224  313 1
 306  225  228 1
 307  225  234 1
 308  225  314 1
 309  226  315 1
 310  226  316 1
 311  228  317 1
 312  228  318 1
 313  228  319 1
 314  229  320 1
 315  230  232 1
 316  230  321 1
 317  231  233 1
 318  231  322 1
 319  231  323 1
 320  232  324 1
 321  232  325 1
 322  232  326 1
 323  233  235 1
 324  233  238 2
 325  234  327 1
 326  234  328 1
 327  234  329 1
 328  235  236 2
 329  236  237 1
 330  236  330 1
 331  237  238 1
 332  237  331 1
 333  238  332 1

#	End of record

