#	Name: ASD03091169
#	Creating user name:	WinNT
#	Creation time:	15. 06. 2019 20:30

#	Modifying user name:	WinNT
#	Modification time:	15. 06. 2019 20:30

#	Program:	/corina/corina34_cracker 3.40 0067  02.08.2006

@<TRIPOS>MOLECULE
ASD03091169
  56   60    0    0    0
SMALL
NO_CHARGES


@<TRIPOS>ATOM
   1 C1            -0.0167     1.3811     0.0096 C.ar    
   2 C2             0.0021    -0.0041     0.0020 C.ar    
   3 C3             1.2130    -0.6741    -0.0131 C.ar    
   4 C4             2.4070     0.0280    -0.0208 C.ar    
   5 C5             2.4050     1.4083    -0.0135 C.ar    
   6 C6             1.1934     2.0922     0.0019 C.ar    
   7 O7            -1.1804     2.0766     0.0301 O.3     
   8 C8            -1.1856     3.3215     0.7290 C.3     
   9 N9            -0.0454     4.1482     0.3321 N.am    
  10 C10            1.1332     3.5683     0.0106 C.2     
  11 C11            1.2327    -2.1810    -0.0207 C.3     
  12 F12           -1.1570    -0.6981     0.0098 F       
  13 C13            3.7156    -0.7193    -0.0369 C.3     
  14 C14            4.0770    -1.0689    -1.4575 C.ar    
  15 C15            3.6467    -2.2635    -2.0050 C.ar    
  16 C16            4.8336    -0.1918    -2.2128 C.ar    
  17 C17            5.1660    -0.5092    -3.5153 C.ar    
  18 C18            4.7399    -1.7103    -4.0660 C.ar    
  19 C19            3.9763    -2.5867    -3.3068 C.ar    
  20 N20            5.0757    -2.0352    -5.3877 N.pl3   
  21 C21            4.7270    -3.1658    -6.0425 C.2     
  22 C22            5.2448    -3.0951    -7.2907 C.2     
  23 C23            5.9327    -1.8819    -7.4036 C.2     
  24 N24            5.8269    -1.2435    -6.2660 N.2     
  25 O25            2.1100     4.2391    -0.2617 O.2     
  26 C26           -0.1797     5.6064     0.2883 C.3     
  27 O27            0.7323     7.6653     1.1655 O.3     
  28 C28            0.8252     6.2419     1.2526 C.3     
  29 C29            0.1030     6.1041    -1.1326 C.3     
  30 C30            0.0362     7.6343    -1.1485 C.3     
  31 C31            1.0328     8.1915    -0.1287 C.3     
  32 O32           -0.8757     5.5735    -2.0285 O.3     
  33 H33            3.3373     1.9536    -0.0192 H       
  34 H34           -2.1097     3.8543     0.5050 H       
  35 H35           -1.1338     3.1307     1.8010 H       
  36 H36            1.2274    -2.5392    -1.0502 H       
  37 H37            2.1323    -2.5352     0.4826 H       
  38 H38            0.3526    -2.5585     0.4999 H       
  39 H39            4.4971    -0.0929     0.3932 H       
  40 H40            3.6192    -1.6335     0.5489 H       
  41 H41            3.0525    -2.9447    -1.4140 H       
  42 H42            5.1645     0.7425    -1.7840 H       
  43 H43            5.7566     0.1764    -4.1048 H       
  44 H44            3.6405    -3.5202    -3.7336 H       
  45 H45            4.1406    -3.9792    -5.6413 H       
  46 H46            5.1452    -3.8433    -8.0632 H       
  47 H47            6.4569    -1.5307    -8.2801 H       
  48 H48           -1.1917     5.8888     0.5785 H       
  49 H49            0.6020     5.9248     2.2713 H       
  50 H50            1.8340     5.9265     0.9863 H       
  51 H51            1.0965     5.7792    -1.4418 H       
  52 H52            0.2905     7.9996    -2.1435 H       
  53 H53           -0.9714     7.9576    -0.8873 H       
  54 H54            0.9591     9.2787    -0.1051 H       
  55 H55            2.0443     7.9016    -0.4131 H       
  56 H56           -0.7573     5.8484    -2.9480 H       
@<TRIPOS>BOND
   1    1    2 ar
   2    1    6 ar
   3    1    7 1
   4    2    3 ar
   5    2   12 1
   6    3    4 ar
   7    3   11 1
   8    4    5 ar
   9    4   13 1
  10    5    6 ar
  11    5   33 1
  12    6   10 1
  13    7    8 1
  14    8    9 1
  15    8   34 1
  16    8   35 1
  17    9   10 am
  18    9   26 1
  19   10   25 2
  20   11   36 1
  21   11   37 1
  22   11   38 1
  23   13   14 1
  24   13   39 1
  25   13   40 1
  26   14   16 ar
  27   14   15 ar
  28   15   19 ar
  29   15   41 1
  30   16   17 ar
  31   16   42 1
  32   17   18 ar
  33   17   43 1
  34   18   19 ar
  35   18   20 1
  36   19   44 1
  37   20   21 1
  38   20   24 1
  39   21   22 2
  40   21   45 1
  41   22   23 1
  42   22   46 1
  43   23   24 2
  44   23   47 1
  45   26   28 1
  46   26   29 1
  47   26   48 1
  48   27   28 1
  49   27   31 1
  50   28   49 1
  51   28   50 1
  52   29   30 1
  53   29   32 1
  54   29   51 1
  55   30   31 1
  56   30   52 1
  57   30   53 1
  58   31   54 1
  59   31   55 1
  60   32   56 1

#	End of record

