#	Name: ASD00680002
#	Creating user name:	WinNT
#	Creation time:	15. 06. 2019 18:37

#	Modifying user name:	WinNT
#	Modification time:	15. 06. 2019 18:37

#	Program:	/corina/corina34_cracker 3.40 0067  02.08.2006

@<TRIPOS>MOLECULE
ASD00680002
  48   51    0    0    0
SMALL
NO_CHARGES


@<TRIPOS>ATOM
   1 C1            -0.0168     1.3847     0.0097 C.ar    
   2 C2             0.0021    -0.0041     0.0020 C.ar    
   3 C3             1.2114    -0.6885    -0.0063 C.ar    
   4 C4             2.3973     0.0114    -0.0067 C.ar    
   5 C5             2.3823     1.4085    -0.0134 C.ar    
   6 C6             1.1660     2.0935     0.0022 C.ar    
   7 C7             3.7154    -0.7168     0.0209 C.3     
   8 C8             4.7516     0.0506    -0.7964 C.3     
   9 C9             4.7853     1.4995    -0.3934 C.2     
  10 C10            3.6579     2.1459    -0.0571 C.2     
  11 C11            6.0674     2.2270    -0.3758 C.ar    
  12 C12            6.1544     3.4553     0.2837 C.ar    
  13 C13            4.9465     4.0065     0.9950 C.3     
  14 C14            3.6761     3.6210     0.2424 C.3     
  15 C15            7.1906     1.6970    -1.0146 C.ar    
  16 C16            8.3792     2.3956    -0.9987 C.ar    
  17 C17            8.4586     3.6218    -0.3511 C.ar    
  18 C18            7.3439     4.1499     0.2886 C.ar    
  19 O19           -1.1670    -0.6964     0.0031 O.3     
  20 O20            9.6314     4.3077    -0.3430 O.3     
  21 C21            4.3968    -0.0506    -2.2812 C.3     
  22 C22            3.6129     4.4020    -1.0717 C.3     
  23 C23            3.4716     5.8955    -0.7710 C.3     
  24 C24            4.5154    -1.5067    -2.7358 C.3     
  25 H25           -0.9600     1.9107     0.0170 H       
  26 H26            1.2211    -1.7684    -0.0120 H       
  27 H27            1.1514     3.1734     0.0079 H       
  28 H28            4.0594    -0.8035     1.0515 H       
  29 H29            3.5872    -1.7134    -0.4014 H       
  30 H30            5.7351    -0.3900    -0.6328 H       
  31 H31            4.9055     3.6005     2.0057 H       
  32 H32            5.0212     5.0927     1.0460 H       
  33 H33            2.8080     3.8740     0.8511 H       
  34 H34            7.1284     0.7438    -1.5185 H       
  35 H35            9.2502     1.9884    -1.4905 H       
  36 H36            7.4102     5.1043     0.7896 H       
  37 H37           -1.5090    -0.8920    -0.8799 H       
  38 H38            9.7365     4.9159    -1.0874 H       
  39 H39            3.3748     0.2959    -2.4350 H       
  40 H40            5.0814     0.5681    -2.8614 H       
  41 H41            4.5269     4.2308    -1.6404 H       
  42 H42            2.7547     4.0657    -1.6534 H       
  43 H43            3.4266     6.4520    -1.7072 H       
  44 H44            2.5577     6.0667    -0.2023 H       
  45 H45            4.3299     6.2318    -0.1893 H       
  46 H46            4.2626    -1.5788    -3.7937 H       
  47 H47            5.5374    -1.8532    -2.5821 H       
  48 H48            3.8308    -2.1254    -2.1557 H       
@<TRIPOS>BOND
   1    1    2 ar
   2    1    6 ar
   3    1   25 1
   4    2    3 ar
   5    2   19 1
   6    3    4 ar
   7    3   26 1
   8    4    5 ar
   9    4    7 1
  10    5    6 ar
  11    5   10 1
  12    6   27 1
  13    7    8 1
  14    7   28 1
  15    7   29 1
  16    8    9 1
  17    8   21 1
  18    8   30 1
  19    9   10 2
  20    9   11 1
  21   10   14 1
  22   11   12 ar
  23   11   15 ar
  24   12   13 1
  25   12   18 ar
  26   13   14 1
  27   13   31 1
  28   13   32 1
  29   14   22 1
  30   14   33 1
  31   15   16 ar
  32   15   34 1
  33   16   17 ar
  34   16   35 1
  35   17   18 ar
  36   17   20 1
  37   18   36 1
  38   19   37 1
  39   20   38 1
  40   21   24 1
  41   21   39 1
  42   21   40 1
  43   22   23 1
  44   22   41 1
  45   22   42 1
  46   23   43 1
  47   23   44 1
  48   23   45 1
  49   24   46 1
  50   24   47 1
  51   24   48 1

#	End of record

