#	Name: ASD00170295
#	Creating user name:	WinNT
#	Creation time:	15. 06. 2019 18:31

#	Modifying user name:	WinNT
#	Modification time:	15. 06. 2019 18:31

#	Program:	/corina/corina34_cracker 3.40 0067  02.08.2006

@<TRIPOS>MOLECULE
ASD00170295
  42   45    0    0    0
SMALL
NO_CHARGES


@<TRIPOS>ATOM
   1 C1            -0.1508     1.2835    -0.1069 C.2     
   2 C2            -0.0425    -0.0784    -0.0027 C.2     
   3 C3            -1.3212    -0.7435     0.1518 C.2     
   4 C4            -2.3481     0.1159     0.1602 C.2     
   5 S5            -1.7810     1.7669    -0.0127 S.3     
   6 C6             1.2379    -0.7915    -0.0441 C.2     
   7 C7             1.7751    -1.2599    -1.3257 C.2     
   8 O8             1.8559    -0.9950     0.9870 O.2     
   9 N9             0.9170     2.1470    -0.2613 N.pl3   
  10 S10            0.9956    -1.0669    -2.8898 S.3     
  11 C11            2.2804    -1.8631    -3.6811 C.2     
  12 C12            3.2220    -2.2401    -2.8056 C.2     
  13 C13            2.9647    -1.9110    -1.4959 C.2     
  14 Cl14           2.3572    -2.1473    -5.3920 Cl      
  15 C15           -1.5096    -2.2461     0.2919 C.3     
  16 C16           -2.9190    -2.5024     0.8351 C.3     
  17 N17           -3.8939    -1.7485     0.0340 N.3     
  18 C18           -3.7967    -0.3068     0.3064 C.3     
  19 C19           -5.2590    -2.2378     0.2689 C.3     
  20 C20           -6.2471    -1.2957    -0.3691 C.ar    
  21 C21           -6.6481    -1.4963    -1.6767 C.ar    
  22 C22           -7.5544    -0.6321    -2.2620 C.ar    
  23 C23           -8.0601     0.4325    -1.5396 C.ar    
  24 C24           -7.6597     0.6326    -0.2317 C.ar    
  25 C25           -6.7567    -0.2341     0.3550 C.ar    
  26 H26            1.8248     1.8078    -0.2204 H       
  27 H27            0.7587     3.0923    -0.4106 H       
  28 H28            4.1189    -2.7607    -3.1071 H       
  29 H29            3.6327    -2.1498    -0.6816 H       
  30 H30           -1.3982    -2.7232    -0.6818 H       
  31 H31           -0.7698    -2.6465     0.9851 H       
  32 H32           -3.1441    -3.5672     0.7745 H       
  33 H33           -2.9730    -2.1774     1.8741 H       
  34 H34           -4.1370    -0.1024     1.3216 H       
  35 H35           -4.4119     0.2426    -0.4062 H       
  36 H36           -5.3693    -3.2304    -0.1677 H       
  37 H37           -5.4468    -2.2897     1.3414 H       
  38 H38           -6.2531    -2.3280    -2.2412 H       
  39 H39           -7.8672    -0.7884    -3.2839 H       
  40 H40           -8.7676     1.1081    -1.9971 H       
  41 H41           -8.0545     1.4646     0.3326 H       
  42 H42           -6.4439    -0.0778     1.3768 H       
@<TRIPOS>BOND
   1    1    2 2
   2    1    9 1
   3    1    5 1
   4    2    3 1
   5    2    6 1
   6    3    4 2
   7    3   15 1
   8    4    5 1
   9    4   18 1
  10    6    7 1
  11    6    8 2
  12    7   10 1
  13    7   13 2
  14    9   26 1
  15    9   27 1
  16   10   11 1
  17   11   12 2
  18   11   14 1
  19   12   13 1
  20   12   28 1
  21   13   29 1
  22   15   16 1
  23   15   30 1
  24   15   31 1
  25   16   17 1
  26   16   32 1
  27   16   33 1
  28   17   18 1
  29   17   19 1
  30   18   34 1
  31   18   35 1
  32   19   20 1
  33   19   36 1
  34   19   37 1
  35   20   21 ar
  36   20   25 ar
  37   21   22 ar
  38   21   38 1
  39   22   23 ar
  40   22   39 1
  41   23   24 ar
  42   23   40 1
  43   24   25 ar
  44   24   41 1
  45   25   42 1

#	End of record

