#	Name: ASD01120055
#	Creating user name:	WinNT
#	Creation time:	15. 06. 2019 18:58

#	Modifying user name:	WinNT
#	Modification time:	15. 06. 2019 18:58

#	Program:	/corina/corina34_cracker 3.40 0067  02.08.2006

@<TRIPOS>MOLECULE
ASD01120055
  54   57    0    0    0
SMALL
NO_CHARGES


@<TRIPOS>ATOM
   1 C1            -0.0901     1.3500     0.6473 C.ar    
   2 C2            -0.0520    -0.0391     0.4630 C.ar    
   3 C3            -1.1845    -0.7312     0.0945 C.ar    
   4 C4            -2.3853    -0.0371    -0.0973 C.ar    
   5 C5            -2.4160     1.3670     0.0909 C.ar    
   6 C6            -1.2521     2.0460     0.4705 C.ar    
   7 N7            -3.5162    -0.6644    -0.4569 N.ar    
   8 C8            -4.6262     0.0128    -0.6297 C.ar    
   9 N9            -4.7024     1.3239    -0.4653 N.ar    
  10 C10           -3.6441     2.0409    -0.1108 C.ar    
  11 N11           -3.7382     3.4079     0.0575 N.pl3   
  12 C12           -4.9822     4.0392    -0.0323 C.ar    
  13 C13           -6.1279     3.3761     0.3809 C.ar    
  14 C14           -7.3649     4.0094     0.2900 C.ar    
  15 C15           -7.4446     5.3059    -0.2157 C.ar    
  16 C16           -6.2991     5.9593    -0.6251 C.ar    
  17 C17           -5.0706     5.3340    -0.5304 C.ar    
  18 C18           -8.5947     3.3058     0.7297 C.2     
  19 O19            1.0409     2.0112     1.0116 O.3     
  20 O20            1.1145    -0.7099     0.6493 O.3     
  21 C21            0.9383     3.4260     1.1839 C.3     
  22 C22            2.3010     3.9904     1.5905 C.3     
  23 C23            1.0892    -2.1242     0.4463 C.3     
  24 C24            2.4833    -2.7010     0.7004 C.3     
  25 C25           -9.8209     3.8632     0.6675 C.2     
  26 S26          -10.9806     2.6891     1.2841 S.3     
  27 C27           -9.7190     1.5707     1.5644 C.2     
  28 N28           -8.5858     2.0719     1.2131 N.2     
  29 C29           -9.9069     0.1894     2.1371 C.3     
  30 C30           -5.8703    -0.7354    -1.0338 C.3     
  31 H31           -1.1464    -1.8013    -0.0458 H       
  32 H32           -1.2710     3.1161     0.6150 H       
  33 H33           -2.9411     3.9304     0.2380 H       
  34 H34           -6.0612     2.3715     0.7718 H       
  35 H35           -8.4025     5.7993    -0.2878 H       
  36 H36           -6.3631     6.9638    -1.0166 H       
  37 H37           -4.1777     5.8496    -0.8516 H       
  38 H38            0.6201     3.8840     0.2474 H       
  39 H39            0.2074     3.6451     1.9623 H       
  40 H40            2.2227     5.0697     1.7220 H       
  41 H41            2.6192     3.5325     2.5270 H       
  42 H42            3.0319     3.7713     0.8121 H       
  43 H43            0.3772    -2.5776     1.1360 H       
  44 H44            0.7886    -2.3387    -0.5792 H       
  45 H45            2.4640    -3.7797     0.5455 H       
  46 H46            3.1953    -2.2476     0.0107 H       
  47 H47            2.7839    -2.4865     1.7259 H       
  48 H48          -10.0511     4.8541     0.3047 H       
  49 H49          -10.9645     0.0212     2.3406 H       
  50 H50           -9.5523    -0.5521     1.4212 H       
  51 H51           -9.3399     0.1001     3.0637 H       
  52 H52           -6.4087    -1.0541    -0.1413 H       
  53 H53           -6.5089    -0.0834    -1.6299 H       
  54 H54           -5.5933    -1.6098    -1.6226 H       
@<TRIPOS>BOND
   1    1    2 ar
   2    1   19 1
   3    1    6 ar
   4    2    3 ar
   5    2   20 1
   6    3    4 ar
   7    3   31 1
   8    4    5 ar
   9    4    7 ar
  10    5    6 ar
  11    5   10 ar
  12    6   32 1
  13    7    8 ar
  14    8    9 ar
  15    8   30 1
  16    9   10 ar
  17   10   11 1
  18   11   12 1
  19   11   33 1
  20   12   13 ar
  21   12   17 ar
  22   13   14 ar
  23   13   34 1
  24   14   15 ar
  25   14   18 1
  26   15   16 ar
  27   15   35 1
  28   16   17 ar
  29   16   36 1
  30   17   37 1
  31   18   25 2
  32   18   28 1
  33   19   21 1
  34   20   23 1
  35   21   22 1
  36   21   38 1
  37   21   39 1
  38   22   40 1
  39   22   41 1
  40   22   42 1
  41   23   24 1
  42   23   43 1
  43   23   44 1
  44   24   45 1
  45   24   46 1
  46   24   47 1
  47   25   26 1
  48   25   48 1
  49   26   27 1
  50   27   28 2
  51   27   29 1
  52   29   49 1
  53   29   50 1
  54   29   51 1
  55   30   52 1
  56   30   53 1
  57   30   54 1

#	End of record

