#	Name: ASD01918013
#	Creating user name:	WinNT
#	Creation time:	15. 06. 2019 20:10

#	Modifying user name:	WinNT
#	Modification time:	15. 06. 2019 20:10

#	Program:	/corina/corina34_cracker 3.40 0067  02.08.2006

@<TRIPOS>MOLECULE
ASD01918013
  43   46    0    0    0
SMALL
NO_CHARGES


@<TRIPOS>ATOM
   1 N1             4.8198    -0.4114    -2.1428 N.ar    
   2 C2             5.2868     0.2867    -3.1591 C.ar    
   3 C3             5.1748     1.6658    -3.1845 C.ar    
   4 C4             4.5620     2.3142    -2.1233 C.ar    
   5 C5             4.0810     1.5456    -1.0678 C.ar    
   6 C6             4.2308     0.1671    -1.1150 C.ar    
   7 O7             3.4735     2.1368    -0.0058 O.3     
   8 C8             3.4547     3.4960     0.0440 C.2     
   9 N9             2.2050     5.5106    -0.0206 N.pl3   
  10 C10            2.2729     4.1507    -0.0652 C.2     
  11 C11            4.6573     4.1965     0.2132 C.2     
  12 C12            4.6348     5.5843     0.2641 C.2     
  13 C13            3.3432     6.2621     0.1375 C.2     
  14 C14            5.8772     6.3538     0.4411 C.2     
  15 N15            5.8352     7.7001     0.4881 N.am    
  16 C16            6.9937     8.4240     0.7608 C.ar    
  17 O17            6.9417     5.7745     0.5450 O.2     
  18 C18            1.1807     6.4045    -0.1017 C.2     
  19 N19            1.6966     7.6020    -0.0055 N.2     
  20 N20            2.9729     7.5272     0.1425 N.2     
  21 Cl21           5.7945     2.5730    -4.5286 Cl      
  22 N22            8.1524     7.7922     0.8659 N.ar    
  23 C23            6.9234     9.8039     0.9146 C.ar    
  24 C24            8.0820    10.5109     1.1849 C.ar    
  25 C25            9.2754     9.8104     1.2925 C.ar    
  26 C26            9.2726     8.4397     1.1227 C.ar    
  27 C27           10.5659     7.6740     1.2325 C.3     
  28 C28           10.4157     6.5663     2.2771 C.3     
  29 H29            5.7634    -0.2244    -3.9825 H       
  30 H30            4.4608     3.3895    -2.1158 H       
  31 H31            3.8609    -0.4386    -0.3009 H       
  32 H32            1.3640     3.5811    -0.1910 H       
  33 H33            5.5917     3.6624     0.3034 H       
  34 H34            4.9983     8.1649     0.3319 H       
  35 H35            0.1348     6.1678    -0.2295 H       
  36 H36            5.9775    10.3173     0.8240 H       
  37 H37            8.0581    11.5835     1.3090 H       
  38 H38           10.1973    10.3322     1.5027 H       
  39 H39           10.8094     7.2317     0.2664 H       
  40 H40           11.3649     8.3515     1.5336 H       
  41 H41           10.1722     7.0085     3.2432 H       
  42 H42            9.6167     5.8887     1.9760 H       
  43 H43           11.3511     6.0124     2.3565 H       
@<TRIPOS>BOND
   1    1    2 ar
   2    1    6 ar
   3    2    3 ar
   4    2   29 1
   5    3    4 ar
   6    3   21 1
   7    4    5 ar
   8    4   30 1
   9    5    6 ar
  10    5    7 1
  11    6   31 1
  12    7    8 1
  13    8   11 1
  14    8   10 2
  15    9   10 1
  16    9   18 1
  17    9   13 1
  18   10   32 1
  19   11   12 2
  20   11   33 1
  21   12   13 1
  22   12   14 1
  23   13   20 2
  24   14   15 am
  25   14   17 2
  26   15   16 1
  27   15   34 1
  28   16   23 ar
  29   16   22 ar
  30   18   19 2
  31   18   35 1
  32   19   20 1
  33   22   26 ar
  34   23   24 ar
  35   23   36 1
  36   24   25 ar
  37   24   37 1
  38   25   26 ar
  39   25   38 1
  40   26   27 1
  41   27   28 1
  42   27   39 1
  43   27   40 1
  44   28   41 1
  45   28   42 1
  46   28   43 1

#	End of record

