#	Name: ASD01140477
#	Creating user name:	WinNT
#	Creation time:	15. 06. 2019 19:00

#	Modifying user name:	WinNT
#	Modification time:	15. 06. 2019 19:00

#	Program:	/corina/corina34_cracker 3.40 0067  02.08.2006

@<TRIPOS>MOLECULE
ASD01140477
  40   43    0    0    0
SMALL
NO_CHARGES


@<TRIPOS>ATOM
   1 C1            -1.6054     1.0099    -1.8821 C.ar    
   2 C2            -1.0342     1.5286    -3.0337 C.ar    
   3 C3            -0.7220     0.6813    -4.0834 C.ar    
   4 C4            -0.9809    -0.6743    -3.9866 C.ar    
   5 C5            -1.5544    -1.1915    -2.8374 C.ar    
   6 C6            -1.8664    -0.3519    -1.7866 C.ar    
   7 C7            -1.9281     3.2983    -1.0019 C.3     
   8 C8            -0.6717     3.6658    -1.8015 C.3     
   9 C9            -0.7471     3.0002    -3.1754 C.3     
  10 N10           -1.9219     1.8430    -0.7996 N.am    
  11 C11           -1.9073     4.0104     0.3521 C.3     
  12 C12           -2.2159     1.3177     0.4063 C.2     
  13 C13           -2.0647    -0.1297     0.6359 C.2     
  14 O14           -2.6061     2.0385     1.3050 O.2     
  15 C15           -0.9330    -2.0429     0.6750 C.2     
  16 S16           -2.5361    -2.5256     1.2169 S.3     
  17 C17           -3.0915    -0.9149     1.0690 C.2     
  18 N18           -0.9223    -0.7681     0.4319 N.2     
  19 C19            0.2246    -2.9505     0.5211 C.ar    
  20 C20            0.0672    -4.3252     0.7092 C.ar    
  21 N21            1.1036    -5.1301     0.5700 N.ar    
  22 C22            2.2888    -4.6366     0.2532 C.ar    
  23 C23            2.4497    -3.2743     0.0657 C.ar    
  24 N24            1.4187    -2.4607     0.1974 N.ar    
  25 F25           -0.6741    -1.4947    -5.0152 F       
  26 H26           -0.2749     1.0805    -4.9818 H       
  27 H27           -1.7576    -2.2496    -2.7632 H       
  28 H28           -2.3137    -0.7538    -0.8895 H       
  29 H29           -2.8186     3.5892    -1.5592 H       
  30 H30           -0.6192     4.7478    -1.9222 H       
  31 H31            0.2137     3.3120    -1.2733 H       
  32 H32            0.2033     3.1331    -3.6921 H       
  33 H33           -1.5412     3.4671    -3.7582 H       
  34 H34           -1.7043     5.0707     0.2019 H       
  35 H35           -2.8746     3.8912     0.8402 H       
  36 H36           -1.1282     3.5765     0.9789 H       
  37 H37           -4.0937    -0.5747     1.2843 H       
  38 H38           -0.9005    -4.7287     0.9683 H       
  39 H39            3.1346    -5.2987     0.1407 H       
  40 H40            3.4201    -2.8768    -0.1925 H       
@<TRIPOS>BOND
   1    1    6 ar
   2    1    2 ar
   3    1   10 1
   4    2    3 ar
   5    2    9 1
   6    3    4 ar
   7    3   26 1
   8    4    5 ar
   9    4   25 1
  10    5    6 ar
  11    5   27 1
  12    6   28 1
  13    7    8 1
  14    7   10 1
  15    7   11 1
  16    7   29 1
  17    8    9 1
  18    8   30 1
  19    8   31 1
  20    9   32 1
  21    9   33 1
  22   10   12 am
  23   11   34 1
  24   11   35 1
  25   11   36 1
  26   12   13 1
  27   12   14 2
  28   13   18 1
  29   13   17 2
  30   15   16 1
  31   15   18 2
  32   15   19 1
  33   16   17 1
  34   17   37 1
  35   19   20 ar
  36   19   24 ar
  37   20   21 ar
  38   20   38 1
  39   21   22 ar
  40   22   23 ar
  41   22   39 1
  42   23   24 ar
  43   23   40 1

#	End of record

