#	Name: ASD01911627
#	Creating user name:	WinNT
#	Creation time:	15. 06. 2019 19:58

#	Modifying user name:	WinNT
#	Modification time:	15. 06. 2019 19:58

#	Program:	/corina/corina34_cracker 3.40 0067  02.08.2006

@<TRIPOS>MOLECULE
ASD01911627
  37   39    0    0    0
SMALL
NO_CHARGES


@<TRIPOS>ATOM
   1 O1             0.0032    -0.0026    -0.0379 O.2     
   2 C2            -0.0140     1.2141    -0.0025 C.2     
   3 C3             1.2440     1.9642     0.0118 C.2     
   4 C4             2.5025     1.4256    -0.0112 C.2     
   5 S5             1.4034     3.7190     0.0541 S.3     
   6 C6             3.1572     3.5583     0.0436 C.2     
   7 N7             3.4781     2.2888     0.0073 N.2     
   8 C8             4.0878     4.6465     0.0666 C.1     
   9 C9             4.8508     5.5386     0.0854 C.1     
  10 C10            5.7814     6.6267     0.1084 C.ar    
  11 C11            7.1568     6.3754     0.0971 C.ar    
  12 C12            7.5814     8.7316     0.1524 C.ar    
  13 C13            6.2215     8.9886     0.1580 C.ar    
  14 C14            5.3192     7.9461     0.1365 C.ar    
  15 N15           -1.1907     1.8710     0.0179 N.am    
  16 C16            8.0466     7.4286     0.1190 C.ar    
  17 C17           -2.3902     1.1601    -0.0859 C.ar    
  18 C18           -3.5251     1.7799    -0.5936 C.ar    
  19 C19           -4.7081     1.0750    -0.6946 C.ar    
  20 C20           -4.7640    -0.2467    -0.2910 C.ar    
  21 C21           -3.6365    -0.8664     0.2152 C.ar    
  22 C22           -2.4483    -0.1688     0.3132 C.ar    
  23 C23           -3.4652     3.2201    -1.0332 C.3     
  24 H24            2.6744     0.3598    -0.0422 H       
  25 H25            7.5212     5.3591     0.0718 H       
  26 H26            8.2833     9.5523     0.1691 H       
  27 H27            5.8661    10.0081     0.1842 H       
  28 H28            4.2583     8.1481     0.1408 H       
  29 H29           -1.2053     2.8370     0.1045 H       
  30 H30            9.1093     7.2361     0.1103 H       
  31 H31           -5.5909     1.5564    -1.0890 H       
  32 H32           -5.6906    -0.7958    -0.3711 H       
  33 H33           -3.6836    -1.8985     0.5298 H       
  34 H34           -1.5679    -0.6535     0.7087 H       
  35 H35           -3.1906     3.2673    -2.0870 H       
  36 H36           -4.4411     3.6843    -0.8909 H       
  37 H37           -2.7206     3.7505    -0.4396 H       
@<TRIPOS>BOND
   1    1    2 2
   2    2    3 1
   3    2   15 am
   4    3    4 2
   5    3    5 1
   6    4    7 1
   7    4   24 1
   8    5    6 1
   9    6    7 2
  10    6    8 1
  11    8    9 3
  12    9   10 1
  13   10   11 ar
  14   10   14 ar
  15   11   16 ar
  16   11   25 1
  17   12   13 ar
  18   12   16 ar
  19   12   26 1
  20   13   14 ar
  21   13   27 1
  22   14   28 1
  23   15   17 1
  24   15   29 1
  25   16   30 1
  26   17   18 ar
  27   17   22 ar
  28   18   19 ar
  29   18   23 1
  30   19   20 ar
  31   19   31 1
  32   20   21 ar
  33   20   32 1
  34   21   22 ar
  35   21   33 1
  36   22   34 1
  37   23   35 1
  38   23   36 1
  39   23   37 1

#	End of record

