#	Name: ASD01812981
#	Creating user name:	WinNT
#	Creation time:	15. 06. 2019 19:29

#	Modifying user name:	WinNT
#	Modification time:	15. 06. 2019 19:29

#	Program:	/corina/corina34_cracker 3.40 0067  02.08.2006

@<TRIPOS>MOLECULE
ASD01812981
  41   44    0    0    0
SMALL
NO_CHARGES


@<TRIPOS>ATOM
   1 N1            -0.0158     1.3146     0.0093 N.ar    
   2 C2             0.0021    -0.0041     0.0020 C.ar    
   3 C3             1.1989    -0.7034    -0.0127 C.ar    
   4 C4             2.3830    -0.0016    -0.0202 C.ar    
   5 C5             2.3451     1.3976    -0.0128 C.ar    
   6 C6             1.0957     2.0332     0.0025 C.ar    
   7 C7             3.8375    -0.3894    -0.0363 C.3     
   8 N8             4.5957     0.8679    -0.0373 N.am    
   9 C9             3.7284     1.8957    -0.0237 C.2     
  10 C10            6.0561     0.9838    -0.0504 C.3     
  11 C11            6.5435     1.0304    -1.4757 C.ar    
  12 O12            1.0259     3.3855     0.0104 O.3     
  13 O13            4.0434     3.0701    -0.0212 O.2     
  14 C14            6.4778     2.2135    -2.1913 C.ar    
  15 C15            6.9261     2.2564    -3.5007 C.ar    
  16 C16            7.4394     1.1186    -4.0928 C.ar    
  17 C17            7.5056    -0.0648    -3.3768 C.ar    
  18 C18            7.0614    -0.1067    -2.0664 C.ar    
  19 C19           -0.2049     3.9605     0.0253 C.ar    
  20 C20           -0.8219     4.2477     1.2382 C.ar    
  21 C21           -2.0718     4.8316     1.2571 C.ar    
  22 C22           -2.7178     5.1345     0.0556 C.ar    
  23 C23           -2.0948     4.8446    -1.1612 C.ar    
  24 C24           -0.8425     4.2658    -1.1725 C.ar    
  25 F25           -0.2369     3.9906    -2.3484 F       
  26 F26           -0.1968     3.9541     2.3993 F       
  27 C27           -4.0153     5.7402     0.0712 C.1     
  28 F28            8.0075    -1.1775    -3.9558 F       
  29 F29            5.9758     3.3262    -1.6123 F       
  30 N30           -5.0446     6.2206     0.0836 N.1     
  31 H31           -0.9309    -0.5480     0.0080 H       
  32 H32            1.2023    -1.7834    -0.0178 H       
  33 H33            4.0797    -0.9725     0.8521 H       
  34 H34            4.0624    -0.9635    -0.9351 H       
  35 H35            6.3527     1.8972     0.4651 H       
  36 H36            6.4934     0.1228     0.4552 H       
  37 H37            6.8741     3.1793    -4.0593 H       
  38 H38            7.7887     1.1520    -5.1142 H       
  39 H39            7.1168    -1.0286    -1.5066 H       
  40 H40           -2.5504     5.0540     2.1993 H       
  41 H41           -2.5914     5.0770    -2.0917 H       
@<TRIPOS>BOND
   1    1    2 ar
   2    1    6 ar
   3    2    3 ar
   4    2   31 1
   5    3    4 ar
   6    3   32 1
   7    4    7 1
   8    4    5 ar
   9    5    6 ar
  10    5    9 1
  11    6   12 1
  12    7    8 1
  13    7   33 1
  14    7   34 1
  15    8    9 am
  16    8   10 1
  17    9   13 2
  18   10   11 1
  19   10   35 1
  20   10   36 1
  21   11   14 ar
  22   11   18 ar
  23   12   19 1
  24   14   15 ar
  25   14   29 1
  26   15   16 ar
  27   15   37 1
  28   16   17 ar
  29   16   38 1
  30   17   18 ar
  31   17   28 1
  32   18   39 1
  33   19   20 ar
  34   19   24 ar
  35   20   21 ar
  36   20   26 1
  37   21   22 ar
  38   21   40 1
  39   22   23 ar
  40   22   27 1
  41   23   24 ar
  42   23   41 1
  43   24   25 1
  44   27   30 3

#	End of record

