#	Name: ASD06140002
#	Creating user name:	WinNT
#	Creation time:	15. 06. 2019 21:05

#	Modifying user name:	WinNT
#	Modification time:	15. 06. 2019 21:05

#	Program:	/corina/corina34_cracker 3.40 0067  02.08.2006

@<TRIPOS>MOLECULE
ASD06140002
  34   37    0    0    0
SMALL
NO_CHARGES


@<TRIPOS>ATOM
   1 C1             2.7016     3.5376     0.0319 C.3     
   2 S2             4.2562     2.7168    -0.4581 S.3     
   3 C3             3.6667     1.1286    -0.1481 C.2     
   4 N4             2.4306     1.2156     0.2786 N.2     
   5 C5             1.8218     2.3649     0.4164 C.2     
   6 O6             0.6775     2.4798     0.8095 O.2     
   7 N7             4.3730    -0.0335    -0.3195 N.am    
   8 C8             3.7969    -1.2196    -0.0404 C.2     
   9 N9             4.5091    -2.3581    -0.1546 N.am    
  10 O10            2.6349    -1.2625     0.3144 O.2     
  11 C11            5.8816    -2.2470    -0.3770 C.ar    
  12 C12            6.6106    -3.2612    -0.9894 C.ar    
  13 S13            5.8233    -4.7482    -1.5068 S.3     
  14 C14            4.3066    -4.7408    -0.6132 C.ar    
  15 C15            3.8246    -3.5678    -0.0369 C.ar    
  16 C16            3.5892    -5.9233    -0.4800 C.ar    
  17 C17            2.3969    -5.9380     0.2182 C.ar    
  18 C18            1.9154    -4.7737     0.7871 C.ar    
  19 C19            2.6236    -3.5954     0.6646 C.ar    
  20 C20            6.5337    -1.0867     0.0278 C.ar    
  21 C21            7.8914    -0.9408    -0.1803 C.ar    
  22 C22            8.6129    -1.9482    -0.7932 C.ar    
  23 C23            7.9757    -3.1059    -1.1970 C.ar    
  24 H24            2.8635     4.1965     0.8850 H       
  25 H25            2.2719     4.0859    -0.8064 H       
  26 H26            5.2874    -0.0023    -0.6417 H       
  27 H27            3.9644    -6.8336    -0.9238 H       
  28 H28            1.8413    -6.8586     0.3191 H       
  29 H29            0.9836    -4.7863     1.3330 H       
  30 H30            2.2415    -2.6898     1.1121 H       
  31 H31            5.9755    -0.2960     0.5069 H       
  32 H32            8.3907    -0.0370     0.1364 H       
  33 H33            9.6739    -1.8304    -0.9566 H       
  34 H34            8.5405    -3.8923    -1.6756 H       
@<TRIPOS>BOND
   1    1    2 1
   2    1    5 1
   3    1   24 1
   4    1   25 1
   5    2    3 1
   6    3    4 2
   7    3    7 1
   8    4    5 1
   9    5    6 2
  10    7    8 am
  11    7   26 1
  12    8    9 am
  13    8   10 2
  14    9   11 1
  15    9   15 1
  16   11   12 ar
  17   11   20 ar
  18   12   13 1
  19   12   23 ar
  20   13   14 1
  21   14   15 ar
  22   14   16 ar
  23   15   19 ar
  24   16   17 ar
  25   16   27 1
  26   17   18 ar
  27   17   28 1
  28   18   19 ar
  29   18   29 1
  30   19   30 1
  31   20   21 ar
  32   20   31 1
  33   21   22 ar
  34   21   32 1
  35   22   23 ar
  36   22   33 1
  37   23   34 1

#	End of record

