#	Name: ASD01910562
#	Creating user name:	WinNT
#	Creation time:	15. 06. 2019 19:56

#	Modifying user name:	WinNT
#	Modification time:	15. 06. 2019 19:56

#	Program:	/corina/corina34_cracker 3.40 0067  02.08.2006

@<TRIPOS>MOLECULE
ASD01910562
  41   44    0    0    0
SMALL
NO_CHARGES


@<TRIPOS>ATOM
   1 O1            -0.0215     3.1622     0.8107 O.3     
   2 C2            -0.3528     1.8692     0.6553 C.2     
   3 N3             0.7780     1.2128     0.4402 N.2     
   4 C4             1.7444     2.1420     0.4756 C.2     
   5 N5             1.1796     3.2913     0.7039 N.2     
   6 C6            -1.7036     1.2958     0.7125 C.2     
   7 C7            -2.8729     1.9889     0.9364 C.2     
   8 C8            -3.9172     1.0558     0.9088 C.2     
   9 C9            -3.3777    -0.1632     0.6736 C.2     
  10 N10           -2.0312    -0.0292     0.5463 N.pl3   
  11 C11            3.9763     2.3400     1.5425 C.3     
  12 C12            3.2194     1.8983     0.2860 C.3     
  13 C13            3.7198     2.7033    -0.9155 C.3     
  14 C14            5.2106     2.4310    -1.1290 C.3     
  15 C15            5.9901     2.8788     0.1115 C.3     
  16 N16            5.4191     2.2178     1.2929 N.am    
  17 C17            6.2037     1.5124     2.1315 C.2     
  18 C18            5.6390     0.9562     3.3813 C.ar    
  19 O19            7.3750     1.3331     1.8614 O.2     
  20 C20            5.8863    -0.3705     3.7553 C.ar    
  21 C21            5.3372    -0.8479     4.9342 C.ar    
  22 N22            4.5936    -0.0719     5.6957 N.ar    
  23 C23            4.3372     1.1822     5.3792 C.ar    
  24 C24            4.8478     1.7426     4.2256 C.ar    
  25 Br25          -5.7538     1.4320     1.1561 Br      
  26 F26            6.6477    -1.1721     2.9787 F       
  27 H27           -2.9667     3.0519     1.1025 H       
  28 H28           -3.9274    -1.0895     0.5952 H       
  29 H29           -1.4048    -0.7493     0.3733 H       
  30 H30            3.7316     3.3773     1.7708 H       
  31 H31            3.6954     1.7030     2.3812 H       
  32 H32            3.3937     0.8367     0.1107 H       
  33 H33            3.1656     2.4082    -1.8065 H       
  34 H34            3.5679     3.7664    -0.7291 H       
  35 H35            5.3661     1.3644    -1.2909 H       
  36 H36            5.5610     2.9865    -1.9989 H       
  37 H37            7.0378     2.5973     0.0060 H       
  38 H38            5.9096     3.9600     0.2231 H       
  39 H39            5.5209    -1.8695     5.2325 H       
  40 H40            3.7221     1.7812     6.0345 H       
  41 H41            4.6330     2.7708     3.9744 H       
@<TRIPOS>BOND
   1    1    2 1
   2    1    5 1
   3    2    3 2
   4    2    6 1
   5    3    4 1
   6    4    5 2
   7    4   12 1
   8    6    7 2
   9    6   10 1
  10    7    8 1
  11    7   27 1
  12    8    9 2
  13    8   25 1
  14    9   10 1
  15    9   28 1
  16   10   29 1
  17   11   12 1
  18   11   16 1
  19   11   30 1
  20   11   31 1
  21   12   13 1
  22   12   32 1
  23   13   14 1
  24   13   33 1
  25   13   34 1
  26   14   15 1
  27   14   35 1
  28   14   36 1
  29   15   16 1
  30   15   37 1
  31   15   38 1
  32   16   17 am
  33   17   18 1
  34   17   19 2
  35   18   20 ar
  36   18   24 ar
  37   20   21 ar
  38   20   26 1
  39   21   22 ar
  40   21   39 1
  41   22   23 ar
  42   23   24 ar
  43   23   40 1
  44   24   41 1

#	End of record

