#	Name: ASD03331367
#	Creating user name:	WinNT
#	Creation time:	15. 06. 2019 20:39

#	Modifying user name:	WinNT
#	Modification time:	15. 06. 2019 20:39

#	Program:	/corina/corina34_cracker 3.40 0067  02.08.2006

@<TRIPOS>MOLECULE
ASD03331367
  61   63    0    0    0
SMALL
NO_CHARGES


@<TRIPOS>ATOM
   1 C1            -0.2033     1.7411     0.1235 C.2     
   2 C2            -0.0165     0.4014     0.0143 C.2     
   3 C3             1.3397    -0.2614     0.0287 C.3     
   4 C4             2.3921     0.8360    -0.1935 C.3     
   5 C5             2.0691     2.0247     0.7169 C.3     
   6 N6             0.8324     2.6796     0.2660 N.3     
   7 N7            -2.2067     0.8295    -0.0689 N.2     
   8 N8            -1.2380    -0.1847    -0.1048 N.am    
   9 C9            -1.5919     1.9856     0.0730 C.2     
  10 C10           -1.4756    -1.5050    -0.2347 C.2     
  11 O11           -0.5485    -2.2902    -0.2531 O.2     
  12 N12           -2.7415    -1.9544    -0.3441 N.am    
  13 C13            0.4425     3.7588     1.1831 C.3     
  14 C14           -4.3209    -3.5962    -1.1800 C.2     
  15 C15           -2.9997    -3.3895    -0.4853 C.3     
  16 C16           -3.0448    -4.0382     0.8996 C.3     
  17 C17           -4.2049    -3.4465     1.7025 C.3     
  18 O18           -5.0874    -2.6659    -1.3147 O.2     
  19 C19           -3.2459    -5.5475     0.7495 C.3     
  20 C20           -1.7285    -3.7695     1.6318 C.3     
  21 N21           -4.6509    -4.8149    -1.6518 N.am    
  22 C22           -5.9703    -5.0367    -2.2486 C.3     
  23 C23           -6.0873    -6.4939    -2.7001 C.3     
  24 O24           -6.0398    -7.3517    -1.5581 O.3     
  25 C25           -2.2453     3.3144     0.1564 C.ar    
  26 C26           -1.7746     4.3745    -0.6168 C.ar    
  27 C27           -2.3865     5.6103    -0.5356 C.ar    
  28 C28           -3.4676     5.7960     0.3146 C.ar    
  29 C29           -3.9368     4.7447     1.0840 C.ar    
  30 C30           -3.3351     3.5051     1.0037 C.ar    
  31 F31           -4.0636     7.0060     0.3921 F       
  32 F32           -1.9320     6.6390    -1.2841 F       
  33 H33            1.5057    -0.7440     0.9919 H       
  34 H34            1.3996    -0.9993    -0.7713 H       
  35 H35            3.3811     0.4479     0.0499 H       
  36 H36            2.3702     1.1572    -1.2349 H       
  37 H37            1.9393     1.6723     1.7401 H       
  38 H38            2.8908     2.7401     0.6833 H       
  39 H39           -3.4816    -1.3275    -0.3294 H       
  40 H40            0.0745     3.3287     2.1147 H       
  41 H41            1.3070     4.3894     1.3907 H       
  42 H42           -0.3434     4.3590     0.7247 H       
  43 H43           -2.2041    -3.8456    -1.0745 H       
  44 H44           -5.1427    -3.6379     1.1810 H       
  45 H45           -4.2370    -3.9086     2.6892 H       
  46 H46           -4.0616    -2.3712     1.8095 H       
  47 H47           -2.4116    -5.9715     0.1907 H       
  48 H48           -3.2934    -6.0077     1.7365 H       
  49 H49           -4.1761    -5.7386     0.2144 H       
  50 H50           -1.5851    -2.6943     1.7387 H       
  51 H51           -1.7605    -4.2317     2.6184 H       
  52 H52           -0.9019    -4.1911     1.0597 H       
  53 H53           -4.0147    -5.5450    -1.5961 H       
  54 H54           -6.7435    -4.8217    -1.5110 H       
  55 H55           -6.0954    -4.3788    -3.1085 H       
  56 H56           -7.0327    -6.6374    -3.2232 H       
  57 H57           -5.2614    -6.7343    -3.3696 H       
  58 H58           -6.1087    -8.2927    -1.7699 H       
  59 H59           -0.9329     4.2299    -1.2779 H       
  60 H60           -4.7781     4.8937     1.7446 H       
  61 H61           -3.7054     2.6849     1.6009 H       
@<TRIPOS>BOND
   1    1    2 2
   2    1    6 1
   3    1    9 1
   4    2    3 1
   5    2    8 1
   6    3    4 1
   7    3   33 1
   8    3   34 1
   9    4    5 1
  10    4   35 1
  11    4   36 1
  12    5    6 1
  13    5   37 1
  14    5   38 1
  15    6   13 1
  16    7    8 1
  17    7    9 2
  18    8   10 am
  19    9   25 1
  20   10   11 2
  21   10   12 am
  22   12   15 1
  23   12   39 1
  24   13   40 1
  25   13   41 1
  26   13   42 1
  27   14   18 2
  28   14   21 am
  29   14   15 1
  30   15   16 1
  31   15   43 1
  32   16   17 1
  33   16   19 1
  34   16   20 1
  35   17   44 1
  36   17   45 1
  37   17   46 1
  38   19   47 1
  39   19   48 1
  40   19   49 1
  41   20   50 1
  42   20   51 1
  43   20   52 1
  44   21   22 1
  45   21   53 1
  46   22   23 1
  47   22   54 1
  48   22   55 1
  49   23   24 1
  50   23   56 1
  51   23   57 1
  52   24   58 1
  53   25   26 ar
  54   25   30 ar
  55   26   27 ar
  56   26   59 1
  57   27   28 ar
  58   27   32 1
  59   28   29 ar
  60   28   31 1
  61   29   30 ar
  62   29   60 1
  63   30   61 1

#	End of record

