#	Name: ASD01911558
#	Creating user name:	WinNT
#	Creation time:	15. 06. 2019 19:58

#	Modifying user name:	WinNT
#	Modification time:	15. 06. 2019 19:58

#	Program:	/corina/corina34_cracker 3.40 0067  02.08.2006

@<TRIPOS>MOLECULE
ASD01911558
  40   42    0    0    0
SMALL
NO_CHARGES


@<TRIPOS>ATOM
   1 N1            -0.0096     1.2557    -0.4769 N.am    
   2 C2             1.2119     2.0721    -0.4657 C.3     
   3 C3             0.0021    -0.0041     0.0020 C.2     
   4 C4            -1.2508    -0.7543     0.1205 C.2     
   5 C5            -1.3862    -2.1135     0.0310 C.2     
   6 S6            -2.8471    -0.0659     0.4110 S.3     
   7 C7            -3.5481    -1.6813     0.3766 C.2     
   8 N8            -2.6015    -2.5625     0.1688 N.2     
   9 C9            -4.9365    -1.9845     0.5531 C.1     
  10 C10           -6.0747    -2.2331     0.6978 C.1     
  11 C11           -7.4631    -2.5364     0.8742 C.ar    
  12 C12           -7.9039    -3.8623     0.8264 C.ar    
  13 C13           -9.2445    -4.1465     0.9980 C.ar    
  14 C14          -10.1506    -3.1203     1.2170 C.ar    
  15 C15           -9.7198    -1.8067     1.2652 C.ar    
  16 C16           -8.3832    -1.5085     1.1009 C.ar    
  17 O17            1.0534    -0.5184     0.3361 O.2     
  18 F18           -9.6737    -5.4267     0.9519 F       
  19 C19           -1.2455     1.8407    -1.0146 C.3     
  20 C20           -0.9682     2.3676    -2.4261 C.3     
  21 C21            0.2174     3.3344    -2.3816 C.3     
  22 C22            1.4672     2.5970    -1.8821 C.3     
  23 C23            0.4755     3.8892    -3.7839 C.3     
  24 H24            1.0839     2.9117     0.2176 H       
  25 H25            2.0561     1.4622    -0.1443 H       
  26 H26           -0.5446    -2.7679    -0.1420 H       
  27 H27           -7.1983    -4.6619     0.6554 H       
  28 H28          -11.1980    -3.3476     1.3503 H       
  29 H29          -10.4315    -1.0125     1.4359 H       
  30 H30           -8.0492    -0.4821     1.1389 H       
  31 H31           -2.0231     1.0781    -1.0555 H       
  32 H32           -1.5693     2.6619    -0.3751 H       
  33 H33           -0.7324     1.5329    -3.0862 H       
  34 H34           -1.8493     2.8895    -2.7992 H       
  35 H35           -0.0093     4.1560    -1.7022 H       
  36 H36            2.3149     3.2821    -1.8738 H       
  37 H37            1.6834     1.7580    -2.5435 H       
  38 H38           -0.4112     4.4174    -4.1345 H       
  39 H39            1.3198     4.5778    -3.7524 H       
  40 H40            0.7017     3.0678    -4.4637 H       
@<TRIPOS>BOND
   1    1    3 am
   2    1   19 1
   3    1    2 1
   4    2   22 1
   5    2   24 1
   6    2   25 1
   7    3    4 1
   8    3   17 2
   9    4    5 2
  10    4    6 1
  11    5    8 1
  12    5   26 1
  13    6    7 1
  14    7    8 2
  15    7    9 1
  16    9   10 3
  17   10   11 1
  18   11   12 ar
  19   11   16 ar
  20   12   13 ar
  21   12   27 1
  22   13   14 ar
  23   13   18 1
  24   14   15 ar
  25   14   28 1
  26   15   16 ar
  27   15   29 1
  28   16   30 1
  29   19   20 1
  30   19   31 1
  31   19   32 1
  32   20   21 1
  33   20   33 1
  34   20   34 1
  35   21   22 1
  36   21   23 1
  37   21   35 1
  38   22   36 1
  39   22   37 1
  40   23   38 1
  41   23   39 1
  42   23   40 1

#	End of record

