#	Name: ASD01410976
#	Creating user name:	WinNT
#	Creation time:	15. 06. 2019 19:19

#	Modifying user name:	WinNT
#	Modification time:	15. 06. 2019 19:19

#	Program:	/corina/corina34_cracker 3.40 0067  02.08.2006

@<TRIPOS>MOLECULE
ASD01410976
  56   59    0    0    0
SMALL
NO_CHARGES


@<TRIPOS>ATOM
   1 C1            -0.0225     1.8097     0.0120 C.ar    
   2 P2             0.0021    -0.0041     0.0020 P.3     
   3 N3             0.0243    -0.5590     1.5451 N.pl3   
   4 O4            -1.2061    -0.5101    -0.6869 O.2     
   5 C5             0.0452    -1.9289     1.7920 C.2     
   6 C6             0.0645    -2.4575     3.0623 C.2     
   7 S7             0.0864    -4.2132     2.9705 S.3     
   8 C8             0.0687    -4.1612     1.2135 C.2     
   9 C9             0.0426    -2.8674     0.7868 C.2     
  10 C10            0.0663    -1.7050     4.2570 C.2     
  11 O11            0.0500    -0.4885     4.2102 O.2     
  12 O12            0.0861    -2.3344     5.4513 O.3     
  13 C13            0.0755    -5.3448     0.3306 C.ar    
  14 C14            0.0971    -6.6284     0.8828 C.ar    
  15 C15            0.1035    -7.7312     0.0599 C.ar    
  16 C16            0.0889    -7.5677    -1.3276 C.ar    
  17 C17            0.0678    -6.2845    -1.8798 C.ar    
  18 C18            0.0546    -5.1816    -1.0571 C.ar    
  19 O19            1.3165    -0.5187    -0.7723 O.3     
  20 C20            1.5888    -0.2019    -2.1389 C.3     
  21 C21            0.0960    -8.7155    -2.1838 C.1     
  22 C22            1.1649     2.5170     0.0045 C.ar    
  23 C23            1.1461     3.8994     0.0121 C.ar    
  24 C24           -0.0600     4.5741     0.0268 C.ar    
  25 C25           -1.2478     3.8666     0.0335 C.ar    
  26 C26           -1.2291     2.4847     0.0214 C.ar    
  27 C27           -0.0805     6.0810     0.0362 C.3     
  28 C28            2.4800     1.7814    -0.0116 C.3     
  29 C29            0.1019    -9.6565    -2.8858 C.1     
  30 C30            0.1092   -10.8364    -3.7659 C.3     
  31 C31            0.0925   -10.5913    -5.2760 C.3     
  32 C32            1.3690   -11.0906    -4.5962 C.3     
  33 H33            0.0227     0.0673     2.2858 H       
  34 H34            0.0243    -2.5998    -0.2594 H       
  35 H35            0.0857    -1.7363     6.2112 H       
  36 H36            0.1091    -6.7548     1.9553 H       
  37 H37            0.1201    -8.7232     0.4865 H       
  38 H38            0.0572    -6.1583    -2.9523 H       
  39 H39            0.0331    -4.1897    -1.4839 H       
  40 H40            2.5312    -0.6610    -2.4375 H       
  41 H41            0.7839    -0.5828    -2.7675 H       
  42 H42            1.6589     0.8797    -2.2541 H       
  43 H43            2.0740     4.4521     0.0069 H       
  44 H44           -2.1903     4.3939     0.0453 H       
  45 H45           -2.1570     1.9320     0.0227 H       
  46 H46           -0.0945     6.4505    -0.9892 H       
  47 H47           -0.9707     6.4290     0.5600 H       
  48 H48            0.8090     6.4533     0.5445 H       
  49 H49            2.7875     1.6092    -1.0431 H       
  50 H50            3.2364     2.3781     0.4982 H       
  51 H51            2.3675     0.8247     0.4985 H       
  52 H52           -0.4308   -11.7059    -3.3911 H       
  53 H53           -0.4583   -11.2998    -5.8948 H       
  54 H54            0.0760    -9.5564    -5.6178 H       
  55 H55            2.1923   -10.3841    -4.4907 H       
  56 H56            1.6580   -12.1275    -4.7676 H       
@<TRIPOS>BOND
   1    1    2 1
   2    1   22 ar
   3    1   26 ar
   4    2    3 1
   5    2    4 2
   6    2   19 1
   7    3    5 1
   8    3   33 1
   9    5    6 2
  10    5    9 1
  11    6    7 1
  12    6   10 1
  13    7    8 1
  14    8    9 2
  15    8   13 1
  16    9   34 1
  17   10   11 2
  18   10   12 1
  19   12   35 1
  20   13   14 ar
  21   13   18 ar
  22   14   15 ar
  23   14   36 1
  24   15   16 ar
  25   15   37 1
  26   16   17 ar
  27   16   21 1
  28   17   18 ar
  29   17   38 1
  30   18   39 1
  31   19   20 1
  32   20   40 1
  33   20   41 1
  34   20   42 1
  35   21   29 3
  36   22   23 ar
  37   22   28 1
  38   23   24 ar
  39   23   43 1
  40   24   25 ar
  41   24   27 1
  42   25   26 ar
  43   25   44 1
  44   26   45 1
  45   27   46 1
  46   27   47 1
  47   27   48 1
  48   28   49 1
  49   28   50 1
  50   28   51 1
  51   29   30 1
  52   30   31 1
  53   30   32 1
  54   30   52 1
  55   31   32 1
  56   31   53 1
  57   31   54 1
  58   32   55 1
  59   32   56 1

#	End of record

