#	Name: ASD01478110
#	Creating user name:	WinNT
#	Creation time:	15. 06. 2019 19:21

#	Modifying user name:	WinNT
#	Modification time:	15. 06. 2019 19:21

#	Program:	/corina/corina34_cracker 3.40 0067  02.08.2006

@<TRIPOS>MOLECULE
ASD01478110
  22   23    0    0    0
SMALL
NO_CHARGES


@<TRIPOS>ATOM
   1 C1            -0.0188     1.5376     0.0105 C.3     
   2 C2             0.0021    -0.0041     0.0020 C.3     
   3 C3             1.1796    -0.3874     0.9110 C.3     
   4 C4             2.1352     0.8211     0.9117 C.3     
   5 C5             1.4951     1.8875    -0.0021 C.3     
   6 C6            -1.8185     1.4696     1.6102 C.3     
   7 C7            -1.6753    -0.0530     1.7237 C.3     
   8 O8            -0.5499     2.0162     1.2486 O.3     
   9 O9            -1.2175    -0.5534     0.4654 O.3     
  10 O10            3.4115     0.4367     0.3964 O.3     
  11 H11           -0.5436     1.9458    -0.8533 H       
  12 H12            0.1911    -0.3611    -1.0104 H       
  13 H13            0.8236    -0.5839     1.9223 H       
  14 H14            1.6878    -1.2666     0.5149 H       
  15 H15            2.2427     1.2119     1.9236 H       
  16 H16            1.8956     1.8140    -1.0132 H       
  17 H17            1.6596     2.8860     0.4031 H       
  18 H18           -2.5548     1.7130     0.8442 H       
  19 H19           -2.1356     1.8809     2.5686 H       
  20 H20           -0.9522    -0.2974     2.5018 H       
  21 H21           -2.6412    -0.4961     1.9662 H       
  22 H22            4.0581     1.1552     0.3712 H       
@<TRIPOS>BOND
   1    1    2 1
   2    1    5 1
   3    1    8 1
   4    1   11 1
   5    2    3 1
   6    2    9 1
   7    2   12 1
   8    3    4 1
   9    3   13 1
  10    3   14 1
  11    4    5 1
  12    4   10 1
  13    4   15 1
  14    5   16 1
  15    5   17 1
  16    6    7 1
  17    6    8 1
  18    6   18 1
  19    6   19 1
  20    7    9 1
  21    7   20 1
  22    7   21 1
  23   10   22 1

#	End of record

