#	Name: ASD05430030
#	Creating user name:	WinNT
#	Creation time:	15. 06. 2019 20:59

#	Modifying user name:	WinNT
#	Modification time:	15. 06. 2019 20:59

#	Program:	/corina/corina34_cracker 3.40 0067  02.08.2006

@<TRIPOS>MOLECULE
ASD05430030
  62   68    0    0    0
SMALL
NO_CHARGES


@<TRIPOS>ATOM
   1 C1             0.0711     1.1527     0.4452 C.ar    
   2 C2             0.0204    -0.0146    -0.3185 C.ar    
   3 C3             1.1538    -0.4686    -0.9805 C.ar    
   4 C4             2.3352     0.2322    -0.8869 C.ar    
   5 C5             2.3920     1.4017    -0.1242 C.ar    
   6 C6             1.2446     1.8575     0.5441 C.ar    
   7 C7             4.8622    -0.0095     0.2050 C.3     
   8 C8             4.8238     1.4960     0.0670 C.2     
   9 C9             3.6531     2.1540    -0.0208 C.2     
  10 C10            6.1997    -0.4487     0.7913 C.3     
  11 C11            6.8634     0.5850     1.6991 C.3     
  12 N12            7.0850     1.8131     0.9354 N.pl3   
  13 C13            6.1059     2.2215     0.0320 C.2     
  14 N14           -1.1784    -0.7313    -0.4173 N.pl3   
  15 C15           -1.9725    -1.1232     0.6132 C.2     
  16 C16           -1.7759    -1.1653    -1.5727 C.2     
  17 C17           -2.9032    -1.8069    -1.2115 C.2     
  18 N18           -2.9984    -1.7661     0.1259 N.2     
  19 C19           -3.8896    -2.4555    -2.1481 C.3     
  20 C20            8.2875     2.6286     1.0998 C.3     
  21 C21            8.6841     3.1847    -0.2723 C.3     
  22 O22            7.5741     3.8460    -0.8705 O.3     
  23 N23            6.3334     3.1813    -0.8039 N.2     
  24 C24            8.0039     3.7665     2.0462 C.ar    
  25 C25            8.9540     4.1439     2.9769 C.ar    
  26 C26            8.6952     5.1876     3.8450 C.ar    
  27 C27            7.4838     5.8553     3.7825 C.ar    
  28 C28            6.5331     5.4764     2.8500 C.ar    
  29 C29            6.7961     4.4358     1.9794 C.ar    
  30 F30            7.2296     6.8754     4.6310 F       
  31 C31            6.1639    -1.8588     1.4029 C.3     
  32 O32            7.4273    -2.0549     0.7352 O.3     
  33 C33            7.1587    -1.0406    -0.2545 C.3     
  34 C34            0.6299     2.9029     1.4361 C.3     
  35 C35           -0.6730     2.1237     1.3232 C.3     
  36 H36            1.1085    -1.3729    -1.5693 H       
  37 H37            3.2164    -0.1214    -1.4015 H       
  38 H38            4.0555    -0.3327     0.8629 H       
  39 H39            4.7304    -0.4657    -0.7761 H       
  40 H40            3.6388     3.2338    -0.0153 H       
  41 H41            6.2137     0.7956     2.5486 H       
  42 H42            7.8186     0.1989     2.0547 H       
  43 H43           -1.7858    -0.9347     1.6601 H       
  44 H44           -1.4123    -1.0201    -2.5792 H       
  45 H45           -3.6052    -3.4949    -2.3124 H       
  46 H46           -4.8867    -2.4166    -1.7096 H       
  47 H47           -3.8903    -1.9242    -3.0999 H       
  48 H48            9.0966     2.0144     1.4950 H       
  49 H49            9.5046     3.8920    -0.1524 H       
  50 H50            9.0062     2.3655    -0.9151 H       
  51 H51            9.8986     3.6227     3.0257 H       
  52 H52            9.4374     5.4820     4.5722 H       
  53 H53            5.5878     5.9964     2.8003 H       
  54 H54            6.0547     4.1401     1.2519 H       
  55 H55            6.2333    -1.8698     2.4907 H       
  56 H56            5.3596    -2.4862     1.0187 H       
  57 H57            6.6600    -1.4168    -1.1477 H       
  58 H58            8.0151    -0.4044    -0.4779 H       
  59 H59            1.0472     2.9177     2.4429 H       
  60 H60            0.5841     3.8925     0.9814 H       
  61 H61           -1.4631     2.6672     0.8050 H       
  62 H62           -1.0051     1.6897     2.2663 H       
@<TRIPOS>BOND
   1    1    2 ar
   2    1    6 ar
   3    1   35 1
   4    2    3 ar
   5    2   14 1
   6    3    4 ar
   7    3   36 1
   8    4    5 ar
   9    4   37 1
  10    5    6 ar
  11    5    9 1
  12    6   34 1
  13    7    8 1
  14    7   10 1
  15    7   38 1
  16    7   39 1
  17    8    9 2
  18    8   13 1
  19    9   40 1
  20   10   11 1
  21   10   31 1
  22   10   33 1
  23   11   12 1
  24   11   41 1
  25   11   42 1
  26   12   13 1
  27   12   20 1
  28   13   23 2
  29   14   15 1
  30   14   16 1
  31   15   18 2
  32   15   43 1
  33   16   17 2
  34   16   44 1
  35   17   18 1
  36   17   19 1
  37   19   45 1
  38   19   46 1
  39   19   47 1
  40   20   21 1
  41   20   24 1
  42   20   48 1
  43   21   22 1
  44   21   49 1
  45   21   50 1
  46   22   23 1
  47   24   25 ar
  48   24   29 ar
  49   25   26 ar
  50   25   51 1
  51   26   27 ar
  52   26   52 1
  53   27   28 ar
  54   27   30 1
  55   28   29 ar
  56   28   53 1
  57   29   54 1
  58   31   32 1
  59   31   55 1
  60   31   56 1
  61   32   33 1
  62   33   57 1
  63   33   58 1
  64   34   35 1
  65   34   59 1
  66   34   60 1
  67   35   61 1
  68   35   62 1

#	End of record

