#	Name: ASD01913655
#	Creating user name:	WinNT
#	Creation time:	15. 06. 2019 20:02

#	Modifying user name:	WinNT
#	Modification time:	15. 06. 2019 20:02

#	Program:	/corina/corina34_cracker 3.40 0067  02.08.2006

@<TRIPOS>MOLECULE
ASD01913655
  40   42    0    0    0
SMALL
NO_CHARGES


@<TRIPOS>ATOM
   1 C1            -0.1075     1.2415    -0.1281 C.ar    
   2 C2            -0.0914    -0.1412    -0.0627 C.ar    
   3 C3            -1.2793    -0.8422     0.0269 C.ar    
   4 C4            -2.4830    -0.1631     0.0508 C.ar    
   5 C5            -2.5003     1.2179    -0.0145 C.ar    
   6 C6            -1.3137     1.9211    -0.0978 C.ar    
   7 C7            -3.8135     1.9567     0.0111 C.3     
   8 O8            -4.1661     2.2546     1.3635 O.3     
   9 C9            -5.3284     2.9217     1.5635 C.ar    
  10 N10           -6.0727     3.2624     0.5227 N.ar    
  11 C11           -7.2096     3.9110     0.6653 C.ar    
  12 C12           -7.6719     4.2647     1.9333 C.ar    
  13 C13           -6.9071     3.9185     3.0572 C.ar    
  14 C14           -5.7257     3.2339     2.8603 C.ar    
  15 C15           -8.9465     4.9927     2.0899 C.2     
  16 N16           -9.2882     5.9509     1.2058 N.am    
  17 O17           -9.6880     4.7278     3.0163 O.2     
  18 F18            1.0530     1.9277    -0.2157 F       
  19 C19          -10.6063     6.6023     1.2666 C.3     
  20 C20          -10.3966     8.1207     1.2440 C.3     
  21 O21           -9.5690     8.4651     0.1304 O.3     
  22 C22           -8.2542     7.9063     0.1834 C.3     
  23 C23           -8.3519     6.3809     0.1552 C.3     
  24 H24            0.8490    -0.6720    -0.0820 H       
  25 H25           -1.2670    -1.9209     0.0780 H       
  26 H26           -3.4107    -0.7117     0.1201 H       
  27 H27           -1.3274     2.9998    -0.1485 H       
  28 H28           -3.7192     2.8849    -0.5526 H       
  29 H29           -4.5885     1.3358    -0.4381 H       
  30 H30           -7.7896     4.1720    -0.2075 H       
  31 H31           -7.2371     4.1777     4.0524 H       
  32 H32           -5.1117     2.9509     3.7025 H       
  33 H33          -11.2045     6.3015     0.4065 H       
  34 H34          -11.1154     6.3157     2.1868 H       
  35 H35          -11.3609     8.6200     1.1491 H       
  36 H36           -9.9124     8.4352     2.1685 H       
  37 H37           -7.6771     8.2513    -0.6745 H       
  38 H38           -7.7621     8.2200     1.1041 H       
  39 H39           -7.3689     5.9466     0.3371 H       
  40 H40           -8.7238     6.0548    -0.8161 H       
@<TRIPOS>BOND
   1    1    2 ar
   2    1   18 1
   3    1    6 ar
   4    2    3 ar
   5    2   24 1
   6    3    4 ar
   7    3   25 1
   8    4    5 ar
   9    4   26 1
  10    5    6 ar
  11    5    7 1
  12    6   27 1
  13    7    8 1
  14    7   28 1
  15    7   29 1
  16    8    9 1
  17    9   10 ar
  18    9   14 ar
  19   10   11 ar
  20   11   12 ar
  21   11   30 1
  22   12   13 ar
  23   12   15 1
  24   13   14 ar
  25   13   31 1
  26   14   32 1
  27   15   16 am
  28   15   17 2
  29   16   19 1
  30   16   23 1
  31   19   20 1
  32   19   33 1
  33   19   34 1
  34   20   21 1
  35   20   35 1
  36   20   36 1
  37   21   22 1
  38   22   23 1
  39   22   37 1
  40   22   38 1
  41   23   39 1
  42   23   40 1

#	End of record

