#	Name: ASD02030443
#	Creating user name:	WinNT
#	Creation time:	15. 06. 2019 20:15

#	Modifying user name:	WinNT
#	Modification time:	15. 06. 2019 20:15

#	Program:	/corina/corina34_cracker 3.40 0067  02.08.2006

@<TRIPOS>MOLECULE
ASD02030443
  55   57    0    0    0
SMALL
NO_CHARGES


@<TRIPOS>ATOM
   1 N1             0.3775     1.4972     0.1772 N.am    
   2 C2             0.2045     0.0401     0.0934 C.3     
   3 C3             0.8904    -0.4622    -1.1832 C.3     
   4 N4             2.2497     0.0940    -1.2359 N.am    
   5 C5             2.4226     1.5510    -1.1521 C.3     
   6 C6             1.7368     2.0533     0.1245 C.3     
   7 C7            -0.6918     2.3092     0.2947 C.2     
   8 O8            -1.8112     1.8381     0.3321 O.2     
   9 O9            -0.5195     3.6423     0.3705 O.3     
  10 C10            3.3186    -0.7178    -1.3584 C.2     
  11 O11            3.1754    -1.9237    -1.3045 O.2     
  12 N12            6.7657     0.0211    -1.7593 N.pl3   
  13 N13            5.8003    -0.8067    -1.5520 N.2     
  14 C14            4.6652    -0.1415    -1.5585 C.2     
  15 N15            4.9460     1.1558    -1.7801 N.2     
  16 C16            6.2449     1.2569    -1.9044 C.2     
  17 C17            8.1271    -0.3062    -1.8180 C.ar    
  18 C18            8.5342    -1.6224    -1.6457 C.ar    
  19 C19            9.8766    -1.9419    -1.7047 C.ar    
  20 C20           10.8149    -0.9525    -1.9345 C.ar    
  21 C21           10.4126     0.3594    -2.1061 C.ar    
  22 C22            9.0711     0.6842    -2.0544 C.ar    
  23 C23            0.9612    -1.9903    -1.1607 C.3     
  24 C24            0.0984     0.0007    -2.4077 C.3     
  25 C25           -1.7159     4.4555     0.4958 C.3     
  26 C26           -2.4670     4.0649     1.7702 C.3     
  27 C27           -1.3234     5.9326     0.5676 C.3     
  28 C28           -2.6180     4.2260    -0.7185 C.3     
  29 H29            0.6597    -0.4329     0.9636 H       
  30 H30           -0.8579    -0.2007     0.0569 H       
  31 H31            3.4851     1.7918    -1.1155 H       
  32 H32            1.9675     2.0240    -2.0222 H       
  33 H33            1.6863     3.1420     0.1085 H       
  34 H34            2.3010     1.7235     0.9969 H       
  35 H35            6.7992     2.1650    -2.0898 H       
  36 H36            7.8020    -2.3956    -1.4655 H       
  37 H37           10.1939    -2.9655    -1.5707 H       
  38 H38           11.8640    -1.2047    -1.9798 H       
  39 H39           11.1477     1.1301    -2.2847 H       
  40 H40            8.7572     1.7083    -2.1928 H       
  41 H41           -0.0463    -2.3998    -1.0873 H       
  42 H42            1.4319    -2.3457    -2.0774 H       
  43 H43            1.5486    -2.3142    -0.3015 H       
  44 H44            0.0571     1.0898    -2.4233 H       
  45 H45            0.5876    -0.3574    -3.3135 H       
  46 H46           -0.9139    -0.4006    -2.3586 H       
  47 H47           -1.8243     4.2284     2.6353 H       
  48 H48           -3.3651     4.6753     1.8643 H       
  49 H49           -2.7466     3.0126     1.7191 H       
  50 H50           -0.7884     6.2109    -0.3404 H       
  51 H51           -2.2215     6.5430     0.6616 H       
  52 H52           -0.6807     6.0961     1.4326 H       
  53 H53           -2.8977     3.1737    -0.7696 H       
  54 H54           -3.5161     4.8364    -0.6244 H       
  55 H55           -2.0830     4.5043    -1.6264 H       
@<TRIPOS>BOND
   1    1    2 1
   2    1    6 1
   3    1    7 am
   4    2    3 1
   5    2   29 1
   6    2   30 1
   7    3    4 1
   8    3   23 1
   9    3   24 1
  10    4    5 1
  11    4   10 am
  12    5    6 1
  13    5   31 1
  14    5   32 1
  15    6   33 1
  16    6   34 1
  17    7    8 2
  18    7    9 1
  19    9   25 1
  20   10   11 2
  21   10   14 1
  22   12   13 1
  23   12   16 1
  24   12   17 1
  25   13   14 2
  26   14   15 1
  27   15   16 2
  28   16   35 1
  29   17   18 ar
  30   17   22 ar
  31   18   19 ar
  32   18   36 1
  33   19   20 ar
  34   19   37 1
  35   20   21 ar
  36   20   38 1
  37   21   22 ar
  38   21   39 1
  39   22   40 1
  40   23   41 1
  41   23   42 1
  42   23   43 1
  43   24   44 1
  44   24   45 1
  45   24   46 1
  46   25   26 1
  47   25   28 1
  48   25   27 1
  49   26   47 1
  50   26   48 1
  51   26   49 1
  52   27   50 1
  53   27   51 1
  54   27   52 1
  55   28   53 1
  56   28   54 1
  57   28   55 1

#	End of record

