#	Name: ASD02508019
#	Creating user name:	WinNT
#	Creation time:	15. 06. 2019 20:23

#	Modifying user name:	WinNT
#	Modification time:	15. 06. 2019 20:23

#	Program:	/corina/corina34_cracker 3.40 0067  02.08.2006

@<TRIPOS>MOLECULE
ASD02508019
  53   56    0    0    0
SMALL
NO_CHARGES


@<TRIPOS>ATOM
   1 C1            -0.4189     0.9142     0.4039 C.3     
   2 C2            -0.0747    -0.5139     0.4879 C.3     
   3 C3             1.0119    -0.7794     1.5434 C.3     
   4 N4             2.2780    -0.4132     0.9768 N.am    
   5 C5             2.8714     0.9380     1.1722 C.3     
   6 C6             1.7538     2.0073     1.0941 C.3     
   7 N7             0.7839     1.7157     0.0758 N.am    
   8 C8             0.7810     4.9798    -1.1900 C.ar    
   9 C9             0.1598     3.8131    -1.5933 C.ar    
  10 C10            0.1141     6.1920    -1.2885 C.ar    
  11 C11           -1.1789     6.2301    -1.7965 C.ar    
  12 C12           -1.7968     5.0553    -2.1988 C.ar    
  13 C13           -1.1273     3.8507    -2.0965 C.ar    
  14 O14            0.7360     7.3319    -0.8805 O.3     
  15 C15            0.1800     8.5684    -1.3407 C.3     
  16 C16           -1.3416     8.5122    -1.1493 C.3     
  17 O17           -1.8486     7.4096    -1.9090 O.3     
  18 C18            3.4427    -0.2828    -2.3272 C.ar    
  19 C19            2.7222    -1.2243    -1.6153 C.ar    
  20 C20            3.1443    -0.0410    -3.6538 C.ar    
  21 C21            2.1190    -0.7447    -4.2729 C.ar    
  22 C22            1.3972    -1.6897    -3.5548 C.ar    
  23 C23            1.7012    -1.9269    -2.2287 C.ar    
  24 N24            1.8143    -0.5023    -5.6143 N.pl3   
  25 S25            3.1063    -1.5297     0.0769 S.o2    
  26 O26            4.4861    -1.2293     0.2358 O.2     
  27 O27            2.5452    -2.7962     0.3935 O.2     
  28 S28            1.0099     2.2749    -1.4664 S.o2    
  29 O29            2.3945     2.5706    -1.5872 O.2     
  30 O30            0.3308     1.3691    -2.3253 O.2     
  31 H31           -1.1713     1.0589    -0.3713 H       
  32 H32           -0.8226     1.2448     1.3609 H       
  33 H33           -0.9689    -1.0799     0.7489 H       
  34 H34            0.2853    -0.8501    -0.4844 H       
  35 H35            0.8178    -0.1781     2.4316 H       
  36 H36            1.0185    -1.8369     1.8077 H       
  37 H37            3.3527     0.9859     2.1490 H       
  38 H38            3.6101     1.1267     0.3932 H       
  39 H39            1.2480     2.0597     2.0582 H       
  40 H40            2.2067     2.9759     0.8826 H       
  41 H41            1.7851     4.9471    -0.7935 H       
  42 H42           -2.8024     5.0819    -2.5920 H       
  43 H43           -1.6104     2.9371    -2.4103 H       
  44 H44            0.5929     9.3949    -0.7622 H       
  45 H45            0.4128     8.7057    -2.3966 H       
  46 H46           -1.5744     8.3694    -0.0941 H       
  47 H47           -1.7911     9.4400    -1.5031 H       
  48 H48            4.2367     0.2671    -1.8441 H       
  49 H49            3.7072     0.6947    -4.2091 H       
  50 H50            0.5998    -2.2388    -4.0332 H       
  51 H51            1.1407    -2.6618    -1.6699 H       
  52 H52            2.3665     0.1011    -6.1357 H       
  53 H53            1.0505    -0.9374    -6.0244 H       
@<TRIPOS>BOND
   1    1    2 1
   2    1    7 1
   3    1   31 1
   4    1   32 1
   5    2    3 1
   6    2   33 1
   7    2   34 1
   8    3    4 1
   9    3   35 1
  10    3   36 1
  11    4    5 1
  12    4   25 am
  13    5    6 1
  14    5   37 1
  15    5   38 1
  16    6    7 1
  17    6   39 1
  18    6   40 1
  19    7   28 am
  20    8    9 ar
  21    8   10 ar
  22    8   41 1
  23    9   28 1
  24    9   13 ar
  25   10   11 ar
  26   10   14 1
  27   11   12 ar
  28   11   17 1
  29   12   13 ar
  30   12   42 1
  31   13   43 1
  32   14   15 1
  33   15   16 1
  34   15   44 1
  35   15   45 1
  36   16   17 1
  37   16   46 1
  38   16   47 1
  39   18   19 ar
  40   18   20 ar
  41   18   48 1
  42   19   25 1
  43   19   23 ar
  44   20   21 ar
  45   20   49 1
  46   21   22 ar
  47   21   24 1
  48   22   23 ar
  49   22   50 1
  50   23   51 1
  51   24   52 1
  52   24   53 1
  53   25   26 2
  54   25   27 2
  55   28   29 2
  56   28   30 2

#	End of record

