#	Name: ASD00071069
#	Creating user name:	WinNT
#	Creation time:	15. 06. 2019 18:30

#	Modifying user name:	WinNT
#	Modification time:	15. 06. 2019 18:30

#	Program:	/corina/corina34_cracker 3.40 0067  02.08.2006

@<TRIPOS>MOLECULE
ASD00071069
  41   43    0    0    0
SMALL
NO_CHARGES


@<TRIPOS>ATOM
   1 N1             2.2069     0.6741    -1.5641 N.2     
   2 C2             2.2961    -0.1328    -0.5350 C.2     
   3 N3             1.1627    -0.6867     0.0131 N.pl3   
   4 C4            -0.0910     0.0812    -0.0330 C.3     
   5 C5            -0.1814     0.7438    -1.3866 C.ar    
   6 C6            -1.4052     1.0762    -1.9236 C.ar    
   7 C7            -1.4726     1.6942    -3.1606 C.ar    
   8 C8            -0.3138     1.9803    -3.8609 C.ar    
   9 C9             0.9172     1.6473    -3.3350 C.ar    
  10 C10            0.9929     1.0199    -2.0898 C.ar    
  11 N11            3.5261    -0.4267    -0.0023 N.pl3   
  12 C12            1.2032    -2.0148     0.6301 C.3     
  13 C13            0.7646    -3.0489    -0.3746 C.ar    
  14 C14            1.6804    -3.5788    -1.2704 C.ar    
  15 C15            1.2741    -4.5310    -2.1946 C.ar    
  16 C16           -0.0420    -4.9509    -2.2224 C.ar    
  17 C17           -0.9567    -4.4243    -1.3306 C.ar    
  18 C18           -0.5540    -3.4761    -0.4007 C.ar    
  19 O19           -1.4528    -2.9626     0.4798 O.3     
  20 C20           -2.7939    -3.4486     0.3956 C.3     
  21 O21            2.9748    -3.1659    -1.2438 O.3     
  22 C22            3.8633    -3.7545    -2.1958 C.3     
  23 H23           -0.9391    -0.5891     0.1066 H       
  24 H24           -0.0874     0.8401     0.7493 H       
  25 H25           -2.3119     0.8546    -1.3803 H       
  26 H26           -2.4331     1.9536    -3.5809 H       
  27 H27           -0.3735     2.4662    -4.8236 H       
  28 H28            1.8195     1.8712    -3.8845 H       
  29 H29            4.3320    -0.1088    -0.4385 H       
  30 H30            3.5896    -0.9523     0.8105 H       
  31 H31            2.2202    -2.2332     0.9559 H       
  32 H32            0.5336    -2.0366     1.4899 H       
  33 H33            1.9870    -4.9438    -2.8929 H       
  34 H34           -0.3564    -5.6917    -2.9426 H       
  35 H35           -1.9848    -4.7541    -1.3543 H       
  36 H36           -3.1971    -3.2328    -0.5938 H       
  37 H37           -2.8014    -4.5255     0.5640 H       
  38 H38           -3.4063    -2.9583     1.1523 H       
  39 H39            3.8968    -4.8332    -2.0430 H       
  40 H40            3.5084    -3.5413    -3.2041 H       
  41 H41            4.8622    -3.3380    -2.0665 H       
@<TRIPOS>BOND
   1    1    2 2
   2    1   10 1
   3    2    3 1
   4    2   11 1
   5    3    4 1
   6    3   12 1
   7    4    5 1
   8    4   23 1
   9    4   24 1
  10    5    6 ar
  11    5   10 ar
  12    6    7 ar
  13    6   25 1
  14    7    8 ar
  15    7   26 1
  16    8    9 ar
  17    8   27 1
  18    9   10 ar
  19    9   28 1
  20   11   29 1
  21   11   30 1
  22   12   13 1
  23   12   31 1
  24   12   32 1
  25   13   14 ar
  26   13   18 ar
  27   14   15 ar
  28   14   21 1
  29   15   16 ar
  30   15   33 1
  31   16   17 ar
  32   16   34 1
  33   17   18 ar
  34   17   35 1
  35   18   19 1
  36   19   20 1
  37   20   36 1
  38   20   37 1
  39   20   38 1
  40   21   22 1
  41   22   39 1
  42   22   40 1
  43   22   41 1

#	End of record

