#	Name: ASD01001098
#	Creating user name:	WinNT
#	Creation time:	15. 06. 2019 18:55

#	Modifying user name:	WinNT
#	Modification time:	15. 06. 2019 18:55

#	Program:	/corina/corina34_cracker 3.40 0067  02.08.2006

@<TRIPOS>MOLECULE
ASD01001098
  56   59    0    0    0
SMALL
NO_CHARGES


@<TRIPOS>ATOM
   1 C1            -1.4881     1.4694     1.3220 C.2     
   2 N2            -1.1200     0.1628     1.0572 N.pl3   
   3 N3            -2.0270    -0.6730     0.3936 N.2     
   4 C4            -3.1894    -0.2470     0.0290 C.2     
   5 N5            -3.6144     1.0371     0.2619 N.am    
   6 C6            -2.8142     1.9191     0.9008 C.2     
   7 C7            -0.4374     2.0784     1.9737 C.2     
   8 C8             0.5717     1.1185     2.0984 C.2     
   9 C9             0.1255    -0.0322     1.5323 C.2     
  10 O10           -3.1838     3.0603     1.1114 O.2     
  11 C11           -4.9477     1.4530    -0.1804 C.3     
  12 C12           -5.9345     1.2514     0.9406 C.ar    
  13 C13           -6.0736     2.2162     1.9208 C.ar    
  14 C14           -6.9787     2.0313     2.9491 C.ar    
  15 C15           -7.7450     0.8818     2.9970 C.ar    
  16 C16           -7.6065    -0.0826     2.0163 C.ar    
  17 C17           -6.7045     0.1043     0.9856 C.ar    
  18 C18           -4.1176    -1.1980    -0.6817 C.3     
  19 N19           -3.4190    -2.4591    -0.9421 N.am    
  20 H20           -4.9905    -1.3884    -0.0573 H       
  21 C21           -3.4006    -3.5105     0.0779 C.3     
  22 C22           -2.7931    -2.6520    -2.1201 C.2     
  23 C23           -2.8774    -1.6242    -3.1787 C.ar    
  24 O24           -2.1593    -3.6714    -2.3118 O.2     
  25 C25           -2.5709    -0.2932    -2.8892 C.ar    
  26 C26           -2.6515     0.6613    -3.8811 C.ar    
  27 C27           -3.0356     0.3019    -5.1624 C.ar    
  28 C28           -3.3409    -1.0169    -5.4556 C.ar    
  29 C29           -3.2584    -1.9814    -4.4735 C.ar    
  30 Cl30          -3.1352     1.5094    -6.4057 Cl      
  31 C31           -4.5347    -4.5017    -0.1909 C.3     
  32 C32           -4.5155    -5.5998     0.8744 C.3     
  33 N33           -5.6044    -6.5514     0.6163 N.3     
  34 Cl34          -0.3781     3.7211     2.5322 Cl      
  35 H35            1.5355     1.2662     2.5629 H       
  36 H36            0.6806    -0.9568     1.4729 H       
  37 H37           -4.9256     2.5063    -0.4599 H       
  38 H38           -5.2481     0.8550    -1.0408 H       
  39 H39           -5.4749     3.1143     1.8834 H       
  40 H40           -7.0869     2.7847     3.7153 H       
  41 H41           -8.4516     0.7370     3.8008 H       
  42 H42           -8.2050    -0.9808     2.0539 H       
  43 H43           -6.5963    -0.6491     0.2194 H       
  44 H44           -4.4358    -0.7571    -1.6264 H       
  45 H45           -2.4450    -4.0337     0.0433 H       
  46 H46           -3.5346    -3.0635     1.0629 H       
  47 H47           -2.2717    -0.0118    -1.8904 H       
  48 H48           -2.4150     1.6913    -3.6583 H       
  49 H49           -3.6401    -1.2912    -6.4564 H       
  50 H50           -3.4964    -3.0094    -4.7033 H       
  51 H51           -5.4903    -3.9786    -0.1563 H       
  52 H52           -4.4007    -4.9487    -1.1759 H       
  53 H53           -3.5599    -6.1229     0.8398 H       
  54 H54           -4.6496    -5.1527     1.8594 H       
  55 H55           -5.6131    -7.2870     1.3069 H       
  56 H56           -6.4956    -6.0798     0.5791 H       
@<TRIPOS>BOND
   1    1    2 1
   2    1    7 2
   3    1    6 1
   4    2    3 1
   5    2    9 1
   6    3    4 2
   7    4    5 1
   8    4   18 1
   9    5    6 am
  10    5   11 1
  11    6   10 2
  12    7    8 1
  13    7   34 1
  14    8    9 2
  15    8   35 1
  16    9   36 1
  17   11   12 1
  18   11   37 1
  19   11   38 1
  20   12   13 ar
  21   12   17 ar
  22   13   14 ar
  23   13   39 1
  24   14   15 ar
  25   14   40 1
  26   15   16 ar
  27   15   41 1
  28   16   17 ar
  29   16   42 1
  30   17   43 1
  31   18   19 1
  32   18   20 1
  33   18   44 1
  34   19   21 1
  35   19   22 am
  36   21   31 1
  37   21   45 1
  38   21   46 1
  39   22   23 1
  40   22   24 2
  41   23   25 ar
  42   23   29 ar
  43   25   26 ar
  44   25   47 1
  45   26   27 ar
  46   26   48 1
  47   27   28 ar
  48   27   30 1
  49   28   29 ar
  50   28   49 1
  51   29   50 1
  52   31   32 1
  53   31   51 1
  54   31   52 1
  55   32   33 1
  56   32   53 1
  57   32   54 1
  58   33   55 1
  59   33   56 1

#	End of record

