#	Name: ASD04878002
#	Creating user name:	WinNT
#	Creation time:	15. 06. 2019 20:52

#	Modifying user name:	WinNT
#	Modification time:	15. 06. 2019 20:52

#	Program:	/corina/corina34_cracker 3.40 0067  02.08.2006

@<TRIPOS>MOLECULE
ASD04878002
  47   50    0    0    0
SMALL
NO_CHARGES


@<TRIPOS>ATOM
   1 N1             0.1164     1.5916    -0.2567 N.am    
   2 S2             0.0854    -0.0715    -0.1305 S.o2    
   3 C3             1.4273    -0.4237     0.9633 C.2     
   4 C4             2.4564     0.4836     1.1151 C.2     
   5 C5             2.4879     1.7660     0.3822 C.ar    
   6 C6             1.3471     2.2559    -0.2712 C.ar    
   7 C7             3.6760     2.4935     0.3420 C.ar    
   8 C8             3.7352     3.6966    -0.3522 C.ar    
   9 C9             2.6014     4.1735    -1.0100 C.ar    
  10 C10            1.4244     3.4601    -0.9678 C.ar    
  11 N11            2.8132    -1.3015     2.3960 N.2     
  12 N12            3.3210    -0.0510     2.0034 N.pl3   
  13 C13            1.6780    -1.5122     1.7651 C.2     
  14 C14           -1.1337     2.3488    -0.3576 C.3     
  15 C15            5.0003     4.4704    -0.3936 C.ar    
  16 C16            5.0600     5.6764    -1.0893 C.ar    
  17 C17            6.2395     6.3921    -1.1245 C.ar    
  18 C18            7.3611     5.9145    -0.4709 C.ar    
  19 C19            7.3077     4.7178     0.2208 C.ar    
  20 C20            6.1318     3.9969     0.2679 C.ar    
  21 C21            8.6462     6.7005    -0.5130 C.3     
  22 C22            8.6871     7.6745     0.6662 C.3     
  23 C23            4.5656     0.5622     2.4739 C.3     
  24 C24            5.7157     0.1545     1.5510 C.3     
  25 O25           -1.1107    -0.4136     0.5562 O.2     
  26 O26            0.4408    -0.5913    -1.4044 O.2     
  27 H27            4.5527     2.1219     0.8517 H       
  28 H28            2.6467     5.1055    -1.5538 H       
  29 H29            0.5520     3.8379    -1.4801 H       
  30 H30            1.0521    -2.3872     1.8605 H       
  31 H31           -1.9784     1.6603    -0.3339 H       
  32 H32           -1.2068     3.0426     0.4799 H       
  33 H33           -1.1459     2.9068    -1.2938 H       
  34 H34            4.1849     6.0501    -1.6003 H       
  35 H35            6.2870     7.3267    -1.6637 H       
  36 H36            8.1866     4.3492     0.7288 H       
  37 H37            6.0897     3.0652     0.8126 H       
  38 H38            9.4926     6.0167    -0.4490 H       
  39 H39            8.7001     7.2589    -1.4476 H       
  40 H40            9.6166     8.2430     0.6357 H       
  41 H41            7.8407     8.3583     0.6022 H       
  42 H42            8.6332     7.1161     1.6007 H       
  43 H43            4.4613     1.6472     2.4670 H       
  44 H44            4.7764     0.2239     3.4884 H       
  45 H45            6.6417     0.6107     1.9010 H       
  46 H46            5.8200    -0.9305     1.5579 H       
  47 H47            5.5049     0.4927     0.5365 H       
@<TRIPOS>BOND
   1    1    2 am
   2    1    6 1
   3    1   14 1
   4    2    3 1
   5    2   25 2
   6    2   26 2
   7    3    4 2
   8    3   13 1
   9    4    5 1
  10    4   12 1
  11    5    6 ar
  12    5    7 ar
  13    6   10 ar
  14    7    8 ar
  15    7   27 1
  16    8    9 ar
  17    8   15 1
  18    9   10 ar
  19    9   28 1
  20   10   29 1
  21   11   12 1
  22   11   13 2
  23   12   23 1
  24   13   30 1
  25   14   31 1
  26   14   32 1
  27   14   33 1
  28   15   16 ar
  29   15   20 ar
  30   16   17 ar
  31   16   34 1
  32   17   18 ar
  33   17   35 1
  34   18   19 ar
  35   18   21 1
  36   19   20 ar
  37   19   36 1
  38   20   37 1
  39   21   22 1
  40   21   38 1
  41   21   39 1
  42   22   40 1
  43   22   41 1
  44   22   42 1
  45   23   24 1
  46   23   43 1
  47   23   44 1
  48   24   45 1
  49   24   46 1
  50   24   47 1

#	End of record

