#	Name: ASD01916190
#	Creating user name:	WinNT
#	Creation time:	15. 06. 2019 20:06

#	Modifying user name:	WinNT
#	Modification time:	15. 06. 2019 20:06

#	Program:	/corina/corina34_cracker 3.40 0067  02.08.2006

@<TRIPOS>MOLECULE
ASD01916190
  42   44    0    0    0
SMALL
NO_CHARGES


@<TRIPOS>ATOM
   1 C1            -0.3869     1.7173     0.1124 C.ar    
   2 C2            -0.5138     0.3666     0.3818 C.ar    
   3 N3             0.5329    -0.3592     0.7133 N.ar    
   4 C4             1.7490     0.1671     0.8034 C.ar    
   5 C5             1.9566     1.5187     0.5473 C.ar    
   6 C6             0.8689     2.3132     0.1941 C.ar    
   7 C7            -1.8705    -0.2835     0.2949 C.3     
   8 O8             1.0289     3.6361    -0.0643 O.3     
   9 C9             2.2787     4.1600     0.0401 C.ar    
  10 C10            3.2180     3.9711    -0.9684 C.ar    
  11 N11            4.4238     4.4971    -0.8293 N.ar    
  12 C12            4.7390     5.1913     0.2456 C.ar    
  13 N13            3.8773     5.3921     1.2223 N.ar    
  14 C14            2.6497     4.9038     1.1556 C.ar    
  15 C15            2.8948    -0.6928     1.1804 C.2     
  16 N16            2.7006    -2.0029     1.4303 N.am    
  17 O17            4.0098    -0.2170     1.2645 O.2     
  18 C18            3.7915    -2.8338     1.6816 C.ar    
  19 C19            3.5957    -4.2027     1.8228 C.ar    
  20 C20            4.6865    -5.0171     2.0717 C.ar    
  21 C21            5.9424    -4.4305     2.1712 C.ar    
  22 C22            6.0629    -3.0608     2.0196 C.ar    
  23 N23            5.0041    -2.3120     1.7780 N.ar    
  24 C24           -1.8047    -1.4752    -0.6624 C.3     
  25 F25            7.0335    -5.1894     2.4137 F       
  26 C26            7.4212    -2.4169     2.1261 C.3     
  27 H27           -1.2519     2.3025    -0.1628 H       
  28 H28            2.9460     1.9453     0.6217 H       
  29 H29           -2.1723    -0.6282     1.2839 H       
  30 H30           -2.5971     0.4400    -0.0751 H       
  31 H31            2.9667     3.4030    -1.8519 H       
  32 H32            5.7322     5.6072     0.3288 H       
  33 H33            1.9470     5.0765     1.9574 H       
  34 H34            1.8018    -2.3677     1.4352 H       
  35 H35            2.6052    -4.6251     1.7397 H       
  36 H36            4.5646    -6.0841     2.1863 H       
  37 H37           -2.7860    -1.9454    -0.7253 H       
  38 H38           -1.5029    -1.1305    -1.6515 H       
  39 H39           -1.0781    -2.1987    -0.2925 H       
  40 H40            7.8867    -2.3856     1.1410 H       
  41 H41            7.3132    -1.4022     2.5093 H       
  42 H42            8.0461    -2.9970     2.8050 H       
@<TRIPOS>BOND
   1    1    2 ar
   2    1    6 ar
   3    1   27 1
   4    2    3 ar
   5    2    7 1
   6    3    4 ar
   7    4    5 ar
   8    4   15 1
   9    5    6 ar
  10    5   28 1
  11    6    8 1
  12    7   24 1
  13    7   29 1
  14    7   30 1
  15    8    9 1
  16    9   10 ar
  17    9   14 ar
  18   10   11 ar
  19   10   31 1
  20   11   12 ar
  21   12   13 ar
  22   12   32 1
  23   13   14 ar
  24   14   33 1
  25   15   16 am
  26   15   17 2
  27   16   18 1
  28   16   34 1
  29   18   19 ar
  30   18   23 ar
  31   19   20 ar
  32   19   35 1
  33   20   21 ar
  34   20   36 1
  35   21   22 ar
  36   21   25 1
  37   22   23 ar
  38   22   26 1
  39   24   37 1
  40   24   38 1
  41   24   39 1
  42   26   40 1
  43   26   41 1
  44   26   42 1

#	End of record

