#	Name: ASD07930674
#	Creating user name:	WinNT
#	Creation time:	15. 06. 2019 21:12

#	Modifying user name:	WinNT
#	Modification time:	15. 06. 2019 21:12

#	Program:	/corina/corina34_cracker 3.40 0067  02.08.2006

@<TRIPOS>MOLECULE
ASD07930674
  40   42    0    0    0
SMALL
NO_CHARGES


@<TRIPOS>ATOM
   1 C1            -0.0178     1.4608     0.0101 C.3     
   2 N2             0.8031    -0.4153    -2.1619 N.2     
   3 N3            -0.8796    -1.7833    -1.2911 N.pl3   
   4 C4            -0.9005    -2.8248    -0.2586 C.3     
   5 C5            -1.2102    -2.1834     1.1010 C.3     
   6 S6             0.0275    -0.8859     1.4156 S.o2    
   7 N7             0.0021    -0.0041     0.0020 N.am    
   8 C8             0.0002    -0.7257    -1.1832 C.2     
   9 C9             0.4646    -3.5132    -0.1997 C.3     
  10 O10           -0.4323     0.0192     2.4099 O.2     
  11 O11            1.3354    -1.4387     1.4687 O.2     
  12 C12           -1.9634    -3.8404    -0.5898 C.2     
  13 S13           -3.3417    -4.2316     0.4300 S.3     
  14 C14           -3.9134    -5.4124    -0.7414 C.2     
  15 C15           -3.0707    -5.4466    -1.7930 C.2     
  16 C16           -2.0037    -4.5754    -1.7055 C.2     
  17 C17           -5.1297    -6.2401    -0.5951 C.ar    
  18 C18           -5.4827    -7.1448    -1.5937 C.ar    
  19 C19           -6.6312    -7.9213    -1.4476 C.ar    
  20 C20           -7.4198    -7.7873    -0.3023 C.ar    
  21 C21           -7.0637    -6.8883     0.6834 C.ar    
  22 C22           -5.9244    -6.1205     0.5475 C.ar    
  23 C23           -7.0020    -8.8537    -2.4693 C.1     
  24 N24           -7.2961    -9.5933    -3.2798 N.1     
  25 Cl25          -0.7963    -4.4527    -2.9468 Cl      
  26 H26            1.0048     1.8381     0.0023 H       
  27 H27           -0.5450     1.8219    -0.8730 H       
  28 H28           -0.5280     1.8123     0.9069 H       
  29 H29            0.7883    -0.9307    -2.9835 H       
  30 H30           -1.4804    -1.8399    -2.0505 H       
  31 H31           -2.2071    -1.7432     1.0811 H       
  32 H32           -1.1573    -2.9394     1.8845 H       
  33 H33            1.2322    -2.7780     0.0418 H       
  34 H34            0.4485    -4.2871     0.5677 H       
  35 H35            0.6857    -3.9650    -1.1667 H       
  36 H36           -3.2208    -6.1010    -2.6389 H       
  37 H37           -4.8695    -7.2441    -2.4772 H       
  38 H38           -8.3101    -8.3879    -0.1878 H       
  39 H39           -7.6768    -6.7886     1.5669 H       
  40 H40           -5.6515    -5.4196     1.3225 H       
@<TRIPOS>BOND
   1    1    7 1
   2    1   26 1
   3    1   27 1
   4    1   28 1
   5    2    8 2
   6    2   29 1
   7    3    4 1
   8    3    8 1
   9    3   30 1
  10    4    5 1
  11    4    9 1
  12    4   12 1
  13    5    6 1
  14    5   31 1
  15    5   32 1
  16    6    7 am
  17    6   10 2
  18    6   11 2
  19    7    8 1
  20    9   33 1
  21    9   34 1
  22    9   35 1
  23   12   13 1
  24   12   16 2
  25   13   14 1
  26   14   15 2
  27   14   17 1
  28   15   16 1
  29   15   36 1
  30   16   25 1
  31   17   18 ar
  32   17   22 ar
  33   18   19 ar
  34   18   37 1
  35   19   20 ar
  36   19   23 1
  37   20   21 ar
  38   20   38 1
  39   21   22 ar
  40   21   39 1
  41   22   40 1
  42   23   24 3

#	End of record

