#	Name: ASD03430586
#	Creating user name:	WinNT
#	Creation time:	15. 06. 2019 20:41

#	Modifying user name:	WinNT
#	Modification time:	15. 06. 2019 20:41

#	Program:	/corina/corina34_cracker 3.40 0067  02.08.2006

@<TRIPOS>MOLECULE
ASD03430586
  47   51    0    0    0
SMALL
NO_CHARGES


@<TRIPOS>ATOM
   1 N1            -0.0161     1.3395     0.0094 N.am    
   2 C2             0.0021    -0.0041     0.0020 C.2     
   3 C3             1.4548    -0.4299    -0.0141 C.3     
   4 C4             2.2198     0.8735    -0.0144 C.ar    
   5 C5             3.5643     1.1698    -0.0261 C.ar    
   6 C6             3.9803     2.4906    -0.0234 C.ar    
   7 C7             3.0416     3.5073    -0.0089 C.ar    
   8 C8             1.6943     3.2123     0.0032 C.ar    
   9 C9             1.2684     1.8853     0.0001 C.ar    
  10 O10           -0.9637    -0.7377     0.0077 O.2     
  11 C11           -1.2434     2.1395     0.0197 C.3     
  12 C12           -1.6569     2.4066     1.4440 C.ar    
  13 C13           -1.2735     3.5846     2.0572 C.ar    
  14 C14           -1.6596     3.8208     3.3675 C.ar    
  15 C15           -2.4203     2.8590     4.0150 C.ar    
  16 C16           -2.7658     1.7053     3.3375 C.ar    
  17 N17           -2.3849     1.5164     2.0891 N.ar    
  18 O18            2.6856    -3.4247     4.6058 O.3     
  19 C19            2.8151    -4.8423     4.4530 C.3     
  20 C20            3.6859    -5.1148     3.2190 C.3     
  21 O21            3.0411    -4.5362     2.0791 O.3     
  22 C22            2.5688    -3.2666     2.2219 C.ar    
  23 C23            2.3895    -2.7127     3.4842 C.ar    
  24 C24            2.2656    -2.5235     1.0915 C.ar    
  25 C25            1.7829    -1.2344     1.2172 C.ar    
  26 C26            1.6007    -0.6808     2.4753 C.ar    
  27 C27            1.9041    -1.4200     3.6084 C.ar    
  28 O28            1.1250     0.5872     2.5978 O.3     
  29 O29            1.7435    -1.1802    -1.1956 O.3     
  30 Br30           5.8255     2.9037    -0.0387 Br      
  31 H31            4.2935     0.3732    -0.0369 H       
  32 H32            3.3658     4.5375    -0.0068 H       
  33 H33            0.9678     4.0113     0.0147 H       
  34 H34           -1.0643     3.0861    -0.4902 H       
  35 H35           -2.0364     1.5950    -0.4929 H       
  36 H36           -0.6804     4.3117     1.5224 H       
  37 H37           -1.3744     4.7321     3.8722 H       
  38 H38           -2.7384     3.0096     5.0361 H       
  39 H39           -3.3580     0.9514     3.8348 H       
  40 H40            3.2894    -5.2657     5.3384 H       
  41 H41            1.8304    -5.2885     4.3139 H       
  42 H42            4.6682    -4.6623     3.3549 H       
  43 H43            3.7927    -6.1899     3.0746 H       
  44 H44            2.4064    -2.9529     0.1105 H       
  45 H45            1.7618    -0.9887     4.5883 H       
  46 H46            0.1610     0.6422     2.6507 H       
  47 H47            1.2343    -1.9983    -1.2762 H       
@<TRIPOS>BOND
   1    1    2 am
   2    1    9 1
   3    1   11 1
   4    2    3 1
   5    2   10 2
   6    3    4 1
   7    3   25 1
   8    3   29 1
   9    4    5 ar
  10    4    9 ar
  11    5    6 ar
  12    5   31 1
  13    6    7 ar
  14    6   30 1
  15    7    8 ar
  16    7   32 1
  17    8    9 ar
  18    8   33 1
  19   11   12 1
  20   11   34 1
  21   11   35 1
  22   12   13 ar
  23   12   17 ar
  24   13   14 ar
  25   13   36 1
  26   14   15 ar
  27   14   37 1
  28   15   16 ar
  29   15   38 1
  30   16   17 ar
  31   16   39 1
  32   18   19 1
  33   18   23 1
  34   19   20 1
  35   19   40 1
  36   19   41 1
  37   20   21 1
  38   20   42 1
  39   20   43 1
  40   21   22 1
  41   22   23 ar
  42   22   24 ar
  43   23   27 ar
  44   24   25 ar
  45   24   44 1
  46   25   26 ar
  47   26   27 ar
  48   26   28 1
  49   27   45 1
  50   28   46 1
  51   29   47 1

#	End of record

