#	Name: ASD08150659
#	Creating user name:	WinNT
#	Creation time:	15. 06. 2019 21:16

#	Modifying user name:	WinNT
#	Modification time:	15. 06. 2019 21:16

#	Program:	/corina/corina34_cracker 3.40 0067  02.08.2006

@<TRIPOS>MOLECULE
ASD08150659
  64   70    0    0    0
SMALL
NO_CHARGES


@<TRIPOS>ATOM
   1 N1             0.0705     1.4657     0.2848 N.am    
   2 C2             0.2035     0.1468     0.5149 C.2     
   3 C3             1.4698    -0.4692     0.5627 C.2     
   4 C4             2.5954     0.2686     0.3751 C.2     
   5 C5             2.4542     1.7010     0.1250 C.ar    
   6 C6             3.5740     2.5276    -0.0788 C.ar    
   7 N7             3.4369     3.8091    -0.3020 N.ar    
   8 C8             2.2355     4.4044    -0.3498 C.ar    
   9 C9             1.0532     3.6480    -0.1560 C.ar    
  10 C10            1.1667     2.2595     0.0880 C.ar    
  11 C11           -0.1935     4.2790    -0.2070 C.ar    
  12 C12           -0.2591     5.6419    -0.4473 C.ar    
  13 C13            0.9151     6.3838    -0.6385 C.ar    
  14 C14            2.1348     5.7844    -0.5920 C.ar    
  15 O15           -0.7951    -0.5312     0.6864 O.2     
  16 C16           -1.5774     6.3191    -0.5029 C.ar    
  17 C17           -1.2070     2.0320     0.2404 C.ar    
  18 C18           -1.6840     2.7545     1.3284 C.ar    
  19 C19           -2.9426     3.3140     1.2870 C.ar    
  20 C20           -3.7384     3.1549     0.1521 C.ar    
  21 C21           -3.2576     2.4297    -0.9378 C.ar    
  22 C22           -1.9958     1.8765    -0.8935 C.ar    
  23 C23           -5.0925     3.7551     0.1051 C.ar    
  24 C24           -2.7616     5.5657    -0.4645 C.ar    
  25 N25           -3.9385     6.1364    -0.5116 N.ar    
  26 C26           -4.0721     7.4642    -0.5985 C.ar    
  27 C27           -2.9233     8.2938    -0.6421 C.ar    
  28 C28           -1.6496     7.7021    -0.5875 C.ar    
  29 C29           -5.9995     3.5112     1.1374 C.ar    
  30 C30           -7.2573     4.0681     1.0949 C.ar    
  31 C31           -7.6261     4.8786     0.0174 C.ar    
  32 C32           -6.7166     5.1225    -1.0158 C.ar    
  33 C33           -5.4577     4.5685    -0.9685 C.ar    
  34 C34           -8.9746     5.4758    -0.0297 C.2     
  35 O35           -9.7648     5.2632     0.8683 O.2     
  36 O36           -9.3296     6.2570    -1.0685 O.3     
  37 C37           -5.3449     8.0589    -0.6485 C.ar    
  38 C38           -5.4561     9.4124    -0.7373 C.ar    
  39 C39           -4.3256    10.2260    -0.7799 C.ar    
  40 C40           -3.0761     9.6877    -0.7342 C.ar    
  41 C41           -4.1145     2.2559    -2.1653 C.3     
  42 F42           -3.5008     1.3511    -3.0382 F       
  43 F43           -5.3701     1.7649    -1.7917 F       
  44 F44           -4.2681     3.4904    -2.8054 F       
  45 H45            1.5461    -1.5302     0.7494 H       
  46 H46            3.5712    -0.1929     0.4103 H       
  47 H47            4.5640     2.0968    -0.0502 H       
  48 H48           -1.0986     3.7082    -0.0604 H       
  49 H49            0.8500     7.4454    -0.8258 H       
  50 H50            3.0290     6.3713    -0.7412 H       
  51 H51           -1.0677     2.8771     2.2067 H       
  52 H52           -3.3128     3.8749     2.1324 H       
  53 H53           -1.6214     1.3183    -1.7388 H       
  54 H54           -2.6998     4.4897    -0.3949 H       
  55 H55           -0.7542     8.3051    -0.6185 H       
  56 H56           -5.7143     2.8850     1.9698 H       
  57 H57           -7.9592     3.8786     1.8935 H       
  58 H58           -7.0006     5.7482    -1.8489 H       
  59 H59           -4.7548     4.7571    -1.7664 H       
  60 H60          -10.2234     6.6258    -1.0552 H       
  61 H61           -6.2319     7.4435    -0.6169 H       
  62 H62           -6.4367     9.8633    -0.7757 H       
  63 H63           -4.4422    11.2974    -0.8507 H       
  64 H64           -2.2072    10.3282    -0.7677 H       
@<TRIPOS>BOND
   1    1    2 am
   2    1   10 1
   3    1   17 1
   4    2    3 1
   5    2   15 2
   6    3    4 2
   7    3   45 1
   8    4    5 1
   9    4   46 1
  10    5    6 ar
  11    5   10 ar
  12    6    7 ar
  13    6   47 1
  14    7    8 ar
  15    8    9 ar
  16    8   14 ar
  17    9   10 ar
  18    9   11 ar
  19   11   12 ar
  20   11   48 1
  21   12   13 ar
  22   12   16 1
  23   13   14 ar
  24   13   49 1
  25   14   50 1
  26   16   24 ar
  27   16   28 ar
  28   17   18 ar
  29   17   22 ar
  30   18   19 ar
  31   18   51 1
  32   19   20 ar
  33   19   52 1
  34   20   21 ar
  35   20   23 1
  36   21   22 ar
  37   21   41 1
  38   22   53 1
  39   23   29 ar
  40   23   33 ar
  41   24   25 ar
  42   24   54 1
  43   25   26 ar
  44   26   27 ar
  45   26   37 ar
  46   27   28 ar
  47   27   40 ar
  48   28   55 1
  49   29   30 ar
  50   29   56 1
  51   30   31 ar
  52   30   57 1
  53   31   32 ar
  54   31   34 1
  55   32   33 ar
  56   32   58 1
  57   33   59 1
  58   34   35 2
  59   34   36 1
  60   36   60 1
  61   37   38 ar
  62   37   61 1
  63   38   39 ar
  64   38   62 1
  65   39   40 ar
  66   39   63 1
  67   40   64 1
  68   41   42 1
  69   41   43 1
  70   41   44 1

#	End of record

