#	Name: ASD01901255
#	Creating user name:	WinNT
#	Creation time:	15. 06. 2019 19:53

#	Modifying user name:	WinNT
#	Modification time:	15. 06. 2019 19:53

#	Program:	/corina/corina34_cracker 3.40 0067  02.08.2006

@<TRIPOS>MOLECULE
ASD01901255
  45   48    0    0    0
SMALL
NO_CHARGES


@<TRIPOS>ATOM
   1 C1             0.4999     1.4293    -0.5471 C.ar    
   2 C2             0.5669     0.0532    -0.6097 C.ar    
   3 C3             1.7948    -0.5846    -0.5943 C.ar    
   4 C4             2.9638     0.1518    -0.5160 C.ar    
   5 C5             2.9126     1.5286    -0.4532 C.ar    
   6 C6             1.6762     2.1797    -0.4684 C.ar    
   7 C7             1.6148     3.6089    -0.4035 C.1     
   8 C8             1.5645     4.7806    -0.3503 C.1     
   9 C9             1.5032     6.2099    -0.2855 C.ar    
  10 C10            0.2099     8.2365    -0.2318 C.ar    
  11 C11            0.2653     6.8591    -0.2949 C.ar    
  12 C12            2.6809     6.9588    -0.2067 C.ar    
  13 C13            2.6179     8.3359    -0.1439 C.ar    
  14 C14            1.3843     8.9789    -0.1584 C.ar    
  15 F15           -0.9860     8.8648    -0.2413 F       
  16 N16            1.3242    10.3785    -0.0944 N.am    
  17 C17            1.2582    10.9510     1.1275 C.2     
  18 C18            1.7757    12.9937    -0.0406 C.2     
  19 N19            1.5535    12.4017    -1.2918 N.am    
  20 C20            1.3416    11.0585    -1.2498 C.2     
  21 O21            1.1631    10.4568    -2.2909 O.2     
  22 O22            1.3434    10.2827     2.1356 O.2     
  23 F23            3.7556     9.0605    -0.0678 F       
  24 N24            2.5441    14.0763     1.7474 N.pl3   
  25 C25            2.5317    13.9786     0.3577 C.2     
  26 C26            1.0759    12.4453     1.2001 C.3     
  27 N27            1.7923    13.0766     2.3096 N.3     
  28 C28            1.5450    13.1666    -2.5412 C.3     
  29 C29            2.6454    12.1046     3.0063 C.3     
  30 H30           -0.4590     1.9259    -0.5634 H       
  31 H31           -0.3413    -0.5281    -0.6706 H       
  32 H32            1.8411    -1.6625    -0.6432 H       
  33 H33            3.9186    -0.3528    -0.5037 H       
  34 H34            3.8257     2.1021    -0.3918 H       
  35 H35           -0.6467     6.2834    -0.3519 H       
  36 H36            3.6388     6.4602    -0.1947 H       
  37 H37            3.0183    14.7585     2.2480 H       
  38 H38            3.0787    14.6323    -0.3056 H       
  39 H39            0.0184    12.7096     1.2044 H       
  40 H40            2.5529    13.1973    -2.9553 H       
  41 H41            0.8734    12.6894    -3.2549 H       
  42 H42            1.2026    14.1823    -2.3431 H       
  43 H43            3.3177    12.6311     3.6837 H       
  44 H44            2.0214    11.4161     3.5761 H       
  45 H45            3.2302    11.5453     2.2760 H       
@<TRIPOS>BOND
   1    1    2 ar
   2    1    6 ar
   3    1   30 1
   4    2    3 ar
   5    2   31 1
   6    3    4 ar
   7    3   32 1
   8    4    5 ar
   9    4   33 1
  10    5    6 ar
  11    5   34 1
  12    6    7 1
  13    7    8 3
  14    8    9 1
  15    9   12 ar
  16    9   11 ar
  17   10   11 ar
  18   10   14 ar
  19   10   15 1
  20   11   35 1
  21   12   13 ar
  22   12   36 1
  23   13   14 ar
  24   13   23 1
  25   14   16 1
  26   16   17 am
  27   16   20 am
  28   17   26 1
  29   17   22 2
  30   18   19 1
  31   18   26 1
  32   18   25 2
  33   19   20 am
  34   19   28 1
  35   20   21 2
  36   24   25 1
  37   24   27 1
  38   24   37 1
  39   25   38 1
  40   26   27 1
  41   26   39 1
  42   27   29 1
  43   28   40 1
  44   28   41 1
  45   28   42 1
  46   29   43 1
  47   29   44 1
  48   29   45 1

#	End of record

