#	Name: ASD08178415
#	Creating user name:	WinNT
#	Creation time:	15. 06. 2019 21:18

#	Modifying user name:	WinNT
#	Modification time:	15. 06. 2019 21:18

#	Program:	/corina/corina34_cracker 3.40 0067  02.08.2006

@<TRIPOS>MOLECULE
ASD08178415
  65   68    0    0    0
SMALL
NO_CHARGES


@<TRIPOS>ATOM
   1 C1             4.1070    -3.8691    -2.0266 C.ar    
   2 C2             4.1720    -2.5068    -1.7716 C.ar    
   3 C3             5.1312    -1.7335    -2.3959 C.ar    
   4 C4             6.0260    -2.3159    -3.2747 C.ar    
   5 C5             5.9634    -3.6730    -3.5305 C.ar    
   6 C6             5.0097    -4.4520    -2.9038 C.ar    
   7 C7             3.1965    -1.8713    -0.8147 C.3     
   8 C8             3.7108    -2.0128     0.5947 C.2     
   9 N9             2.9986    -1.5153     1.6251 N.am    
  10 O10            4.7656    -2.5744     0.8018 O.2     
  11 C11            3.4187    -1.7395     2.9357 C.ar    
  12 C12            2.7474    -1.1381     3.9985 C.ar    
  13 N13            4.4544    -2.5296     3.1765 N.ar    
  14 N14            4.8721    -2.7619     4.3676 N.ar    
  15 C15            4.2999    -2.2311     5.4304 C.ar    
  16 C16            3.2041    -1.3932     5.2826 C.ar    
  17 C17            4.8326    -2.5394     6.8060 C.3     
  18 C18            4.8699    -4.0552     7.0106 C.3     
  19 C19            5.4107    -4.3681     8.4072 C.3     
  20 C20            5.4480    -5.8839     8.6118 C.3     
  21 C21            5.9807    -6.1922     9.9874 C.2     
  22 N22            5.2778    -6.3212    11.0676 N.2     
  23 N23            5.9130    -6.5813    12.1272 N.2     
  24 C24            7.2041    -6.6960    12.0436 C.2     
  25 S25            7.6728    -6.4496    10.4143 S.3     
  26 N26            8.0630    -6.9777    13.1004 N.am    
  27 C27            7.5685    -7.1575    14.3412 C.2     
  28 C28            8.4993    -7.4628    15.4864 C.3     
  29 O29            6.3744    -7.0736    14.5361 O.2     
  30 C30            7.7009    -7.6172    16.7552 C.ar    
  31 C31            7.2170    -8.8596    17.1204 C.ar    
  32 C32            6.4846    -9.0012    18.2842 C.ar    
  33 C33            6.2364    -7.9006    19.0830 C.ar    
  34 C34            6.7211    -6.6585    18.7182 C.ar    
  35 C35            7.4572    -6.5176    17.5566 C.ar    
  36 O36            3.1641    -4.6321    -1.4137 O.3     
  37 C37            3.1563    -6.0271    -1.7237 C.3     
  38 F38            4.3861    -6.5909    -1.3673 F       
  39 F39            2.1304    -6.6574    -1.0114 F       
  40 F40            2.9449    -6.1986    -3.0960 F       
  41 H41            5.1821    -0.6730    -2.1977 H       
  42 H42            6.7749    -1.7094    -3.7624 H       
  43 H43            6.6634    -4.1255    -4.2173 H       
  44 H44            4.9612    -5.5122    -3.1040 H       
  45 H45            3.0863    -0.8143    -1.0568 H       
  46 H46            2.2291    -2.3664    -0.8999 H       
  47 H47            2.1938    -1.0013     1.4550 H       
  48 H48            1.8982    -0.4931     3.8273 H       
  49 H49            2.7235    -0.9496     6.1420 H       
  50 H50            5.8397    -2.1345     6.9048 H       
  51 H51            4.1840    -2.0873     7.5565 H       
  52 H52            3.8627    -4.4600     6.9119 H       
  53 H53            5.5184    -4.5072     6.2602 H       
  54 H54            6.4179    -3.9632     8.5060 H       
  55 H55            4.7622    -3.9161     9.1577 H       
  56 H56            4.4409    -6.2888     8.5131 H       
  57 H57            6.0966    -6.3360     7.8614 H       
  58 H58            9.0181    -7.0448    12.9445 H       
  59 H59            9.0371    -8.3883    15.2807 H       
  60 H60            9.2121    -6.6465    15.6028 H       
  61 H61            7.4108    -9.7194    16.4964 H       
  62 H62            6.1059    -9.9717    18.5692 H       
  63 H63            5.6636    -8.0111    19.9919 H       
  64 H64            6.5269    -5.7985    19.3421 H       
  65 H65            7.8358    -5.5472    17.2716 H       
@<TRIPOS>BOND
   1    1    2 ar
   2    1   36 1
   3    1    6 ar
   4    2    3 ar
   5    2    7 1
   6    3    4 ar
   7    3   41 1
   8    4    5 ar
   9    4   42 1
  10    5    6 ar
  11    5   43 1
  12    6   44 1
  13    7    8 1
  14    7   45 1
  15    7   46 1
  16    8    9 am
  17    8   10 2
  18    9   11 1
  19    9   47 1
  20   11   12 ar
  21   11   13 ar
  22   12   16 ar
  23   12   48 1
  24   13   14 ar
  25   14   15 ar
  26   15   16 ar
  27   15   17 1
  28   16   49 1
  29   17   18 1
  30   17   50 1
  31   17   51 1
  32   18   19 1
  33   18   52 1
  34   18   53 1
  35   19   20 1
  36   19   54 1
  37   19   55 1
  38   20   21 1
  39   20   56 1
  40   20   57 1
  41   21   22 2
  42   21   25 1
  43   22   23 1
  44   23   24 2
  45   24   25 1
  46   24   26 1
  47   26   27 am
  48   26   58 1
  49   27   28 1
  50   27   29 2
  51   28   30 1
  52   28   59 1
  53   28   60 1
  54   30   31 ar
  55   30   35 ar
  56   31   32 ar
  57   31   61 1
  58   32   33 ar
  59   32   62 1
  60   33   34 ar
  61   33   63 1
  62   34   35 ar
  63   34   64 1
  64   35   65 1
  65   36   37 1
  66   37   38 1
  67   37   39 1
  68   37   40 1

#	End of record

