#	Name: ASD01120292
#	Creating user name:	WinNT
#	Creation time:	15. 06. 2019 18:59

#	Modifying user name:	WinNT
#	Modification time:	15. 06. 2019 18:59

#	Program:	/corina/corina34_cracker 3.40 0067  02.08.2006

@<TRIPOS>MOLECULE
ASD01120292
  41   43    0    0    0
SMALL
NO_CHARGES


@<TRIPOS>ATOM
   1 C1             0.3613     1.2510     0.6216 C.3     
   2 C2             0.2693    -0.2257     0.2320 C.3     
   3 O3            -1.0762    -0.7099     0.4841 O.3     
   4 C4            -1.3265    -2.0026     0.1920 C.2     
   5 O5            -0.4437    -2.7055    -0.2611 O.2     
   6 C6            -2.6637    -2.5607     0.4209 C.2     
   7 N7            -3.7474    -1.8665     0.9291 N.pl3   
   8 C8            -4.8239    -2.7194     0.9998 C.ar    
   9 C9            -4.3987    -3.9746     0.5239 C.ar    
  10 C10           -3.0394    -3.8427     0.1623 C.2     
  11 C11           -5.3087    -5.0485     0.4848 C.ar    
  12 C12           -6.6091    -4.8565     0.9145 C.ar    
  13 C13           -7.0176    -3.6160     1.3814 C.ar    
  14 C14           -6.1390    -2.5556     1.4259 C.ar    
  15 N15           -6.5942    -1.2397     1.9286 N.pl3   
  16 O16           -7.7444    -1.0952     2.3024 O.2     
  17 O17           -5.8185    -0.3014     1.9684 O.2     
  18 N18           -4.9022    -6.2949     0.0162 N.pl3   
  19 C19           -5.7570    -7.3945     0.1241 C.ar    
  20 C20           -5.8823    -8.2854    -0.9343 C.ar    
  21 C21           -6.7281    -9.3717    -0.8240 C.ar    
  22 C22           -7.4495    -9.5731     0.3382 C.ar    
  23 C23           -7.3272    -8.6880     1.3941 C.ar    
  24 C24           -6.4796    -7.6028     1.2926 C.ar    
  25 N25           -8.1016    -8.9076     2.6363 N.pl3   
  26 O26           -8.8460    -9.8672     2.7283 O.2     
  27 O27           -7.9944    -8.1286     3.5665 O.2     
  28 H28            1.3713     1.6145     0.4323 H       
  29 H29           -0.3493     1.8279     0.0297 H       
  30 H30            0.1274     1.3627     1.6803 H       
  31 H31            0.5032    -0.3373    -0.8268 H       
  32 H32            0.9799    -0.8025     0.8238 H       
  33 H33           -3.7478    -0.9328     1.1919 H       
  34 H34           -2.4093    -4.6218    -0.2408 H       
  35 H35           -7.3107    -5.6771     0.8860 H       
  36 H36           -8.0360    -3.4798     1.7141 H       
  37 H37           -4.0254    -6.3998    -0.3852 H       
  38 H38           -5.3193    -8.1285    -1.8425 H       
  39 H39           -6.8262   -10.0646    -1.6467 H       
  40 H40           -8.1104   -10.4232     0.4217 H       
  41 H41           -6.3845    -6.9120     2.1174 H       
@<TRIPOS>BOND
   1    1    2 1
   2    1   28 1
   3    1   29 1
   4    1   30 1
   5    2    3 1
   6    2   31 1
   7    2   32 1
   8    3    4 1
   9    4    5 2
  10    4    6 1
  11    6    7 1
  12    6   10 2
  13    7    8 1
  14    7   33 1
  15    8    9 ar
  16    8   14 ar
  17    9   10 1
  18    9   11 ar
  19   10   34 1
  20   11   12 ar
  21   11   18 1
  22   12   13 ar
  23   12   35 1
  24   13   14 ar
  25   13   36 1
  26   14   15 1
  27   15   16 2
  28   15   17 2
  29   18   19 1
  30   18   37 1
  31   19   20 ar
  32   19   24 ar
  33   20   21 ar
  34   20   38 1
  35   21   22 ar
  36   21   39 1
  37   22   23 ar
  38   22   40 1
  39   23   24 ar
  40   23   25 1
  41   24   41 1
  42   25   26 2
  43   25   27 2

#	End of record

