#	Name: ASD00450047
#	Creating user name:	WinNT
#	Creation time:	15. 06. 2019 18:36

#	Modifying user name:	WinNT
#	Modification time:	15. 06. 2019 18:36

#	Program:	/corina/corina34_cracker 3.40 0067  02.08.2006

@<TRIPOS>MOLECULE
ASD00450047
  46   48    0    0    0
SMALL
NO_CHARGES


@<TRIPOS>ATOM
   1 C1            -0.6296     1.5106     0.5020 C.ar    
   2 C2            -0.6591     0.1083     0.5497 C.ar    
   3 C3             0.4992    -0.5950     0.8333 C.ar    
   4 C4             1.6860     0.0803     1.0699 C.ar    
   5 C5             1.7274     1.4635     1.0261 C.ar    
   6 C6             0.5787     2.1871     0.7434 C.ar    
   7 C7            -1.8528     2.2667     0.1958 C.2     
   8 O8            -2.5913     2.6192     1.0960 O.2     
   9 N9            -2.1559     2.5691    -1.0821 N.am    
  10 N10            0.6219     3.5750     0.6988 N.pl3   
  11 C11            1.6171     4.2667     1.3976 C.ar    
  12 C12            1.9546     5.5644     1.0280 C.ar    
  13 C13            2.2662     3.6613     2.4654 C.ar    
  14 C14            3.2482     4.3467     3.1539 C.ar    
  15 C15            3.5861     5.6354     2.7814 C.ar    
  16 C16            2.9386     6.2447     1.7217 C.ar    
  17 F17            2.8104    -0.6161     1.3457 F       
  18 F18            1.3224     6.1591    -0.0073 F       
  19 I19            5.0758     6.6698     3.8302 I       
  20 O20           -1.8190    -0.5560     0.3191 O.3     
  21 C21           -1.7941    -1.9142     0.3537 C.ar    
  22 C22           -1.7950    -2.5771     1.5713 C.ar    
  23 C23           -1.7694    -3.9644     1.6030 C.ar    
  24 C24           -1.7736    -2.6387    -0.8300 C.ar    
  25 C25           -1.7487    -4.0202    -0.7964 C.ar    
  26 N26           -1.7706    -4.6360     2.8276 N.am    
  27 C27           -1.7431    -4.6844     0.4146 C.ar    
  28 S28           -3.1587    -4.7152     3.7272 S.o2    
  29 N29           -4.2762    -5.5473     2.8321 N.am    
  30 O30           -2.8609    -5.5285     4.8538 O.2     
  31 O31           -3.6428    -3.3836     3.8361 O.2     
  32 H32            0.4777    -1.6741     0.8706 H       
  33 H33            2.6571     1.9805     1.2126 H       
  34 H34           -1.5670     2.2880    -1.7998 H       
  35 H35           -2.9629     3.0679    -1.2841 H       
  36 H36           -0.0380     4.0645     0.1832 H       
  37 H37            2.0033     2.6554     2.7576 H       
  38 H38            3.7528     3.8758     3.9846 H       
  39 H39            3.2018     7.2524     1.4358 H       
  40 H40           -1.8151    -2.0151     2.4933 H       
  41 H41           -1.7775    -2.1223    -1.7785 H       
  42 H42           -1.7331    -4.5814    -1.7190 H       
  43 H43           -0.9584    -5.0561     3.1512 H       
  44 H44           -1.7233    -5.7639     0.4379 H       
  45 H45           -4.0214    -5.9413     1.9831 H       
  46 H46           -5.1855    -5.6406     3.1567 H       
@<TRIPOS>BOND
   1    1    2 ar
   2    1    6 ar
   3    1    7 1
   4    2    3 ar
   5    2   20 1
   6    3    4 ar
   7    3   32 1
   8    4    5 ar
   9    4   17 1
  10    5    6 ar
  11    5   33 1
  12    6   10 1
  13    7    8 2
  14    7    9 am
  15    9   34 1
  16    9   35 1
  17   10   11 1
  18   10   36 1
  19   11   13 ar
  20   11   12 ar
  21   12   16 ar
  22   12   18 1
  23   13   14 ar
  24   13   37 1
  25   14   15 ar
  26   14   38 1
  27   15   16 ar
  28   15   19 1
  29   16   39 1
  30   20   21 1
  31   21   22 ar
  32   21   24 ar
  33   22   23 ar
  34   22   40 1
  35   23   27 ar
  36   23   26 1
  37   24   25 ar
  38   24   41 1
  39   25   27 ar
  40   25   42 1
  41   26   28 am
  42   26   43 1
  43   27   44 1
  44   28   29 am
  45   28   30 2
  46   28   31 2
  47   29   45 1
  48   29   46 1

#	End of record

