#	Name: ASD06610060
#	Creating user name:	WinNT
#	Creation time:	15. 06. 2019 21:07

#	Modifying user name:	WinNT
#	Modification time:	15. 06. 2019 21:07

#	Program:	/corina/corina34_cracker 3.40 0067  02.08.2006

@<TRIPOS>MOLECULE
ASD06610060
 294  294    0    0    0
SMALL
NO_CHARGES


@<TRIPOS>ATOM
   1 C1            -7.0528    -5.7542    10.9035 C.2     
   2 O2            -7.4855    -6.8451    10.5975 O.2     
   3 N3            -5.8457    -6.9249    12.6531 N.am    
   4 C4            -6.0033    -5.6342    11.9782 C.3     
   5 C5            -4.6717    -5.2228    11.3470 C.3     
   6 C6            -3.6418    -4.9682    12.4495 C.3     
   7 C7            -4.1731    -6.3433    10.4322 C.3     
   8 C8            -8.3449    -3.5666     8.2751 C.2     
   9 O9            -7.8317    -2.5491     8.6901 O.2     
  10 N10           -7.5067    -4.6497    10.2784 N.am    
  11 C11           -8.4574    -4.7733     9.1708 C.3     
  12 C12           -9.8797    -4.8645     9.7272 C.3     
  13 C13          -10.0310    -6.1576    10.5309 C.3     
  14 C14          -11.4533    -6.2488    11.0873 C.3     
  15 N15          -11.5982    -7.4870    11.8568 N.pl3   
  16 C16          -12.7985    -7.7875    12.4561 C.2     
  17 N17          -12.9274    -8.8891    13.1407 N.2     
  18 N18          -13.8629    -6.9259    12.3332 N.pl3   
  19 C19           -9.7152    -1.3835     6.6458 C.2     
  20 O20          -10.2289    -1.5167     7.7364 O.2     
  21 N21           -8.8144    -3.6182     7.0128 N.am    
  22 C22           -8.8681    -2.4898     6.0718 C.3     
  23 C23           -9.5021    -3.0124     4.7654 C.3     
  24 C24          -10.2884    -4.2640     5.2372 C.3     
  25 C25           -9.3535    -4.8168     6.3449 C.3     
  26 C26          -11.2828     1.6685     5.3845 C.2     
  27 O27          -11.0181     1.3951     4.2329 O.2     
  28 N28           -9.9021    -0.2462     5.9473 N.am    
  29 C29          -10.7256     0.8293     6.5053 C.3     
  30 C30           -9.8683     1.7055     7.4208 C.3     
  31 C31           -9.3026     0.8535     8.5588 C.3     
  32 C32           -8.7166     2.3105     6.6156 C.3     
  33 C33          -12.9194     4.9233     5.0839 C.2     
  34 O34          -12.7037     5.2015     6.2445 O.2     
  35 N35          -12.0754     2.7227     5.6618 N.am    
  36 C36          -12.6171     3.5385     4.5721 C.3     
  37 C37          -13.9026     2.8974     4.0455 C.3     
  38 C38          -14.9825     7.3589     5.3515 C.2     
  39 O39          -15.7203     6.3979     5.4067 O.2     
  40 N40          -13.4296     5.8528     4.2518 N.am    
  41 C41          -13.6210     7.2281     4.7188 C.3     
  42 C42          -13.5152     8.1888     3.5328 C.3     
  43 C43          -12.1159     8.1463     2.9751 C.2     
  44 O44          -11.2585     7.4984     3.5372 O.2     
  45 N45          -11.8172     8.8282     1.8516 N.am    
  46 C46          -17.1580    10.1057     6.3930 C.2     
  47 O47          -16.4463    10.9399     5.8749 O.2     
  48 N48          -15.3802     8.5438     5.8558 N.am    
  49 C49          -16.7038     8.6709     6.4708 C.3     
  50 C50          -16.6288     8.2385     7.9365 C.3     
  51 C51          -19.7876    12.1304     7.9257 C.2     
  52 O52          -20.0946    11.2473     8.6983 O.2     
  53 N53          -18.3553    10.4619     6.8992 N.am    
  54 C54          -18.7969    11.8567     6.8237 C.3     
  55 C55          -19.4595    12.1091     5.4679 C.3     
  56 C56          -18.4208    11.9525     4.3555 C.3     
  57 C57          -19.0835    12.2049     2.9997 C.3     
  58 N58          -18.0889    12.0550     1.9346 N.pl3   
  59 C59          -18.4549    12.2361     0.6218 C.2     
  60 N60          -17.5700    12.1027    -0.3258 N.2     
  61 N61          -19.7544    12.5578     0.3086 N.pl3   
  62 C62          -22.2773    14.7074     8.5840 C.2     
  63 O63          -21.8975    15.4731     7.7235 O.2     
  64 N64          -20.3325    13.3565     8.0529 N.am    
  65 C65          -21.3764    13.5940     9.0529 C.3     
  66 C66          -20.7292    13.9873    10.3823 C.3     
  67 C67          -21.8182    14.2102    11.4336 C.3     
  68 C68          -22.5070    12.8799    11.7444 C.3     
  69 C69          -21.1875    14.7686    12.7108 C.3     
  70 C70          -25.4098    16.2580     9.6545 C.2     
  71 O71          -25.3508    15.7492    10.7539 O.2     
  72 N72          -23.5050    14.8523     9.1208 N.am    
  73 C73          -24.4238    15.8605     8.5864 C.3     
  74 C74          -25.1769    15.2799     7.3878 C.3     
  75 C75          -24.1889    14.9920     6.2556 C.3     
  76 C76          -24.9420    14.4114     5.0569 C.3     
  77 N77          -23.9960    14.1357     3.9728 N.pl3   
  78 C78          -24.4455    13.6063     2.7863 C.2     
  79 N79          -23.6038    13.3611     1.8217 N.2     
  80 N80          -25.7827    13.3357     2.6171 N.pl3   
  81 C81          -28.5637    18.0709     9.8617 C.2     
  82 O82          -28.6283    18.3882     8.6929 O.2     
  83 N83          -26.3572    17.1788     9.3881 N.am    
  84 C84          -27.2454    17.6459    10.4554 C.3     
  85 C85          -26.6013    18.8350    11.1710 C.3     
  86 C86          -27.4563    19.2282    12.3774 C.3     
  87 C87          -27.4220    18.1042    13.4149 C.3     
  88 C88          -26.9025    20.5123    12.9982 C.3     
  89 C89          -31.8066    19.1012    11.1979 C.2     
  90 O90          -31.4140    19.0477    12.3441 O.2     
  91 N91          -29.6710    18.0986    10.6296 N.am    
  92 C92          -30.9328    18.5981    10.0779 C.3     
  93 C93          -31.6505    17.4660     9.3402 C.3     
  94 C94          -30.8195    17.0395     8.1284 C.3     
  95 C95          -31.5373    15.9074     7.3907 C.3     
  96 N96          -30.7416    15.4991     6.2304 N.pl3   
  97 C97          -31.1893    14.4904     5.4105 C.2     
  98 N98          -32.3216    13.8974     5.6655 N.2     
  99 N99          -30.4425    14.1072     4.3216 N.pl3   
 100 C100         -35.3190    20.0341    11.5923 C.2     
 101 O101         -35.6033    19.7927    10.4383 O.2     
 102 N102         -33.0244    19.6105    10.9258 N.am    
 103 C103         -33.8739    20.0995    12.0146 C.3     
 104 C104         -33.5026    21.5477    12.3399 C.3     
 105 C105         -32.0790    21.5961    12.8983 C.3     
 106 C106         -33.5801    22.3925    11.0667 C.3     
 107 C107         -38.5716    20.9099    13.0126 C.2     
 108 O108         -38.0705    21.5835    13.8878 O.2     
 109 N109         -36.2956    20.2440    12.4972 N.am    
 110 C110         -37.6990    20.0726    12.1134 C.3     
 111 C111         -38.0892    18.5996    12.2515 C.3     
 112 O112         -38.0239    18.2165    13.6266 O.3     
 113 C113         -42.2007    21.5477    13.3234 C.2     
 114 O114         -42.4912    20.8171    12.4060 O.2     
 115 N115         -39.9088    20.9101    12.8441 N.am    
 116 C116         -40.7571    21.7241    13.7182 C.3     
 117 O117         -43.1638    22.2023    13.9909 O.3     
 118 C118          -5.3799    -6.9720    13.9170 C.2     
 119 O119          -5.0913    -5.9459    14.4956 O.2     
 120 C120          -0.2795   -16.1525    29.4377 C.3     
 121 C121          -0.4441   -14.8045    28.7329 C.3     
 122 C122          -0.9850   -15.0306    27.3197 C.3     
 123 C123          -1.1496   -13.6827    26.6148 C.3     
 124 C124          -1.6904   -13.9088    25.2016 C.3     
 125 C125          -1.8550   -12.5609    24.4967 C.3     
 126 C126          -2.3959   -12.7870    23.0835 C.3     
 127 C127          -2.5605   -11.4390    22.3787 C.3     
 128 C128          -3.1014   -11.6652    20.9654 C.3     
 129 C129          -3.2660   -10.3172    20.2606 C.3     
 130 C130          -3.8069   -10.5434    18.8474 C.3     
 131 C131          -3.9715    -9.1954    18.1425 C.3     
 132 C132          -4.5123    -9.4215    16.7293 C.3     
 133 C133          -4.6769    -8.0736    16.0244 C.3     
 134 C134          -5.2178    -8.2997    14.6112 C.3     
 135 H135          -6.0766    -7.7455    12.1904 H       
 136 H136          -6.3101    -4.8802    12.7031 H       
 137 H137          -4.8119    -4.3128    10.7636 H       
 138 H138          -3.5016    -5.8782    13.0328 H       
 139 H139          -2.6931    -4.6751    11.9998 H       
 140 H140          -3.9969    -4.1699    13.1012 H       
 141 H141          -4.1152    -7.2741    10.9963 H       
 142 H142          -4.8643    -6.4661     9.5984 H       
 143 H143          -3.1847    -6.0878    10.0503 H       
 144 H144          -7.2037    -3.7729    10.5620 H       
 145 H145          -8.2330    -5.6731     8.5980 H       
 146 H146         -10.0718    -4.0094    10.3753 H       
 147 H147         -10.5931    -4.8633     8.9031 H       
 148 H148          -9.8389    -7.0127     9.8828 H       
 149 H149          -9.3177    -6.1588    11.3550 H       
 150 H150         -11.6454    -5.3937    11.7354 H       
 151 H151         -12.1667    -6.2476    10.2632 H       
 152 H152         -10.8473    -8.0948    11.9435 H       
 153 H153         -13.7743    -9.1011    13.5635 H       
 154 H154         -13.7669    -6.1061    11.8238 H       
 155 H155         -14.7097    -7.1379    12.7561 H       
 156 H156          -7.8608    -2.1219     5.8764 H       
 157 H157         -10.1777    -2.2700     4.3407 H       
 158 H158          -8.7310    -3.2897     4.0466 H       
 159 H159         -11.2599    -3.9843     5.6449 H       
 160 H160         -10.3993    -4.9842     4.4266 H       
 161 H161          -8.5456    -5.4019     5.9055 H       
 162 H162          -9.9205    -5.4224     7.0519 H       
 163 H163          -9.4912    -0.1397     5.0751 H       
 164 H164         -11.5461     0.3982     7.0790 H       
 165 H165         -10.4810     2.5057     7.8360 H       
 166 H166         -10.1230     0.4225     9.1325 H       
 167 H167          -8.6898     0.0533     8.1436 H       
 168 H168          -8.6918     1.4777     9.2110 H       
 169 H169          -9.1196     2.9175     5.8049 H       
 170 H170          -8.1058     2.9348     7.2678 H       
 171 H171          -8.1039     1.5104     6.2004 H       
 172 H172         -12.2871     2.9413     6.5828 H       
 173 H173         -11.8856     3.6006     3.7664 H       
 174 H174         -14.3056     3.5044     3.2348 H       
 175 H175         -13.6839     1.8958     3.6754 H       
 176 H176         -14.6341     2.8353     4.8512 H       
 177 H177         -13.6701     5.6111     3.3437 H       
 178 H178         -12.8539     7.4723     5.4537 H       
 179 H179         -14.2237     7.8911     2.7598 H       
 180 H180         -13.7436     9.2018     3.8643 H       
 181 H181         -12.5030     9.3464     1.4020 H       
 182 H182         -10.9165     8.8009     1.4926 H       
 183 H183         -14.7901     9.3123     5.8116 H       
 184 H184         -17.4134     8.0359     5.9404 H       
 185 H185         -15.9192     8.8735     8.4668 H       
 186 H186         -17.6135     8.3331     8.3940 H       
 187 H187         -16.3002     7.2007     7.9927 H       
 188 H188         -18.9245     9.7947     7.3136 H       
 189 H189         -17.9368    12.5168     6.9361 H       
 190 H190         -20.2644    11.3896     5.3173 H       
 191 H191         -19.8668    13.1199     5.4451 H       
 192 H192         -17.6160    12.6720     4.5061 H       
 193 H193         -18.0135    10.9417     4.3783 H       
 194 H194         -19.8883    11.4854     2.8492 H       
 195 H195         -19.4907    13.2157     2.9769 H       
 196 H196         -17.1721    11.8280     2.1556 H       
 197 H197         -17.8283    12.2304    -1.2521 H       
 198 H198         -20.4129    12.6570     1.0139 H       
 199 H199         -20.0127    12.6855    -0.6176 H       
 200 H200         -20.0335    14.0817     7.4823 H       
 201 H201         -21.9627    12.6852     9.1891 H       
 202 H202         -20.0634    13.1898    10.7123 H       
 203 H203         -20.1579    14.9062    10.2505 H       
 204 H204         -22.5527    14.9190    11.0512 H       
 205 H205         -21.7578    12.1398    12.0255 H       
 206 H206         -23.2085    13.0174    12.5672 H       
 207 H207         -23.0455    12.5346    10.8618 H       
 208 H208         -20.6968    15.7164    12.4894 H       
 209 H209         -21.9634    14.9274    13.4597 H       
 210 H210         -20.4530    14.0598    13.0932 H       
 211 H211         -23.7802    14.2890     9.8610 H       
 212 H212         -23.8578    16.7367     8.2702 H       
 213 H213         -25.6711    14.3543     7.6829 H       
 214 H214         -25.9230    15.9970     7.0454 H       
 215 H215         -23.6947    15.9176     5.9605 H       
 216 H216         -23.4428    14.2749     6.5980 H       
 217 H217         -25.4362    13.4858     5.3520 H       
 218 H218         -25.6880    15.1285     4.7145 H       
 219 H219         -23.0525    14.3266     4.0921 H       
 220 H220         -23.9210    12.9876     0.9846 H       
 221 H221         -26.4091    13.5182     3.3349 H       
 222 H222         -26.0999    12.9622     1.7800 H       
 223 H223         -26.4509    17.5323     8.4897 H       
 224 H224         -27.4116    16.8389    11.1690 H       
 225 H225         -25.6024    18.5584    11.5083 H       
 226 H226         -26.5324    19.6785    10.4842 H       
 227 H227         -28.4843    19.3943    12.0555 H       
 228 H228         -26.4049    17.9856    13.7886 H       
 229 H229         -28.0864    18.3531    14.2424 H       
 230 H230         -27.7502    17.1731    12.9528 H       
 231 H231         -26.9269    21.3130    12.2591 H       
 232 H232         -27.5115    20.7924    13.8576 H       
 233 H233         -25.8744    20.3462    13.3201 H       
 234 H234         -29.6324    17.7877    11.5477 H       
 235 H235         -30.7283    19.4124     9.3828 H       
 236 H236         -31.7758    16.6167    10.0119 H       
 237 H237         -32.6285    17.8125     9.0063 H       
 238 H238         -30.6942    17.8888     7.4567 H       
 239 H239         -29.8415    16.6930     8.4623 H       
 240 H240         -31.6626    15.0582     8.0624 H       
 241 H241         -32.5153    16.2540     7.0568 H       
 242 H242         -29.8989    15.9404     6.0406 H       
 243 H243         -32.6375    13.1857     5.0871 H       
 244 H244         -29.5999    14.5485     4.1318 H       
 245 H245         -30.7584    13.3955     3.7431 H       
 246 H246         -33.3384    19.6532    10.0090 H       
 247 H247         -33.7251    19.4790    12.8982 H       
 248 H248         -34.1972    21.9431    13.0811 H       
 249 H249         -31.3844    21.2007    12.1571 H       
 250 H250         -31.8145    22.6278    13.1301 H       
 251 H251         -32.0238    20.9943    13.8054 H       
 252 H252         -34.6118    22.4286    10.7168 H       
 253 H253         -33.2331    23.4035    11.2798 H       
 254 H254         -32.9506    21.9471    10.2963 H       
 255 H255         -36.0692    20.5086    13.4025 H       
 256 H256         -37.8340    20.3887    11.0790 H       
 257 H257         -39.1048    18.4567    11.8824 H       
 258 H258         -37.4015    17.9855    11.6702 H       
 259 H259         -38.2591    17.2928    13.7892 H       
 260 H260         -40.3095    20.3714    12.1440 H       
 261 H261         -40.4791    22.7734    13.6198 H       
 262 H262         -40.6220    21.4079    14.7526 H       
 263 H263         -44.0749    22.0574    13.7012 H       
 264 H264           0.1058   -15.9913    30.4445 H       
 265 H265          -1.2460   -16.6532    29.4944 H       
 266 H266           0.4189   -16.7731    28.8764 H       
 267 H267          -1.1425   -14.1838    29.2942 H       
 268 H268           0.5224   -14.3037    28.6762 H       
 269 H269          -0.2866   -15.6513    26.7583 H       
 270 H270          -1.9515   -15.5314    27.3763 H       
 271 H271          -1.8480   -13.0620    27.1762 H       
 272 H272          -0.1831   -13.1819    26.5581 H       
 273 H273          -0.9920   -14.5295    24.6402 H       
 274 H274          -2.6569   -14.4096    25.2583 H       
 275 H275          -2.5535   -11.9402    25.0581 H       
 276 H276          -0.8886   -12.0601    24.4401 H       
 277 H277          -1.6975   -13.4076    22.5222 H       
 278 H278          -3.3624   -13.2878    23.1402 H       
 279 H279          -3.2589   -10.8184    22.9400 H       
 280 H280          -1.5940   -10.9383    22.3220 H       
 281 H281          -2.4030   -12.2858    20.4041 H       
 282 H282          -4.0679   -12.1660    21.0221 H       
 283 H283          -3.9644    -9.6966    20.8219 H       
 284 H284          -2.2995    -9.8164    20.2039 H       
 285 H285          -3.1085   -11.1640    18.2860 H       
 286 H286          -4.7734   -11.0441    18.9040 H       
 287 H287          -4.6699    -8.5748    18.7039 H       
 288 H288          -3.0050    -8.6946    18.0858 H       
 289 H289          -3.8139   -10.0422    16.1680 H       
 290 H290          -5.4788    -9.9223    16.7860 H       
 291 H291          -5.3754    -7.4529    16.5858 H       
 292 H292          -3.7104    -7.5728    15.9678 H       
 293 H293          -6.1843    -8.8005    14.6679 H       
 294 H294          -4.5194    -8.9204    14.0499 H       
@<TRIPOS>BOND
   1    1    2 2
   2    1    4 1
   3    1   10 am
   4    3  118 am
   5    3    4 1
   6    3  135 1
   7    4    5 1
   8    4  136 1
   9    5    6 1
  10    5    7 1
  11    5  137 1
  12    6  138 1
  13    6  139 1
  14    6  140 1
  15    7  141 1
  16    7  142 1
  17    7  143 1
  18    8    9 2
  19    8   11 1
  20    8   21 am
  21   10   11 1
  22   10  144 1
  23   11   12 1
  24   11  145 1
  25   12   13 1
  26   12  146 1
  27   12  147 1
  28   13   14 1
  29   13  148 1
  30   13  149 1
  31   14   15 1
  32   14  150 1
  33   14  151 1
  34   15   16 1
  35   15  152 1
  36   16   17 2
  37   16   18 1
  38   17  153 1
  39   18  154 1
  40   18  155 1
  41   19   20 2
  42   19   28 am
  43   19   22 1
  44   21   22 1
  45   21   25 1
  46   22   23 1
  47   22  156 1
  48   23   24 1
  49   23  157 1
  50   23  158 1
  51   24   25 1
  52   24  159 1
  53   24  160 1
  54   25  161 1
  55   25  162 1
  56   26   27 2
  57   26   29 1
  58   26   35 am
  59   28   29 1
  60   28  163 1
  61   29   30 1
  62   29  164 1
  63   30   31 1
  64   30   32 1
  65   30  165 1
  66   31  166 1
  67   31  167 1
  68   31  168 1
  69   32  169 1
  70   32  170 1
  71   32  171 1
  72   33   34 2
  73   33   36 1
  74   33   40 am
  75   35   36 1
  76   35  172 1
  77   36   37 1
  78   36  173 1
  79   37  174 1
  80   37  175 1
  81   37  176 1
  82   38   39 2
  83   38   41 1
  84   38   48 am
  85   40   41 1
  86   40  177 1
  87   41   42 1
  88   41  178 1
  89   42   43 1
  90   42  179 1
  91   42  180 1
  92   43   44 2
  93   43   45 am
  94   45  181 1
  95   45  182 1
  96   46   47 2
  97   46   49 1
  98   46   53 am
  99   48   49 1
 100   48  183 1
 101   49   50 1
 102   49  184 1
 103   50  185 1
 104   50  186 1
 105   50  187 1
 106   51   52 2
 107   51   54 1
 108   51   64 am
 109   53   54 1
 110   53  188 1
 111   54   55 1
 112   54  189 1
 113   55   56 1
 114   55  190 1
 115   55  191 1
 116   56   57 1
 117   56  192 1
 118   56  193 1
 119   57   58 1
 120   57  194 1
 121   57  195 1
 122   58   59 1
 123   58  196 1
 124   59   60 2
 125   59   61 1
 126   60  197 1
 127   61  198 1
 128   61  199 1
 129   62   63 2
 130   62   65 1
 131   62   72 am
 132   64   65 1
 133   64  200 1
 134   65   66 1
 135   65  201 1
 136   66   67 1
 137   66  202 1
 138   66  203 1
 139   67   68 1
 140   67   69 1
 141   67  204 1
 142   68  205 1
 143   68  206 1
 144   68  207 1
 145   69  208 1
 146   69  209 1
 147   69  210 1
 148   70   71 2
 149   70   73 1
 150   70   83 am
 151   72   73 1
 152   72  211 1
 153   73   74 1
 154   73  212 1
 155   74   75 1
 156   74  213 1
 157   74  214 1
 158   75   76 1
 159   75  215 1
 160   75  216 1
 161   76   77 1
 162   76  217 1
 163   76  218 1
 164   77   78 1
 165   77  219 1
 166   78   79 2
 167   78   80 1
 168   79  220 1
 169   80  221 1
 170   80  222 1
 171   81   82 2
 172   81   84 1
 173   81   91 am
 174   83   84 1
 175   83  223 1
 176   84   85 1
 177   84  224 1
 178   85   86 1
 179   85  225 1
 180   85  226 1
 181   86   87 1
 182   86   88 1
 183   86  227 1
 184   87  228 1
 185   87  229 1
 186   87  230 1
 187   88  231 1
 188   88  232 1
 189   88  233 1
 190   89   90 2
 191   89   92 1
 192   89  102 am
 193   91   92 1
 194   91  234 1
 195   92   93 1
 196   92  235 1
 197   93   94 1
 198   93  236 1
 199   93  237 1
 200   94   95 1
 201   94  238 1
 202   94  239 1
 203   95   96 1
 204   95  240 1
 205   95  241 1
 206   96   97 1
 207   96  242 1
 208   97   98 2
 209   97   99 1
 210   98  243 1
 211   99  244 1
 212   99  245 1
 213  100  101 2
 214  100  103 1
 215  100  109 am
 216  102  103 1
 217  102  246 1
 218  103  104 1
 219  103  247 1
 220  104  105 1
 221  104  106 1
 222  104  248 1
 223  105  249 1
 224  105  250 1
 225  105  251 1
 226  106  252 1
 227  106  253 1
 228  106  254 1
 229  107  108 2
 230  107  110 1
 231  107  115 am
 232  109  110 1
 233  109  255 1
 234  110  111 1
 235  110  256 1
 236  111  112 1
 237  111  257 1
 238  111  258 1
 239  112  259 1
 240  113  114 2
 241  113  116 1
 242  113  117 1
 243  115  116 1
 244  115  260 1
 245  116  261 1
 246  116  262 1
 247  117  263 1
 248  118  119 2
 249  118  134 1
 250  120  121 1
 251  120  264 1
 252  120  265 1
 253  120  266 1
 254  121  122 1
 255  121  267 1
 256  121  268 1
 257  122  123 1
 258  122  269 1
 259  122  270 1
 260  123  124 1
 261  123  271 1
 262  123  272 1
 263  124  125 1
 264  124  273 1
 265  124  274 1
 266  125  126 1
 267  125  275 1
 268  125  276 1
 269  126  127 1
 270  126  277 1
 271  126  278 1
 272  127  128 1
 273  127  279 1
 274  127  280 1
 275  128  129 1
 276  128  281 1
 277  128  282 1
 278  129  130 1
 279  129  283 1
 280  129  284 1
 281  130  131 1
 282  130  285 1
 283  130  286 1
 284  131  132 1
 285  131  287 1
 286  131  288 1
 287  132  133 1
 288  132  289 1
 289  132  290 1
 290  133  134 1
 291  133  291 1
 292  133  292 1
 293  134  293 1
 294  134  294 1

#	End of record

