#	Name: ASD01918130
#	Creating user name:	WinNT
#	Creation time:	15. 06. 2019 20:10

#	Modifying user name:	WinNT
#	Modification time:	15. 06. 2019 20:10

#	Program:	/corina/corina34_cracker 3.40 0067  02.08.2006

@<TRIPOS>MOLECULE
ASD01918130
  38   41    0    0    0
SMALL
NO_CHARGES


@<TRIPOS>ATOM
   1 N1             4.8434    -0.3810    -2.1579 N.ar    
   2 C2             5.3061     0.3128    -3.1766 C.ar    
   3 C3             5.1834     1.7035    -3.2062 C.ar    
   4 C4             4.5591     2.3509    -2.1339 C.ar    
   5 C5             4.0871     1.5752    -1.0828 C.ar    
   6 C6             4.2500     0.1973    -1.1316 C.ar    
   7 O7             3.4742     2.1581    -0.0191 O.3     
   8 C8             3.4422     3.5169     0.0338 C.2     
   9 N9             2.1732     5.5196    -0.0264 N.pl3   
  10 C10            2.2542     4.1605    -0.0738 C.2     
  11 C11            4.6381     4.2286     0.2045 C.2     
  12 C12            4.6021     5.6161     0.2586 C.2     
  13 C13            3.3041     6.2817     0.1337 C.2     
  14 C14            5.8371     6.3971     0.4373 C.2     
  15 N15            5.7821     7.7428     0.4874 N.am    
  16 O16            6.9072     5.8279     0.5398 O.2     
  17 C17            1.1405     6.4038    -0.1061 C.2     
  18 N18            1.6447     7.6060    -0.0066 N.2     
  19 N19            2.9217     7.5431     0.1413 N.2     
  20 C20            5.6887     2.4551    -4.3154 C.1     
  21 C21            6.9471     8.4796     0.6560 C.2     
  22 N22            6.0896     3.0514    -5.1953 N.1     
  23 S23            8.5136     7.8127     0.8123 S.3     
  24 C24            9.1984     9.4290     0.9609 C.2     
  25 C25            8.1999    10.3106     0.8804 C.2     
  26 N26            7.0059     9.7736     0.7121 N.2     
  27 C27            8.4184    11.7990     0.9688 C.3     
  28 H28            5.7858    -0.1989    -3.9979 H       
  29 H29            4.4476     3.4251    -2.1239 H       
  30 H30            3.8851    -0.4105    -0.3168 H       
  31 H31            1.3508     3.5824    -0.2004 H       
  32 H32            5.5776     3.7034     0.2934 H       
  33 H33            4.9287     8.1967     0.4057 H       
  34 H34            0.0969     6.1573    -0.2352 H       
  35 H35           10.2438     9.6652     1.0943 H       
  36 H36            8.5911    12.2008    -0.0297 H       
  37 H37            7.5366    12.2706     1.4026 H       
  38 H38            9.2855    12.0023     1.5972 H       
@<TRIPOS>BOND
   1    1    2 ar
   2    1    6 ar
   3    2    3 ar
   4    2   28 1
   5    3    4 ar
   6    3   20 1
   7    4    5 ar
   8    4   29 1
   9    5    6 ar
  10    5    7 1
  11    6   30 1
  12    7    8 1
  13    8   11 1
  14    8   10 2
  15    9   10 1
  16    9   17 1
  17    9   13 1
  18   10   31 1
  19   11   12 2
  20   11   32 1
  21   12   13 1
  22   12   14 1
  23   13   19 2
  24   14   15 am
  25   14   16 2
  26   15   21 1
  27   15   33 1
  28   17   18 2
  29   17   34 1
  30   18   19 1
  31   20   22 3
  32   21   23 1
  33   21   26 2
  34   23   24 1
  35   24   25 2
  36   24   35 1
  37   25   26 1
  38   25   27 1
  39   27   36 1
  40   27   37 1
  41   27   38 1

#	End of record

