#	Name: ASD01885324
#	Creating user name:	WinNT
#	Creation time:	15. 06. 2019 19:49

#	Modifying user name:	WinNT
#	Modification time:	15. 06. 2019 19:49

#	Program:	/corina/corina34_cracker 3.40 0067  02.08.2006

@<TRIPOS>MOLECULE
ASD01885324
  54   57    0    0    0
SMALL
NO_CHARGES


@<TRIPOS>ATOM
   1 C1            -0.0164     1.3565     0.0095 C.ar    
   2 C2             0.0021    -0.0041     0.0020 C.ar    
   3 C3             1.2052    -0.7063    -0.0132 C.ar    
   4 C4             2.3986    -0.0481    -0.0211 C.ar    
   5 C5             2.4181     1.3524    -0.0137 C.ar    
   6 C6             1.1963     2.0715     0.0018 C.ar    
   7 C7             3.6402     2.0714    -0.0219 C.ar    
   8 C8             3.5782     3.4584    -0.0144 C.ar    
   9 C9             2.3315     4.0925     0.0009 C.ar    
  10 N10            1.2047     3.4051     0.0084 N.ar    
  11 C11            4.9416     1.3652    -0.0376 C.2     
  12 C12            2.2743     5.5743     0.0089 C.2     
  13 O13            3.3022     6.2220     0.0021 O.2     
  14 N14            1.0820     6.2025     0.0236 N.am    
  15 C15           -1.2996    -0.7634     0.0109 C.3     
  16 N16           -1.7363    -1.0027    -1.3712 N.3     
  17 C17           -2.8691    -1.9389    -1.4111 C.3     
  18 C18           -3.3294    -2.1131    -2.8609 C.3     
  19 O19           -2.2277    -2.5619    -3.6548 O.3     
  20 C20           -1.1071    -1.6736    -3.6392 C.3     
  21 C21           -0.6244    -1.4949    -2.1973 C.3     
  22 C22            5.9822     1.6062    -0.8907 C.2     
  23 N23            6.9743     0.7525    -0.5738 N.pl3   
  24 N24            6.5470    -0.0389     0.4990 N.2     
  25 C25            5.3367     0.3250     0.8288 C.2     
  26 C26            8.2773     0.6664    -1.2380 C.3     
  27 C27           -4.4556    -3.1471    -2.9186 C.3     
  28 O28           -4.9634    -3.2243    -4.2521 O.3     
  29 C29           -6.0252    -4.1665    -4.4160 C.3     
  30 H30           -0.9577     1.8859     0.0168 H       
  31 H31            1.1920    -1.7862    -0.0186 H       
  32 H32            3.3247    -0.6037    -0.0325 H       
  33 H33            4.4860     4.0435    -0.0199 H       
  34 H34            0.2613     5.6854     0.0289 H       
  35 H35            1.0445     7.1718     0.0288 H       
  36 H36           -1.1600    -1.7179     0.5182 H       
  37 H37           -2.0567    -0.1805     0.5354 H       
  38 H38           -2.5586    -2.9034    -1.0094 H       
  39 H39           -3.6902    -1.5424    -0.8137 H       
  40 H40           -3.6902    -1.1591    -3.2453 H       
  41 H41           -0.3022    -2.0923    -4.2432 H       
  42 H42           -1.4033    -0.7068    -4.0462 H       
  43 H43            0.1932    -0.7744    -2.1738 H       
  44 H44           -0.2779    -2.4523    -1.8082 H       
  45 H45            6.0045     2.3466    -1.6766 H       
  46 H46            4.7414    -0.0989     1.6240 H       
  47 H47            8.9824     1.3340    -0.7428 H       
  48 H48            8.6464    -0.3577    -1.1826 H       
  49 H49            8.1725     0.9589    -2.2828 H       
  50 H50           -4.0697    -4.1217    -2.6198 H       
  51 H51           -5.2565    -2.8502    -2.2414 H       
  52 H52           -6.8586    -3.8908    -3.7699 H       
  53 H53           -6.3550    -4.1651    -5.4549 H       
  54 H54           -5.6719    -5.1623    -4.1483 H       
@<TRIPOS>BOND
   1    1    2 ar
   2    1    6 ar
   3    1   30 1
   4    2    3 ar
   5    2   15 1
   6    3    4 ar
   7    3   31 1
   8    4    5 ar
   9    4   32 1
  10    5    7 ar
  11    5    6 ar
  12    6   10 ar
  13    7    8 ar
  14    7   11 1
  15    8    9 ar
  16    8   33 1
  17    9   10 ar
  18    9   12 1
  19   11   22 2
  20   11   25 1
  21   12   13 2
  22   12   14 am
  23   14   34 1
  24   14   35 1
  25   15   16 1
  26   15   36 1
  27   15   37 1
  28   16   17 1
  29   16   21 1
  30   17   18 1
  31   17   38 1
  32   17   39 1
  33   18   19 1
  34   18   27 1
  35   18   40 1
  36   19   20 1
  37   20   21 1
  38   20   41 1
  39   20   42 1
  40   21   43 1
  41   21   44 1
  42   22   23 1
  43   22   45 1
  44   23   24 1
  45   23   26 1
  46   24   25 2
  47   25   46 1
  48   26   47 1
  49   26   48 1
  50   26   49 1
  51   27   28 1
  52   27   50 1
  53   27   51 1
  54   28   29 1
  55   29   52 1
  56   29   53 1
  57   29   54 1

#	End of record

