#	Name: ASD05430302
#	Creating user name:	WinNT
#	Creation time:	15. 06. 2019 21:00

#	Modifying user name:	WinNT
#	Modification time:	15. 06. 2019 21:00

#	Program:	/corina/corina34_cracker 3.40 0067  02.08.2006

@<TRIPOS>MOLECULE
ASD05430302
  65   70    0    0    0
SMALL
NO_CHARGES


@<TRIPOS>ATOM
   1 C1            -0.0012     1.4220     0.1945 C.ar    
   2 C2             0.0096     0.0429    -0.0104 C.ar    
   3 C3             1.2150    -0.6322    -0.1519 C.ar    
   4 C4             2.4064     0.0578    -0.0905 C.ar    
   5 C5             2.4034     1.4414     0.1148 C.ar    
   6 C6             1.1897     2.1209     0.2573 C.ar    
   7 O7             4.9116     0.1384     0.3114 O.3     
   8 C8             4.8453     1.5083     0.1988 C.2     
   9 C9             3.6745     2.1800     0.1812 C.2     
  10 C10            5.9664    -0.3510     1.1505 C.3     
  11 C11            7.3840     0.0919     0.7568 C.3     
  12 N12            7.3351     1.5216     0.4522 N.pl3   
  13 C13            6.1587     2.1906     0.0986 C.2     
  14 C14            8.3966     2.5254     0.4600 C.3     
  15 O15            7.8279     3.6111    -0.3027 O.3     
  16 N16            6.4246     3.3840    -0.3092 N.2     
  17 C17            8.7012     2.9668     1.8684 C.ar    
  18 C18            9.6551     1.9863    -0.2230 C.3     
  19 N19           -1.1997    -0.6643    -0.0734 N.pl3   
  20 C20           -1.5733    -1.5544    -1.0466 C.2     
  21 C21           -2.8022    -1.9975    -0.7190 C.2     
  22 N22           -3.1732    -1.3976     0.4218 N.2     
  23 C23           -2.2193    -0.6012     0.8215 C.2     
  24 C24           -3.6194    -2.9944    -1.4996 C.3     
  25 C25            9.2604     4.2098     2.0973 C.ar    
  26 C26            9.5399     4.6147     3.3893 C.ar    
  27 C27            9.2597     3.7767     4.4521 C.ar    
  28 C28            8.6995     2.5336     4.2232 C.ar    
  29 C29            8.4161     2.1306     2.9318 C.ar    
  30 O30           10.7107     2.9414    -0.0987 O.3     
  31 C31           -1.1197     3.4927     0.5347 C.3     
  32 O32           -1.1833     2.0803     0.3270 O.3     
  33 C33            5.6674    -0.5091     2.6409 C.3     
  34 C34            5.8045    -1.7465     1.7508 C.3     
  35 S35           10.2734     6.2421     3.6890 Du      
  36 F36            9.2320     6.4900     4.8916 F       
  37 F37           11.3147     5.9943     2.4864 F       
  38 F38            9.2331     6.9019     2.6523 F       
  39 F39           11.3136     5.5824     4.7257 F       
  40 F40           10.9257     7.6897     3.9556 F       
  41 H41            1.2187    -1.7005    -0.3102 H       
  42 H42            3.3423    -0.4699    -0.2005 H       
  43 H43            1.1828     3.1892     0.4156 H       
  44 H44            3.6707     3.2594     0.2159 H       
  45 H45            8.0700    -0.0861     1.5850 H       
  46 H46            7.7133    -0.4621    -0.1222 H       
  47 H47            9.9535     1.0512     0.2510 H       
  48 H48            9.4480     1.8088    -1.2783 H       
  49 H49           -0.9935    -1.8446    -1.9102 H       
  50 H50           -2.2405     0.0113     1.7108 H       
  51 H51           -3.3961    -4.0018    -1.1482 H       
  52 H52           -4.6798    -2.7865    -1.3565 H       
  53 H53           -3.3734    -2.9161    -2.5586 H       
  54 H54            9.4793     4.8647     1.2669 H       
  55 H55            9.4787     4.0927     5.4613 H       
  56 H56            8.4809     1.8786     5.0536 H       
  57 H57            7.9784     1.1595     2.7530 H       
  58 H58           11.5412     2.6654    -0.5099 H       
  59 H59           -2.1297     3.8927     0.6238 H       
  60 H60           -0.5645     3.7008     1.4493 H       
  61 H61           -0.6163     3.9619    -0.3106 H       
  62 H62            6.4760    -0.3008     3.3415 H       
  63 H63            4.6674    -0.2445     2.9846 H       
  64 H64            4.8947    -2.2960     1.5091 H       
  65 H65            6.7034    -2.3523     1.8660 H       
@<TRIPOS>BOND
   1    1    2 ar
   2    1    6 ar
   3    1   32 1
   4    2    3 ar
   5    2   19 1
   6    3    4 ar
   7    3   41 1
   8    4    5 ar
   9    4   42 1
  10    5    6 ar
  11    5    9 1
  12    6   43 1
  13    7    8 1
  14    7   10 1
  15    8    9 2
  16    8   13 1
  17    9   44 1
  18   10   11 1
  19   10   33 1
  20   10   34 1
  21   11   12 1
  22   11   45 1
  23   11   46 1
  24   12   13 1
  25   12   14 1
  26   13   16 2
  27   14   15 1
  28   14   17 1
  29   14   18 1
  30   15   16 1
  31   17   25 ar
  32   17   29 ar
  33   18   30 1
  34   18   47 1
  35   18   48 1
  36   19   20 1
  37   19   23 1
  38   20   21 2
  39   20   49 1
  40   21   22 1
  41   21   24 1
  42   22   23 2
  43   23   50 1
  44   24   51 1
  45   24   52 1
  46   24   53 1
  47   25   26 ar
  48   25   54 1
  49   26   27 ar
  50   26   35 1
  51   27   28 ar
  52   27   55 1
  53   28   29 ar
  54   28   56 1
  55   29   57 1
  56   30   58 1
  57   31   32 1
  58   31   59 1
  59   31   60 1
  60   31   61 1
  61   33   34 1
  62   33   62 1
  63   33   63 1
  64   34   64 1
  65   34   65 1
  66   35   36 1
  67   35   37 1
  68   35   38 1
  69   35   39 1
  70   35   40 1

#	End of record

