#	Name: ASD02508092
#	Creating user name:	WinNT
#	Creation time:	15. 06. 2019 20:23

#	Modifying user name:	WinNT
#	Modification time:	15. 06. 2019 20:23

#	Program:	/corina/corina34_cracker 3.40 0067  02.08.2006

@<TRIPOS>MOLECULE
ASD02508092
  38   40    0    0    0
SMALL
NO_CHARGES


@<TRIPOS>ATOM
   1 C1             3.3628    -0.4724    -4.0288 C.ar    
   2 C2             4.3663    -1.1782    -3.3482 C.ar    
   3 C3             2.3969     0.1810    -3.2622 C.ar    
   4 C4             2.4192     0.1401    -1.8802 C.ar    
   5 C5             3.4203    -0.5637    -1.2259 C.ar    
   6 C6             4.3902    -1.2207    -1.9742 C.ar    
   7 N7             3.2014    -0.3288    -5.3977 N.am    
   8 C8             2.1695     0.3911    -5.8482 C.2     
   9 S9             1.3012     0.9592    -4.4126 S.3     
  10 N10            3.4531    -0.6115     0.1720 N.am    
  11 S11            3.7019    -2.0545     0.9455 S.o2    
  12 C12            2.3667    -3.1178     0.5081 C.ar    
  13 C13            2.5101    -4.0107    -0.5381 C.ar    
  14 O14            1.8854     0.6140    -7.0106 O.2     
  15 O15            4.8712    -2.6215     0.3708 O.2     
  16 O16            3.5676    -1.7929     2.3358 O.2     
  17 C17            1.1804    -3.0615     1.2149 C.ar    
  18 C18            0.1299    -3.8945     0.8761 C.ar    
  19 C19            0.2651    -4.7876    -0.1742 C.ar    
  20 C20            1.4616    -4.8476    -0.8830 C.ar    
  21 O21            1.5990    -5.7224    -1.9151 O.3     
  22 O22           -0.7669    -5.6078    -0.5084 O.3     
  23 C23           -1.9623    -5.4952     0.2665 C.3     
  24 C24            2.8548    -5.7289    -2.5972 C.3     
  25 H25            5.1295    -1.6952    -3.9109 H       
  26 H26            1.6593     0.6551    -1.3112 H       
  27 H27            5.1719    -1.7700    -1.4706 H       
  28 H28            3.8244    -0.7419    -6.0158 H       
  29 H29            3.3301     0.2005     0.6881 H       
  30 H30            3.4395    -4.0553    -1.0864 H       
  31 H31            1.0737    -2.3657     2.0340 H       
  32 H32           -0.7958    -3.8491     1.4305 H       
  33 H33           -1.7403    -5.7145     1.3109 H       
  34 H34           -2.3549    -4.4818     0.1835 H       
  35 H35           -2.7034    -6.2035    -0.1039 H       
  36 H36            3.6490    -5.9788    -1.8937 H       
  37 H37            2.8305    -6.4701    -3.3960 H       
  38 H38            3.0426    -4.7428    -3.0220 H       
@<TRIPOS>BOND
   1    1    2 ar
   2    1    3 ar
   3    1    7 1
   4    2    6 ar
   5    2   25 1
   6    3    4 ar
   7    3    9 1
   8    4    5 ar
   9    4   26 1
  10    5    6 ar
  11    5   10 1
  12    6   27 1
  13    7    8 am
  14    7   28 1
  15    8    9 1
  16    8   14 2
  17   10   11 am
  18   10   29 1
  19   11   12 1
  20   11   15 2
  21   11   16 2
  22   12   13 ar
  23   12   17 ar
  24   13   20 ar
  25   13   30 1
  26   17   18 ar
  27   17   31 1
  28   18   19 ar
  29   18   32 1
  30   19   20 ar
  31   19   22 1
  32   20   21 1
  33   21   24 1
  34   22   23 1
  35   23   33 1
  36   23   34 1
  37   23   35 1
  38   24   36 1
  39   24   37 1
  40   24   38 1

#	End of record

