#	Name: ASD08070230
#	Creating user name:	WinNT
#	Creation time:	15. 06. 2019 21:14

#	Modifying user name:	WinNT
#	Modification time:	15. 06. 2019 21:14

#	Program:	/corina/corina34_cracker 3.40 0067  02.08.2006

@<TRIPOS>MOLECULE
ASD08070230
  33   34    0    0    0
SMALL
NO_CHARGES


@<TRIPOS>ATOM
   1 C1            -0.0209     1.4729    -0.0202 C.ar    
   2 C2             0.0010    -0.0027    -0.0148 C.2     
   3 O3             1.0628    -0.5951    -0.0321 O.2     
   4 N4            -1.1558    -0.6938     0.0094 N.am    
   5 C5            -1.1402    -2.0876    -0.1038 C.ar    
   6 C6            -2.0819    -2.8516     0.5738 C.ar    
   7 C7            -2.0641    -4.2276     0.4595 C.ar    
   8 C8             1.1776     2.1911    -0.0453 C.ar    
   9 C9             1.1531     3.5691    -0.0503 C.ar    
  10 C10           -0.0620     4.2447    -0.0304 C.ar    
  11 C11           -1.2566     3.5334    -0.0050 C.ar    
  12 C12           -0.1868    -2.7106    -0.8984 C.ar    
  13 C13           -0.1745    -4.0874    -1.0085 C.ar    
  14 C14           -1.1097    -4.8453    -0.3282 C.ar    
  15 C15           -1.2402     2.1553    -0.0062 C.ar    
  16 C16           -3.1216    -2.1794     1.4330 C.3     
  17 O17           -0.0822     5.6021    -0.0353 O.3     
  18 C18           -0.1154     6.2458    -1.3107 C.3     
  19 Cl19           2.6413     4.4624    -0.0808 Cl      
  20 Cl20          -2.7706     4.3824     0.0210 Cl      
  21 H21           -1.9992    -0.2244     0.1053 H       
  22 H22           -2.7960    -4.8221     0.9860 H       
  23 H23            2.1218     1.6670    -0.0604 H       
  24 H24            0.5439    -2.1192    -1.4301 H       
  25 H25            0.5667    -4.5726    -1.6263 H       
  26 H26           -1.0976    -5.9217    -0.4156 H       
  27 H27           -2.1684     1.6035     0.0132 H       
  28 H28           -4.0028    -1.9580     0.8309 H       
  29 H29           -3.3990    -2.8420     2.2529 H       
  30 H30           -2.7151    -1.2522     1.8368 H       
  31 H31           -0.1288     7.3268    -1.1719 H       
  32 H32            0.7683     5.9639    -1.8831 H       
  33 H33           -1.0112     5.9376    -1.8500 H       
@<TRIPOS>BOND
   1    1    2 1
   2    1    8 ar
   3    1   15 ar
   4    2    3 2
   5    2    4 am
   6    4    5 1
   7    4   21 1
   8    5    6 ar
   9    5   12 ar
  10    6    7 ar
  11    6   16 1
  12    7   14 ar
  13    7   22 1
  14    8    9 ar
  15    8   23 1
  16    9   10 ar
  17    9   19 1
  18   10   11 ar
  19   10   17 1
  20   11   15 ar
  21   11   20 1
  22   12   13 ar
  23   12   24 1
  24   13   14 ar
  25   13   25 1
  26   14   26 1
  27   15   27 1
  28   16   28 1
  29   16   29 1
  30   16   30 1
  31   17   18 1
  32   18   31 1
  33   18   32 1
  34   18   33 1

#	End of record

