#	Name: ASD01948333
#	Creating user name:	WinNT
#	Creation time:	15. 06. 2019 20:14

#	Modifying user name:	WinNT
#	Modification time:	15. 06. 2019 20:14

#	Program:	/corina/corina34_cracker 3.40 0067  02.08.2006

@<TRIPOS>MOLECULE
ASD01948333
  50   52    0    0    0
SMALL
NO_CHARGES


@<TRIPOS>ATOM
   1 C1             0.6526     1.8036     0.0227 C.2     
   2 N2             0.7618     0.4518    -0.1258 N.am    
   3 C3             1.9603    -0.1583    -0.0788 C.2     
   4 C4             3.0282     1.9632     0.2773 C.2     
   5 C5             1.7506     2.5698     0.2220 C.2     
   6 C6             3.7748     3.8824    -1.6054 C.ar    
   7 C7             4.5074     3.7306    -0.4362 C.ar    
   8 N8             4.1647     2.7316     0.4812 N.pl3   
   9 C9             4.1158     4.8696    -2.5100 C.ar    
  10 C10            5.1859     5.7069    -2.2525 C.ar    
  11 C11            5.9193     5.5595    -1.0884 C.ar    
  12 C12            5.5837     4.5739    -0.1790 C.ar    
  13 N13            1.6228     3.9603     0.3727 N.am    
  14 S14            0.1261     4.6660     0.3073 S.o2    
  15 C15           -0.7412     4.0238     1.7653 C.3     
  16 O16            2.0319    -1.3707    -0.2150 O.2     
  17 C17           -0.4461    -0.3492    -0.3397 C.3     
  18 F18            6.2996     4.4299     0.9577 F       
  19 I19            5.6979     7.2018    -3.6281 I       
  20 O20            0.3871     6.0552     0.4540 O.2     
  21 O21           -0.4524     4.1511    -0.8841 O.2     
  22 C22            3.1253     0.5903     0.1252 C.2     
  23 F23            4.3300    -0.0194     0.1733 F       
  24 C24           -2.1670     4.5200     2.0146 C.3     
  25 C25           -1.9291     3.0897     1.5261 C.3     
  26 C26            0.1363     3.7524     2.9889 C.3     
  27 C27            0.7530     5.0653     3.4756 C.3     
  28 O28           -0.2824     5.9359     3.9362 O.3     
  29 C29            1.7253     4.7782     4.6215 C.3     
  30 O30            2.3876     5.9870     4.9984 O.3     
  31 H31           -0.3211     2.2686    -0.0238 H       
  32 H32            2.9416     3.2264    -1.8100 H       
  33 H33            4.7219     2.5764     1.2599 H       
  34 H34            3.5459     4.9873    -3.4198 H       
  35 H35            6.7547     6.2147    -0.8903 H       
  36 H36            2.4111     4.5072     0.5151 H       
  37 H37           -0.6453    -0.4281    -1.4084 H       
  38 H38           -0.2999    -1.3456     0.0772 H       
  39 H39           -1.2920     0.1303     0.1531 H       
  40 H40           -2.4798     4.6526     3.0503 H       
  41 H41           -2.5837     5.2322     1.3025 H       
  42 H42           -2.1894     2.8610     0.4926 H       
  43 H43           -2.0855     2.2813     2.2404 H       
  44 H44           -0.4718     3.3200     3.7834 H       
  45 H45            0.9304     3.0560     2.7192 H       
  46 H46            1.2893     5.5412     2.6546 H       
  47 H47           -0.8021     5.5762     4.6681 H       
  48 H48            1.1742     4.3844     5.4755 H       
  49 H49            2.4638     4.0454     4.2964 H       
  50 H50            3.0206     5.8797     5.7215 H       
@<TRIPOS>BOND
   1    1    2 1
   2    1    5 2
   3    1   31 1
   4    2    3 am
   5    2   17 1
   6    3   22 1
   7    3   16 2
   8    4    5 1
   9    4    8 1
  10    4   22 2
  11    5   13 1
  12    6    7 ar
  13    6    9 ar
  14    6   32 1
  15    7    8 1
  16    7   12 ar
  17    8   33 1
  18    9   10 ar
  19    9   34 1
  20   10   11 ar
  21   10   19 1
  22   11   12 ar
  23   11   35 1
  24   12   18 1
  25   13   14 am
  26   13   36 1
  27   14   15 1
  28   14   20 2
  29   14   21 2
  30   15   24 1
  31   15   26 1
  32   15   25 1
  33   17   37 1
  34   17   38 1
  35   17   39 1
  36   22   23 1
  37   24   25 1
  38   24   40 1
  39   24   41 1
  40   25   42 1
  41   25   43 1
  42   26   27 1
  43   26   44 1
  44   26   45 1
  45   27   28 1
  46   27   29 1
  47   27   46 1
  48   28   47 1
  49   29   30 1
  50   29   48 1
  51   29   49 1
  52   30   50 1

#	End of record

