#	Name: ASD06710012
#	Creating user name:	WinNT
#	Creation time:	15. 06. 2019 21:08

#	Modifying user name:	WinNT
#	Modification time:	15. 06. 2019 21:08

#	Program:	/corina/corina34_cracker 3.40 0067  02.08.2006

@<TRIPOS>MOLECULE
ASD06710012
  60   61    0    0    0
SMALL
NO_CHARGES


@<TRIPOS>ATOM
   1 C1             0.9017    -0.2978    -0.6572 C.ar    
   2 C2             0.0039     0.0242     0.3502 C.ar    
   3 C3             0.2989     1.0489     1.2376 C.ar    
   4 C4             1.4854     1.7461     1.1162 C.ar    
   5 C5             2.3783     1.4235     0.1110 C.ar    
   6 C6             2.0868     0.4023    -0.7744 C.ar    
   7 C7             2.5189     4.1187    -1.1155 C.ar    
   8 C8             3.3762     3.6598    -0.1326 C.ar    
   9 C9             3.6714     2.1863    -0.0198 C.3     
  10 C10            2.2466     5.4689    -1.2210 C.ar    
  11 C11            2.8342     6.3648    -0.3396 C.ar    
  12 C12            3.6945     5.9019     0.6455 C.ar    
  13 C13            3.9634     4.5506     0.7468 C.ar    
  14 O14           -1.1628    -0.6628     0.4673 O.3     
  15 O15            2.5684     7.6936    -0.4415 O.3     
  16 C16           -2.0392    -0.2769     1.5280 C.3     
  17 C17           -3.2911    -1.1561     1.5005 C.3     
  18 O18           -2.9291    -2.5094     1.7827 O.3     
  19 C19           -4.2838    -0.6632     2.5553 C.3     
  20 O20           -5.4983    -1.4089     2.4517 O.3     
  21 C21            3.2087     8.5574     0.4997 C.3     
  22 C22            2.7911    10.0044     0.2301 C.3     
  23 C23            3.4766    10.9293     1.2378 C.3     
  24 O24            3.0866    12.2808     0.9860 O.3     
  25 C25            3.6744    13.2310     1.8769 C.3     
  26 C26           -6.4984    -1.0252     3.3976 C.3     
  27 C27            4.5399     1.9332     1.2141 C.3     
  28 C28            4.4154     1.7180    -1.2720 C.3     
  29 H29            0.6764    -1.0981    -1.3465 H       
  30 H30           -0.3986     1.3017     2.0225 H       
  31 H31            1.7155     2.5439     1.8067 H       
  32 H32            2.7859     0.1523    -1.5587 H       
  33 H33            2.0652     3.4214    -1.8043 H       
  34 H34            1.5772     5.8269    -1.9892 H       
  35 H35            4.1534     6.5973     1.3327 H       
  36 H36            4.6327     4.1898     1.5138 H       
  37 H37           -1.5295    -0.4003     2.4835 H       
  38 H38           -2.3256     0.7671     1.4010 H       
  39 H39           -3.7519    -1.1014     0.5142 H       
  40 H40           -2.5124    -2.6331     2.6465 H       
  41 H41           -3.8566    -0.8007     3.5486 H       
  42 H42           -4.4917     0.3944     2.3924 H       
  43 H43            2.9130     8.2763     1.5105 H       
  44 H44            4.2902     8.4666     0.3990 H       
  45 H45            3.0867    10.2855    -0.7807 H       
  46 H46            1.7096    10.0953     0.3308 H       
  47 H47            3.1810    10.6481     2.2486 H       
  48 H48            4.5582    10.8384     1.1371 H       
  49 H49            3.3286    14.2322     1.6199 H       
  50 H50            3.3829    12.9976     2.9009 H       
  51 H51            4.7600    13.1879     1.7894 H       
  52 H52           -7.3886    -1.6375     3.2537 H       
  53 H53           -6.1171    -1.1702     4.4084 H       
  54 H54           -6.7523     0.0248     3.2522 H       
  55 H55            4.0098     2.2669     2.1062 H       
  56 H56            4.7534     0.8674     1.2957 H       
  57 H57            5.4752     2.4849     1.1195 H       
  58 H58            5.3507     2.2697    -1.3666 H       
  59 H59            4.6289     0.6522    -1.1904 H       
  60 H60            3.7967     1.8983    -2.1510 H       
@<TRIPOS>BOND
   1    1    2 ar
   2    1    6 ar
   3    1   29 1
   4    2    3 ar
   5    2   14 1
   6    3    4 ar
   7    3   30 1
   8    4    5 ar
   9    4   31 1
  10    5    6 ar
  11    5    9 1
  12    6   32 1
  13    7    8 ar
  14    7   10 ar
  15    7   33 1
  16    8    9 1
  17    8   13 ar
  18    9   27 1
  19    9   28 1
  20   10   11 ar
  21   10   34 1
  22   11   12 ar
  23   11   15 1
  24   12   13 ar
  25   12   35 1
  26   13   36 1
  27   14   16 1
  28   15   21 1
  29   16   17 1
  30   16   37 1
  31   16   38 1
  32   17   18 1
  33   17   19 1
  34   17   39 1
  35   18   40 1
  36   19   20 1
  37   19   41 1
  38   19   42 1
  39   20   26 1
  40   21   22 1
  41   21   43 1
  42   21   44 1
  43   22   23 1
  44   22   45 1
  45   22   46 1
  46   23   24 1
  47   23   47 1
  48   23   48 1
  49   24   25 1
  50   25   49 1
  51   25   50 1
  52   25   51 1
  53   26   52 1
  54   26   53 1
  55   26   54 1
  56   27   55 1
  57   27   56 1
  58   27   57 1
  59   28   58 1
  60   28   59 1
  61   28   60 1

#	End of record

