#	Name: ASD02448074
#	Creating user name:	WinNT
#	Creation time:	15. 06. 2019 20:21

#	Modifying user name:	WinNT
#	Modification time:	15. 06. 2019 20:21

#	Program:	/corina/corina34_cracker 3.40 0067  02.08.2006

@<TRIPOS>MOLECULE
ASD02448074
  76   82    0    0    0
SMALL
NO_CHARGES


@<TRIPOS>ATOM
   1 C1             3.3194    -7.3946    -1.0262 C.ar    
   2 C2             2.8018    -6.2738    -0.4085 C.ar    
   3 C3             2.1958    -5.2808    -1.1663 C.ar    
   4 C4             2.1096    -5.4148    -2.5454 C.ar    
   5 C5             2.6269    -6.5353    -3.1639 C.ar    
   6 C6             3.2337    -7.5288    -2.4061 C.ar    
   7 N7             3.7582    -8.6637    -3.0322 N.am    
   8 C8             4.8305    -9.5450    -2.5520 C.3     
   9 C9             5.0969   -10.6533    -3.5188 C.2     
  10 N10            4.3277   -10.6380    -4.6165 N.am    
  11 S11            3.3043    -9.3310    -4.4923 S.o2    
  12 O12            5.9432   -11.5002    -3.3254 O.2     
  13 O13            1.9878    -9.8427    -4.3365 O.2     
  14 O14            3.6811    -8.4060    -5.5030 O.2     
  15 N15            1.6698    -4.1414    -0.5379 N.pl3   
  16 C16            0.7349    -4.1248     0.4621 C.2     
  17 C17            1.9981    -2.8504    -0.8049 C.2     
  18 N18            1.3068    -2.0689    -0.0227 N.2     
  19 C19            0.5173    -2.8198     0.7717 C.2     
  20 C20           -0.4222    -2.3113     1.8012 C.ar    
  21 C21           -0.5476    -0.9390     2.0175 C.ar    
  22 C22           -1.1865    -3.2025     2.5512 C.ar    
  23 C23           -2.0592    -2.7245     3.5079 C.ar    
  24 C24           -2.1762    -1.3622     3.7232 C.ar    
  25 C25           -1.4236    -0.4714     2.9771 C.ar    
  26 Cl26          -3.2762    -0.7682     4.9277 Cl      
  27 Cl27           0.3962     0.1787     1.0828 Cl      
  28 C28            2.9983    -2.3957    -1.8363 C.3     
  29 C29            4.3370    -2.1822    -1.1780 C.ar    
  30 C30            5.1998    -3.2501    -1.0087 C.ar    
  31 C31            4.7008    -0.9180    -0.7504 C.ar    
  32 C32            5.9257    -0.7166    -0.1473 C.ar    
  33 C33            6.7967    -1.7898     0.0307 C.ar    
  34 C34            6.4269    -3.0604    -0.4064 C.ar    
  35 C35            8.1148    -1.5794     0.6779 C.ar    
  36 C36            8.9849    -2.6540     0.8551 C.ar    
  37 C37            8.4877    -0.3058     1.1045 C.ar    
  38 C38            9.7134    -0.1126     1.7054 C.ar    
  39 C39           10.5770    -1.1864     1.8857 C.ar    
  40 C40           10.2096    -2.4561     1.4564 C.ar    
  41 N41           11.8199    -0.9879     2.4949 N.am    
  42 C42           12.9146    -1.1720     1.7560 C.2     
  43 C43           14.3103    -1.0405     2.2946 C.3     
  44 C44           14.2882    -0.2662     3.6149 C.3     
  45 C45           13.2075    -0.8755     4.5161 C.3     
  46 C46           11.8376    -0.5872     3.8962 C.3     
  47 O47           12.7757    -1.4614     0.5864 O.2     
  48 H48            3.7947    -8.1649    -0.4371 H       
  49 H49            2.8681    -6.1695     0.6644 H       
  50 H50            1.6375    -4.6425    -3.1345 H       
  51 H51            2.5595    -6.6396    -4.2367 H       
  52 H52            5.7408    -8.9602    -2.4196 H       
  53 H53            4.5393    -9.9710    -1.5919 H       
  54 H54            4.3595   -11.2741    -5.3481 H       
  55 H55            0.2620    -4.9827     0.9167 H       
  56 H56           -1.0966    -4.2657     2.3842 H       
  57 H57           -2.6522    -3.4149     4.0894 H       
  58 H58           -1.5185     0.5906     3.1489 H       
  59 H59            3.0919    -3.1561    -2.6117 H       
  60 H60            2.6600    -1.4609    -2.2832 H       
  61 H61            4.9123    -4.2343    -1.3481 H       
  62 H62            4.0251    -0.0869    -0.8891 H       
  63 H63            6.2088     0.2710     0.1859 H       
  64 H64            7.0981    -3.8957    -0.2711 H       
  65 H65            8.6997    -3.6410     0.5219 H       
  66 H66            7.8170     0.5290     0.9642 H       
  67 H67           10.0029     0.8740     2.0358 H       
  68 H68           10.8824    -3.2891     1.5976 H       
  69 H69           14.7280    -2.0330     2.4639 H       
  70 H70           14.9284    -0.5072     1.5724 H       
  71 H71           15.2598    -0.3446     4.1026 H       
  72 H72           14.0573     0.7815     3.4220 H       
  73 H73           13.3592    -1.9522     4.5923 H       
  74 H74           13.2612    -0.4252     5.5073 H       
  75 H75           11.6235     0.4786     3.9753 H       
  76 H76           11.0731    -1.1462     4.4359 H       
@<TRIPOS>BOND
   1    1    2 ar
   2    1    6 ar
   3    1   48 1
   4    2    3 ar
   5    2   49 1
   6    3    4 ar
   7    3   15 1
   8    4    5 ar
   9    4   50 1
  10    5    6 ar
  11    5   51 1
  12    6    7 1
  13    7    8 1
  14    7   11 am
  15    8    9 1
  16    8   52 1
  17    8   53 1
  18    9   10 am
  19    9   12 2
  20   10   11 am
  21   10   54 1
  22   11   13 2
  23   11   14 2
  24   15   16 1
  25   15   17 1
  26   16   19 2
  27   16   55 1
  28   17   18 2
  29   17   28 1
  30   18   19 1
  31   19   20 1
  32   20   21 ar
  33   20   22 ar
  34   21   27 1
  35   21   25 ar
  36   22   23 ar
  37   22   56 1
  38   23   24 ar
  39   23   57 1
  40   24   25 ar
  41   24   26 1
  42   25   58 1
  43   28   29 1
  44   28   59 1
  45   28   60 1
  46   29   30 ar
  47   29   31 ar
  48   30   34 ar
  49   30   61 1
  50   31   32 ar
  51   31   62 1
  52   32   33 ar
  53   32   63 1
  54   33   34 ar
  55   33   35 1
  56   34   64 1
  57   35   36 ar
  58   35   37 ar
  59   36   40 ar
  60   36   65 1
  61   37   38 ar
  62   37   66 1
  63   38   39 ar
  64   38   67 1
  65   39   40 ar
  66   39   41 1
  67   40   68 1
  68   41   42 am
  69   41   46 1
  70   42   43 1
  71   42   47 2
  72   43   44 1
  73   43   69 1
  74   43   70 1
  75   44   45 1
  76   44   71 1
  77   44   72 1
  78   45   46 1
  79   45   73 1
  80   45   74 1
  81   46   75 1
  82   46   76 1

#	End of record

