#	Name: ASD02408066
#	Creating user name:	WinNT
#	Creation time:	15. 06. 2019 20:21

#	Modifying user name:	WinNT
#	Modification time:	15. 06. 2019 20:21

#	Program:	/corina/corina34_cracker 3.40 0067  02.08.2006

@<TRIPOS>MOLECULE
ASD02408066
  46   49    0    0    0
SMALL
NO_CHARGES


@<TRIPOS>ATOM
   1 C1             0.5462     0.6165    -0.0818 C.ar    
   2 C2             0.8165    -0.7185    -0.3143 C.ar    
   3 C3             1.6699     1.6204    -0.0630 C.3     
   4 C4             1.8803     2.1650    -1.4523 C.2     
   5 N5             2.8457     3.0829    -1.6526 N.am    
   6 N6             1.1246     1.7275    -2.4226 N.2     
   7 C7             1.2665     2.1750    -3.6768 C.2     
   8 C8             2.2511     3.1373    -3.9556 C.2     
   9 C9             3.0619     3.5916    -2.8839 C.2     
  10 N10            0.4586     1.6980    -4.6796 N.pl3   
  11 C11            1.0075     1.4159    -6.0129 C.3     
  12 O12            3.9312     4.4255    -3.0699 O.2     
  13 C13           -0.2163    -1.6408    -0.3316 C.ar    
  14 C14           -1.5187    -1.2241    -0.1157 C.ar    
  15 C15           -1.7867     0.1118     0.1167 C.ar    
  16 C16           -0.7557     1.0324     0.1280 C.ar    
  17 C17            0.6561    -0.0251    -6.3962 C.3     
  18 C18           -0.8560    -0.2261    -6.2794 C.3     
  19 C19           -1.3041     0.0179    -4.8370 C.3     
  20 C20           -0.9700     1.4541    -4.4378 C.3     
  21 O21           -1.5323     0.6852    -7.1544 O.3     
  22 C22           -2.3069    -0.1047    -8.0795 C.3     
  23 C23           -2.4637    -1.4569    -7.3401 C.3     
  24 O24           -1.1896    -1.5707    -6.6614 O.3     
  25 F25            0.0469    -2.9462    -0.5593 F       
  26 C26            2.4345     3.6410    -5.2835 C.1     
  27 N27            2.5799     4.0405    -6.3370 N.1     
  28 H28            1.8329    -1.0424    -0.4830 H       
  29 H29            1.4162     2.4371     0.6128 H       
  30 H30            2.5842     1.1360     0.2797 H       
  31 H31            3.3892     3.3806    -0.9064 H       
  32 H32            0.5740     2.1032    -6.7394 H       
  33 H33            2.0908     1.5354    -5.9949 H       
  34 H34           -2.3250    -1.9425    -0.1292 H       
  35 H35           -2.8027     0.4371     0.2852 H       
  36 H36           -0.9660     2.0759     0.3101 H       
  37 H37            0.9701    -0.2154    -7.4225 H       
  38 H38            1.1677    -0.7151    -5.7251 H       
  39 H39           -2.3794    -0.1421    -4.7582 H       
  40 H40           -0.7836    -0.6721    -4.1728 H       
  41 H41           -1.1933     1.6010    -3.3811 H       
  42 H42           -1.5601     2.1468    -5.0378 H       
  43 H43           -3.2803     0.3531    -8.2558 H       
  44 H44           -1.7675    -0.2386    -9.0171 H       
  45 H45           -3.2848    -1.4174    -6.6244 H       
  46 H46           -2.6034    -2.2745    -8.0473 H       
@<TRIPOS>BOND
   1    1    2 ar
   2    1    3 1
   3    1   16 ar
   4    2   13 ar
   5    2   28 1
   6    3    4 1
   7    3   29 1
   8    3   30 1
   9    4    5 1
  10    4    6 2
  11    5    9 am
  12    5   31 1
  13    6    7 1
  14    7    8 2
  15    7   10 1
  16    8    9 1
  17    8   26 1
  18    9   12 2
  19   10   11 1
  20   10   20 1
  21   11   17 1
  22   11   32 1
  23   11   33 1
  24   13   14 ar
  25   13   25 1
  26   14   15 ar
  27   14   34 1
  28   15   16 ar
  29   15   35 1
  30   16   36 1
  31   17   18 1
  32   17   37 1
  33   17   38 1
  34   18   19 1
  35   18   21 1
  36   18   24 1
  37   19   20 1
  38   19   39 1
  39   19   40 1
  40   20   41 1
  41   20   42 1
  42   21   22 1
  43   22   23 1
  44   22   43 1
  45   22   44 1
  46   23   24 1
  47   23   45 1
  48   23   46 1
  49   26   27 3

#	End of record

