#	Name: ASD09116270
#	Creating user name:	WinNT
#	Creation time:	15. 06. 2019 21:21

#	Modifying user name:	WinNT
#	Modification time:	15. 06. 2019 21:21

#	Program:	/corina/corina34_cracker 3.40 0067  02.08.2006

@<TRIPOS>MOLECULE
ASD09116270
  82   88    0    0    0
SMALL
NO_CHARGES


@<TRIPOS>ATOM
   1 N1            -0.5140     3.8977     0.5645 N.pl3   
   2 N2            -1.0087     5.0752     1.1481 N.2     
   3 C3             0.8316     4.0359     0.5066 C.2     
   4 N4             1.1404     5.2095     1.0161 N.2     
   5 C5             0.0260     5.8393     1.4047 C.2     
   6 N6             1.7236     3.1080     0.0019 N.pl3   
   7 C7             3.0831     3.4281    -0.1021 C.ar    
   8 C8             4.0412     2.4276    -0.0069 C.ar    
   9 C9             5.3816     2.7433    -0.1089 C.ar    
  10 C10            5.7714     4.0612    -0.3071 C.ar    
  11 C11            4.8130     5.0619    -0.4028 C.ar    
  12 C12            3.4727     4.7456    -0.3060 C.ar    
  13 C13           -1.2612     2.7996     0.1348 C.ar    
  14 N14           -0.7834     2.0017    -0.8085 N.ar    
  15 N15           -1.4348     0.9835    -1.2462 N.ar    
  16 C16           -2.6319     0.6714    -0.7763 C.ar    
  17 C17           -3.2070     1.4444     0.2364 C.ar    
  18 C18           -2.5104     2.5388     0.7037 C.ar    
  19 C19           -3.4077    -0.4690    -1.3166 C.ar    
  20 C20           -4.7390    -0.2657    -1.6834 C.ar    
  21 C21           -5.3323     1.1121    -1.5738 C.3     
  22 C22           -5.6734     1.4581    -0.1269 C.3     
  23 C23           -4.5379     1.0514     0.8085 C.3     
  24 C24           -2.8318    -1.7267    -1.4567 C.ar    
  25 C25           -3.5890    -2.7753    -1.9421 C.ar    
  26 C26           -4.9138    -2.5745    -2.2849 C.ar    
  27 C27           -5.4885    -1.3220    -2.1549 C.ar    
  28 N28           -0.0271     7.1045     1.9887 N.pl3   
  29 C29            5.2360     6.4923    -0.6179 C.3     
  30 N30            7.1300     4.3811    -0.4101 N.3     
  31 C31            7.8537     4.0024     0.8102 C.3     
  32 C32            9.2995     4.4965     0.7215 C.3     
  33 C33            9.9714     3.8757    -0.5063 C.3     
  34 C34            9.1707     4.2452    -1.7581 C.3     
  35 C35            7.7288     3.7584    -1.5975 C.3     
  36 N36           11.3413     4.3916    -0.6297 N.3     
  37 C37           12.0569     3.7283    -1.7285 C.3     
  38 C38           13.4487     4.3479    -1.8748 C.3     
  39 N39           14.1820     4.2032    -0.6095 N.3     
  40 C40           13.4663     4.8666     0.4893 C.3     
  41 C41           12.0745     4.2470     0.6356 C.3     
  42 C42           15.5518     4.7192    -0.7329 C.3     
  43 H43            1.4078     2.2353    -0.2802 H       
  44 H44            3.7380     1.4026     0.1473 H       
  45 H45            6.1269     1.9651    -0.0341 H       
  46 H46            2.7275     5.5237    -0.3807 H       
  47 H47           -2.9186     3.1752     1.4749 H       
  48 H48           -4.6163     1.8401    -1.9552 H       
  49 H49           -6.2404     1.1582    -2.1750 H       
  50 H50           -5.8391     2.5323    -0.0443 H       
  51 H51           -6.5830     0.9321     0.1630 H       
  52 H52           -4.5614    -0.0288     0.9522 H       
  53 H53           -4.6734     1.5433     1.7717 H       
  54 H54           -1.7975    -1.8831    -1.1878 H       
  55 H55           -3.1456    -3.7536    -2.0546 H       
  56 H56           -5.5035    -3.3999    -2.6558 H       
  57 H57           -6.5237    -1.1721    -2.4239 H       
  58 H58            0.7911     7.6020     2.1432 H       
  59 H59           -0.8822     7.4870     2.2405 H       
  60 H60            5.2935     6.6973    -1.6869 H       
  61 H61            4.5069     7.1598    -0.1587 H       
  62 H62            6.2136     6.6543    -0.1638 H       
  63 H63            7.3681     4.4538     1.6754 H       
  64 H64            7.8465     2.9175     0.9148 H       
  65 H65            9.3079     5.5827     0.6308 H       
  66 H66            9.8406     4.2016     1.6206 H       
  67 H67            9.9980     2.7914    -0.3978 H       
  68 H68            9.1772     5.3274    -1.8879 H       
  69 H69            9.6199     3.7708    -2.6306 H       
  70 H70            7.7221     2.6746    -1.4816 H       
  71 H71            7.1524     4.0326    -2.4811 H       
  72 H72           12.1534     2.6648    -1.5100 H       
  73 H73           11.5008     3.8601    -2.6567 H       
  74 H74           13.9921     3.8379    -2.6703 H       
  75 H75           13.3520     5.4055    -2.1202 H       
  76 H76           14.0224     4.7348     1.4175 H       
  77 H77           13.3698     5.9301     0.2708 H       
  78 H78           11.5312     4.7570     1.4311 H       
  79 H79           12.1712     3.1894     0.8810 H       
  80 H80           15.5195     5.7757    -0.9993 H       
  81 H81           16.0720     4.5999     0.2175 H       
  82 H82           16.0804     4.1649    -1.5084 H       
@<TRIPOS>BOND
   1    1    2 1
   2    1    3 1
   3    1   13 1
   4    2    5 2
   5    3    4 2
   6    3    6 1
   7    4    5 1
   8    5   28 1
   9    6    7 1
  10    6   43 1
  11    7    8 ar
  12    7   12 ar
  13    8    9 ar
  14    8   44 1
  15    9   10 ar
  16    9   45 1
  17   10   11 ar
  18   10   30 1
  19   11   12 ar
  20   11   29 1
  21   12   46 1
  22   13   14 ar
  23   13   18 ar
  24   14   15 ar
  25   15   16 ar
  26   16   17 ar
  27   16   19 1
  28   17   18 ar
  29   17   23 1
  30   18   47 1
  31   19   20 ar
  32   19   24 ar
  33   20   21 1
  34   20   27 ar
  35   21   22 1
  36   21   48 1
  37   21   49 1
  38   22   23 1
  39   22   50 1
  40   22   51 1
  41   23   52 1
  42   23   53 1
  43   24   25 ar
  44   24   54 1
  45   25   26 ar
  46   25   55 1
  47   26   27 ar
  48   26   56 1
  49   27   57 1
  50   28   58 1
  51   28   59 1
  52   29   60 1
  53   29   61 1
  54   29   62 1
  55   30   31 1
  56   30   35 1
  57   31   32 1
  58   31   63 1
  59   31   64 1
  60   32   33 1
  61   32   65 1
  62   32   66 1
  63   33   34 1
  64   33   36 1
  65   33   67 1
  66   34   35 1
  67   34   68 1
  68   34   69 1
  69   35   70 1
  70   35   71 1
  71   36   37 1
  72   36   41 1
  73   37   38 1
  74   37   72 1
  75   37   73 1
  76   38   39 1
  77   38   74 1
  78   38   75 1
  79   39   40 1
  80   39   42 1
  81   40   41 1
  82   40   76 1
  83   40   77 1
  84   41   78 1
  85   41   79 1
  86   42   80 1
  87   42   81 1
  88   42   82 1

#	End of record

