#	Name: ASD07930491
#	Creating user name:	WinNT
#	Creation time:	15. 06. 2019 21:12

#	Modifying user name:	WinNT
#	Modification time:	15. 06. 2019 21:12

#	Program:	/corina/corina34_cracker 3.40 0067  02.08.2006

@<TRIPOS>MOLECULE
ASD07930491
  55   57    0    0    0
SMALL
NO_CHARGES


@<TRIPOS>ATOM
   1 C1            -0.3858     1.1402     0.6286 C.3     
   2 N2             0.4624    -1.0793    -1.1784 N.2     
   3 N3            -1.5155    -2.0986    -0.4640 N.pl3   
   4 C4            -1.8444    -2.9938     0.6503 C.3     
   5 C5            -2.2548    -2.1554     1.8688 C.3     
   6 S6            -0.8993    -1.0018     2.2511 S.o2    
   7 N7            -0.5825    -0.3045     0.7712 N.am    
   8 C8            -0.5146    -1.1598    -0.3194 C.2     
   9 C9            -0.6208    -3.8420     1.0025 C.3     
  10 C10           -2.9848    -3.8949     0.2522 C.ar    
  11 C11           -3.6145    -3.7147    -0.9635 C.ar    
  12 C12           -4.6656    -4.5455    -1.3299 C.ar    
  13 C13           -5.0808    -5.5557    -0.4726 C.ar    
  14 C14           -4.4482    -5.7324     0.7425 C.ar    
  15 C15           -3.3969    -4.9067     1.1034 C.ar    
  16 N16           -5.3054    -4.3643    -2.5612 N.am    
  17 C17           -5.8129    -5.4253    -3.2194 C.2     
  18 O18           -5.6268    -6.5494    -2.7956 O.2     
  19 O19           -1.3629     0.0707     3.0598 O.2     
  20 O20            0.2894    -1.7100     2.5745 O.2     
  21 F21           -2.7792    -5.0815     2.2921 F       
  22 C22           -6.5962    -5.2220    -4.4573 C.ar    
  23 C23           -7.1180    -6.3248    -5.1326 C.ar    
  24 C24           -7.8495    -6.1220    -6.2893 C.ar    
  25 C25           -8.0364    -4.8169    -6.7354 C.ar    
  26 C26           -7.4854    -3.7642    -6.0089 C.ar    
  27 N27           -6.8000    -3.9904    -4.9113 N.ar    
  28 O28           -8.7471    -4.5729    -7.8657 O.3     
  29 C29           -9.2669    -5.7069    -8.5627 C.3     
  30 C30          -10.5912    -6.1336    -7.9264 C.3     
  31 C31           -9.5005    -5.3409   -10.0298 C.3     
  32 H32            0.6710     1.3769     0.7517 H       
  33 H33           -0.7160     1.4558    -0.3611 H       
  34 H34           -0.9662     1.6627     1.3889 H       
  35 H35            1.1578    -0.4134    -1.0611 H       
  36 H36           -1.9980    -2.1691    -1.3025 H       
  37 H37           -3.1612    -1.5946     1.6405 H       
  38 H38           -2.4321    -2.8098     2.7222 H       
  39 H39            0.2027    -3.1893     1.2922 H       
  40 H40           -0.8658    -4.5071     1.8306 H       
  41 H41           -0.3274    -4.4341     0.1356 H       
  42 H42           -3.2902    -2.9281    -1.6287 H       
  43 H43           -5.8981    -6.2025    -0.7554 H       
  44 H44           -4.7711    -6.5178     1.4098 H       
  45 H45           -5.3837    -3.4752    -2.9410 H       
  46 H46           -6.9530    -7.3242    -4.7578 H       
  47 H47           -8.2654    -6.9570    -6.8336 H       
  48 H48           -7.6265    -2.7492    -6.3499 H       
  49 H49           -8.5534    -6.5288    -8.5025 H       
  50 H50          -11.3047    -5.3118    -7.9866 H       
  51 H51          -10.9877    -6.9986    -8.4580 H       
  52 H52          -10.4248    -6.3944    -6.8812 H       
  53 H53           -8.5570    -5.0369   -10.4831 H       
  54 H54           -9.8970    -6.2059   -10.5614 H       
  55 H55          -10.2139    -4.5190   -10.0900 H       
@<TRIPOS>BOND
   1    1    7 1
   2    1   32 1
   3    1   33 1
   4    1   34 1
   5    2    8 2
   6    2   35 1
   7    3    4 1
   8    3    8 1
   9    3   36 1
  10    4    5 1
  11    4    9 1
  12    4   10 1
  13    5    6 1
  14    5   37 1
  15    5   38 1
  16    6    7 am
  17    6   19 2
  18    6   20 2
  19    7    8 1
  20    9   39 1
  21    9   40 1
  22    9   41 1
  23   10   11 ar
  24   10   15 ar
  25   11   12 ar
  26   11   42 1
  27   12   13 ar
  28   12   16 1
  29   13   14 ar
  30   13   43 1
  31   14   15 ar
  32   14   44 1
  33   15   21 1
  34   16   17 am
  35   16   45 1
  36   17   18 2
  37   17   22 1
  38   22   23 ar
  39   22   27 ar
  40   23   24 ar
  41   23   46 1
  42   24   25 ar
  43   24   47 1
  44   25   26 ar
  45   25   28 1
  46   26   27 ar
  47   26   48 1
  48   28   29 1
  49   29   30 1
  50   29   31 1
  51   29   49 1
  52   30   50 1
  53   30   51 1
  54   30   52 1
  55   31   53 1
  56   31   54 1
  57   31   55 1

#	End of record

