#	Name: ASD03930179
#	Creating user name:	WinNT
#	Creation time:	15. 06. 2019 20:47

#	Modifying user name:	WinNT
#	Modification time:	15. 06. 2019 20:47

#	Program:	/corina/corina34_cracker 3.40 0067  02.08.2006

@<TRIPOS>MOLECULE
ASD03930179
  19   19    0    0    0
SMALL
NO_CHARGES


@<TRIPOS>ATOM
   1 C1            -0.0167     1.3833     0.0096 C.ar    
   2 C2             0.0021    -0.0041     0.0020 C.ar    
   3 C3             1.2136    -0.6792    -0.0132 C.ar    
   4 C4             2.3989     0.0306    -0.0207 C.ar    
   5 C5             2.3779     1.4137    -0.0131 C.ar    
   6 C6             1.1704     2.0891     0.0021 C.ar    
   7 S7            -1.5541     2.2440     0.0216 S.o2    
   8 O8            -1.8978     2.4327     1.3875 O.2     
   9 O9            -1.4209     3.3161    -0.9015 O.2     
  10 Cl10          -2.9437     0.9969    -0.7492 Cl      
  11 O11           -1.1651    -0.7005     0.0099 O.3     
  12 C12           -1.0698    -2.1263     0.0013 C.3     
  13 Br13           4.0018     2.3826    -0.0227 Br      
  14 H14            1.2304    -1.7591    -0.0188 H       
  15 H15            3.3425    -0.4947    -0.0322 H       
  16 H16            1.1562     3.1690     0.0080 H       
  17 H17           -0.5417    -2.4498    -0.8957 H       
  18 H18           -0.5241    -2.4593     0.8841 H       
  19 H19           -2.0709    -2.5574     0.0089 H       
@<TRIPOS>BOND
   1    1    2 ar
   2    1    6 ar
   3    1    7 1
   4    2    3 ar
   5    2   11 1
   6    3    4 ar
   7    3   14 1
   8    4    5 ar
   9    4   15 1
  10    5    6 ar
  11    5   13 1
  12    6   16 1
  13    7    8 2
  14    7    9 2
  15    7   10 1
  16   11   12 1
  17   12   17 1
  18   12   18 1
  19   12   19 1

#	End of record

