#	Name: ASD03092226
#	Creating user name:	WinNT
#	Creation time:	15. 06. 2019 20:32

#	Modifying user name:	WinNT
#	Modification time:	15. 06. 2019 20:32

#	Program:	/corina/corina34_cracker 3.40 0067  02.08.2006

@<TRIPOS>MOLECULE
ASD03092226
  45   47    0    0    0
SMALL
NO_CHARGES


@<TRIPOS>ATOM
   1 N1            -0.3170     1.2760     0.1291 N.pl3   
   2 C2            -0.3767    -0.0662     0.2763 C.2     
   3 N3            -1.6433    -0.4253     0.2162 N.2     
   4 C4            -2.4082     0.6517     0.0335 C.2     
   5 N5            -1.6418     1.7172    -0.0200 N.2     
   6 C6             0.8898     2.1066     0.1310 C.3     
   7 C7             1.3931     2.2782    -1.3037 C.3     
   8 O8             0.4299     3.0128    -2.0617 O.3     
   9 C9             2.7202     3.0394    -1.2909 C.3     
  10 C10            3.2856     3.1026    -2.7112 C.3     
  11 C11            0.7769    -0.9729     0.4707 C.ar    
  12 C12            0.6034    -2.2512     1.0115 C.ar    
  13 C13            1.7066    -3.0640     1.1750 C.ar    
  14 N14            2.9103    -2.6495     0.8298 N.ar    
  15 C15            3.1178    -1.4520     0.3165 C.ar    
  16 C16            2.0706    -0.5772     0.1133 C.ar    
  17 N17           -3.8000     0.6480    -0.0776 N.pl3   
  18 C18           -4.4947    -0.5639    -0.1143 C.ar    
  19 C19           -5.8091    -0.6262     0.3299 C.ar    
  20 C20           -6.4935    -1.8267     0.2916 C.ar    
  21 C21           -5.8698    -2.9649    -0.1886 C.ar    
  22 C22           -4.5609    -2.9053    -0.6309 C.ar    
  23 C23           -3.8738    -1.7079    -0.6006 C.ar    
  24 Cl24          -8.1363    -1.9066     0.8470 Cl      
  25 C25            1.5339    -4.4435     1.7565 C.3     
  26 H26            0.6576     3.0840     0.5539 H       
  27 H27            1.6614     1.6248     0.7315 H       
  28 H28            1.5409     1.2978    -1.7566 H       
  29 H29            0.2482     3.8972    -1.7153 H       
  30 H30            2.5552     4.0511    -0.9202 H       
  31 H31            3.4279     2.5251    -0.6407 H       
  32 H32            3.4506     2.0909    -3.0819 H       
  33 H33            2.5779     3.6169    -3.3615 H       
  34 H34            4.2311     3.6449    -2.7022 H       
  35 H35           -0.3792    -2.5968     1.2971 H       
  36 H36            4.1206    -1.1540     0.0483 H       
  37 H37            2.2478     0.4015    -0.3076 H       
  38 H38           -4.2847     1.4866    -0.1292 H       
  39 H39           -6.2958     0.2619     0.7050 H       
  40 H40           -6.4063    -3.9018    -0.2176 H       
  41 H41           -4.0768    -3.7955    -1.0044 H       
  42 H42           -2.8517    -1.6625    -0.9464 H       
  43 H43            1.3520    -5.1565     0.9523 H       
  44 H44            2.4381    -4.7265     2.2953 H       
  45 H45            0.6867    -4.4453     2.4422 H       
@<TRIPOS>BOND
   1    1    2 1
   2    1    6 1
   3    1    5 1
   4    2    3 2
   5    2   11 1
   6    3    4 1
   7    4    5 2
   8    4   17 1
   9    6    7 1
  10    6   26 1
  11    6   27 1
  12    7    8 1
  13    7    9 1
  14    7   28 1
  15    8   29 1
  16    9   10 1
  17    9   30 1
  18    9   31 1
  19   10   32 1
  20   10   33 1
  21   10   34 1
  22   11   12 ar
  23   11   16 ar
  24   12   13 ar
  25   12   35 1
  26   13   14 ar
  27   13   25 1
  28   14   15 ar
  29   15   16 ar
  30   15   36 1
  31   16   37 1
  32   17   18 1
  33   17   38 1
  34   18   19 ar
  35   18   23 ar
  36   19   20 ar
  37   19   39 1
  38   20   21 ar
  39   20   24 1
  40   21   22 ar
  41   21   40 1
  42   22   23 ar
  43   22   41 1
  44   23   42 1
  45   25   43 1
  46   25   44 1
  47   25   45 1

#	End of record

