#	Name: ASD01410392
#	Creating user name:	WinNT
#	Creation time:	15. 06. 2019 19:17

#	Modifying user name:	WinNT
#	Modification time:	15. 06. 2019 19:17

#	Program:	/corina/corina34_cracker 3.40 0067  02.08.2006

@<TRIPOS>MOLECULE
ASD01410392
  26   27    0    0    0
SMALL
NO_CHARGES


@<TRIPOS>ATOM
   1 S1             0.1194     1.7710     0.8282 S.3     
   2 C2             0.1915     0.0066     0.9785 C.2     
   3 N3             1.4328    -0.3625     0.6426 N.am    
   4 C4             2.3137     0.5585     0.2889 C.2     
   5 C5             1.8075     1.9379     0.3062 C.2     
   6 O6             3.4566     0.2845    -0.0265 O.2     
   7 S7            -1.0837    -1.0281     1.4624 S.2     
   8 C8             2.4760     3.0761    -0.0051 C.2     
   9 C9             1.7535     4.3536    -0.0881 C.ar    
  10 C10            2.4484     5.5632     0.0214 C.ar    
  11 C11            1.7633     6.7569    -0.0575 C.ar    
  12 C12            0.3918     6.7611    -0.2444 C.ar    
  13 C13           -0.3031     5.5690    -0.3536 C.ar    
  14 C14            0.3678     4.3667    -0.2827 C.ar    
  15 C15            1.8138    -1.7768     0.6668 C.3     
  16 N16           -0.3359     8.0475    -0.3274 N.pl3   
  17 O17            0.2722     9.0985    -0.2313 O.2     
  18 O18           -1.5427     8.0551    -0.4918 O.2     
  19 H19            3.5392     3.0439    -0.1919 H       
  20 H20            3.5185     5.5616     0.1676 H       
  21 H21            2.2981     7.6914     0.0272 H       
  22 H22           -1.3732     5.5808    -0.4990 H       
  23 H23           -0.1752     3.4374    -0.3725 H       
  24 H24            0.9603    -2.3777     0.9809 H       
  25 H25            2.1281    -2.0855    -0.3302 H       
  26 H26            2.6363    -1.9196     1.3676 H       
@<TRIPOS>BOND
   1    1    2 1
   2    1    5 1
   3    2    3 am
   4    2    7 2
   5    3    4 am
   6    3   15 1
   7    4    5 1
   8    4    6 2
   9    5    8 2
  10    8    9 1
  11    8   19 1
  12    9   10 ar
  13    9   14 ar
  14   10   11 ar
  15   10   20 1
  16   11   12 ar
  17   11   21 1
  18   12   13 ar
  19   12   16 1
  20   13   14 ar
  21   13   22 1
  22   14   23 1
  23   15   24 1
  24   15   25 1
  25   15   26 1
  26   16   17 2
  27   16   18 2

#	End of record

