#	Name: ASD01840266
#	Creating user name:	WinNT
#	Creation time:	15. 06. 2019 19:37

#	Modifying user name:	WinNT
#	Modification time:	15. 06. 2019 19:37

#	Program:	/corina/corina34_cracker 3.40 0067  02.08.2006

@<TRIPOS>MOLECULE
ASD01840266
  44   47    0    0    0
SMALL
NO_CHARGES


@<TRIPOS>ATOM
   1 C1             1.7285    -2.2136     0.1642 C.3     
   2 O2             1.3452    -3.5306    -0.2367 O.3     
   3 C3             0.0191    -3.8252    -0.2001 C.ar    
   4 C4            -0.8951    -2.8647     0.2077 C.ar    
   5 C5            -2.2427    -3.1665     0.2436 C.ar    
   6 C6            -2.6806    -4.4248    -0.1260 C.ar    
   7 C7            -4.1512    -4.7515    -0.0854 C.3     
   8 N8            -4.7592    -4.4280    -1.3784 N.pl3   
   9 C9            -6.1273    -4.6469    -1.5833 C.2     
  10 N10           -6.9643    -5.1273    -0.7018 N.2     
  11 N11           -8.2367    -5.1987    -1.2750 N.pl3   
  12 C12           -9.4532    -5.6818    -0.6170 C.3     
  13 C13           -8.1437    -4.7315    -2.5748 C.2     
  14 C14           -6.8394    -4.3790    -2.7805 C.2     
  15 S15           -6.6033    -3.7600    -4.4080 S.3     
  16 C16           -8.2957    -3.9730    -4.8259 C.ar    
  17 N17           -8.9479    -3.7145    -5.9613 N.ar    
  18 N18          -10.2024    -3.9340    -6.0948 N.ar    
  19 C19          -10.9465    -4.4317    -5.1227 C.ar    
  20 C20          -12.4182    -4.6662    -5.3468 C.3     
  21 C21          -10.3787    -4.7373    -3.9039 C.ar    
  22 C22          -11.2079    -5.3061    -2.7815 C.3     
  23 C23           -8.9952    -4.5092    -3.7430 C.ar    
  24 C24           -1.7716    -5.3837    -0.5332 C.ar    
  25 C25           -0.4234    -5.0852    -0.5759 C.ar    
  26 H26            2.8110    -2.1113     0.0881 H       
  27 H27            1.2479    -1.4818    -0.4851 H       
  28 H28            1.4190    -2.0431     1.1953 H       
  29 H29           -0.5535    -1.8819     0.4972 H       
  30 H30           -2.9547    -2.4191     0.5610 H       
  31 H31           -4.2818    -5.8136     0.1219 H       
  32 H32           -4.6319    -4.1664     0.6987 H       
  33 H33           -4.2143    -4.0621    -2.0926 H       
  34 H34          -10.0229    -4.8332    -0.2383 H       
  35 H35          -10.0592    -6.2350    -1.3346 H       
  36 H36           -9.1827    -6.3366     0.2113 H       
  37 H37          -12.5709    -5.6739    -5.7331 H       
  38 H38          -12.9518    -4.5541    -4.4030 H       
  39 H39          -12.7964    -3.9400    -6.0664 H       
  40 H40          -11.1007    -6.3906    -2.7641 H       
  41 H41          -10.8675    -4.8920    -1.8324 H       
  42 H42          -12.2553    -5.0469    -2.9361 H       
  43 H43           -2.1161    -6.3658    -0.8218 H       
  44 H44            0.2859    -5.8334    -0.8976 H       
@<TRIPOS>BOND
   1    1    2 1
   2    1   26 1
   3    1   27 1
   4    1   28 1
   5    2    3 1
   6    3   25 ar
   7    3    4 ar
   8    4    5 ar
   9    4   29 1
  10    5    6 ar
  11    5   30 1
  12    6    7 1
  13    6   24 ar
  14    7    8 1
  15    7   31 1
  16    7   32 1
  17    8    9 1
  18    8   33 1
  19    9   14 1
  20    9   10 2
  21   10   11 1
  22   11   12 1
  23   11   13 1
  24   12   34 1
  25   12   35 1
  26   12   36 1
  27   13   23 1
  28   13   14 2
  29   14   15 1
  30   15   16 1
  31   16   23 ar
  32   16   17 ar
  33   17   18 ar
  34   18   19 ar
  35   19   20 1
  36   19   21 ar
  37   20   37 1
  38   20   38 1
  39   20   39 1
  40   21   22 1
  41   21   23 ar
  42   22   40 1
  43   22   41 1
  44   22   42 1
  45   24   25 ar
  46   24   43 1
  47   25   44 1

#	End of record

