#	Name: ASD05740219
#	Creating user name:	WinNT
#	Creation time:	15. 06. 2019 21:03

#	Modifying user name:	WinNT
#	Modification time:	15. 06. 2019 21:03

#	Program:	/corina/corina34_cracker 3.40 0067  02.08.2006

@<TRIPOS>MOLECULE
ASD05740219
  71   76    0    0    0
SMALL
NO_CHARGES


@<TRIPOS>ATOM
   1 C1             1.6085    -2.7562     0.8551 C.3     
   2 N2             0.7472    -1.9252     1.7079 N.3     
   3 C3            -0.6052    -2.1858     1.4601 C.ar    
   4 C4            -1.5852    -1.5006     2.1664 C.ar    
   5 C5            -2.9195    -1.7577     1.9219 C.ar    
   6 C6            -3.2816    -2.7018     0.9700 C.ar    
   7 C7            -2.3018    -3.3873     0.2640 C.ar    
   8 C8            -0.9675    -3.1254     0.5038 C.ar    
   9 N9            -4.6354    -2.9630     0.7223 N.pl3   
  10 C10           -5.5613    -1.9411     0.8000 C.ar    
  11 N11           -5.1290    -0.7007     0.9991 N.ar    
  12 N12           -6.8467    -2.2343     0.6679 N.ar    
  13 C13           -7.7635    -1.2779     0.7371 C.ar    
  14 C14           -7.3413     0.0524     0.9535 C.ar    
  15 C15           -5.9722     0.3128     1.0812 C.ar    
  16 N16           -9.1007    -1.5498     0.6038 N.am    
  17 C17          -10.0167    -0.5678     0.6762 C.2     
  18 C18           -9.6498     0.7762     0.8902 C.2     
  19 C19           -8.3411     1.1131     1.0315 C.2     
  20 C20           -9.5379    -2.9299     0.3789 C.3     
  21 O21          -11.1965    -0.8476     0.5531 O.2     
  22 C22           -9.6854    -3.6324     1.7039 C.ar    
  23 C23           -9.9737    -4.9965     1.7434 C.ar    
  24 C24            1.0698    -2.1219     3.1281 C.3     
  25 C25            2.5346    -1.7512     3.3718 C.3     
  26 N26            3.3959    -2.5823     2.5190 N.3     
  27 C27            3.0733    -2.3856     1.0989 C.3     
  28 C28            4.8156    -2.3087     2.7792 C.3     
  29 C29          -10.1083    -5.6398     2.9742 C.ar    
  30 C30           -9.9557    -4.9241     4.1436 C.ar    
  31 C31           -9.6702    -3.5710     4.0978 C.ar    
  32 C32           -9.5299    -2.9286     2.8808 C.ar    
  33 C33          -10.1367    -5.7582     0.4853 C.2     
  34 N34           -9.5107    -6.9245     0.1604 N.pl3   
  35 N35           -9.9484    -7.3023    -1.1154 N.2     
  36 C36          -10.8006    -6.4063    -1.5446 C.2     
  37 C37          -10.9469    -5.4256    -0.5634 C.2     
  38 C38          -11.5098    -6.4328    -2.8741 C.3     
  39 C39           -8.5522    -7.6524     0.9957 C.3     
  40 F40          -11.2068    -7.6250    -3.5405 F       
  41 F41          -12.8911    -6.3521    -2.6675 F       
  42 F42          -11.0897    -5.3460    -3.6484 F       
  43 H43            1.4543    -3.8077     1.0974 H       
  44 H44            1.3590    -2.5835    -0.1918 H       
  45 H45           -1.3036    -0.7669     2.9072 H       
  46 H46           -3.6816    -1.2249     2.4712 H       
  47 H47           -2.5835    -4.1220    -0.4758 H       
  48 H48           -0.2054    -3.6585    -0.0453 H       
  49 H49           -4.9225    -3.8615     0.4962 H       
  50 H50           -5.6139     1.3180     1.2477 H       
  51 H51          -10.4112     1.5404     0.9424 H       
  52 H52           -8.0480     2.1395     1.1962 H       
  53 H53          -10.4966    -2.9273    -0.1397 H       
  54 H54           -8.7977    -3.4511    -0.2283 H       
  55 H55            0.4276    -1.4868     3.7382 H       
  56 H56            0.9095    -3.1662     3.3961 H       
  57 H57            2.6888    -0.6997     3.1295 H       
  58 H58            2.7840    -1.9239     4.4187 H       
  59 H59            3.7155    -3.0207     0.4887 H       
  60 H60            3.2336    -1.3413     0.8308 H       
  61 H61            5.0423    -2.5267     3.8228 H       
  62 H62            5.4306    -2.9370     2.1349 H       
  63 H63            5.0272    -1.2596     2.5728 H       
  64 H64          -10.3319    -6.6958     3.0113 H       
  65 H65          -10.0597    -5.4209     5.0969 H       
  66 H66           -9.5524    -3.0148     5.0160 H       
  67 H67           -9.3071    -1.8723     2.8515 H       
  68 H68          -11.5824    -4.5545    -0.6246 H       
  69 H69           -9.0913    -8.2969     1.6899 H       
  70 H70           -7.9065    -8.2604     0.3621 H       
  71 H71           -7.9456    -6.9413     1.5565 H       
@<TRIPOS>BOND
   1    1    2 1
   2    1   27 1
   3    1   43 1
   4    1   44 1
   5    2    3 1
   6    2   24 1
   7    3    4 ar
   8    3    8 ar
   9    4    5 ar
  10    4   45 1
  11    5    6 ar
  12    5   46 1
  13    6    7 ar
  14    6    9 1
  15    7    8 ar
  16    7   47 1
  17    8   48 1
  18    9   10 1
  19    9   49 1
  20   10   11 ar
  21   10   12 ar
  22   11   15 ar
  23   12   13 ar
  24   13   14 ar
  25   13   16 1
  26   14   15 ar
  27   14   19 1
  28   15   50 1
  29   16   17 am
  30   16   20 1
  31   17   18 1
  32   17   21 2
  33   18   19 2
  34   18   51 1
  35   19   52 1
  36   20   22 1
  37   20   53 1
  38   20   54 1
  39   22   23 ar
  40   22   32 ar
  41   23   29 ar
  42   23   33 1
  43   24   25 1
  44   24   55 1
  45   24   56 1
  46   25   26 1
  47   25   57 1
  48   25   58 1
  49   26   27 1
  50   26   28 1
  51   27   59 1
  52   27   60 1
  53   28   61 1
  54   28   62 1
  55   28   63 1
  56   29   30 ar
  57   29   64 1
  58   30   31 ar
  59   30   65 1
  60   31   32 ar
  61   31   66 1
  62   32   67 1
  63   33   34 1
  64   33   37 2
  65   34   35 1
  66   34   39 1
  67   35   36 2
  68   36   37 1
  69   36   38 1
  70   37   68 1
  71   38   40 1
  72   38   41 1
  73   38   42 1
  74   39   69 1
  75   39   70 1
  76   39   71 1

#	End of record

