#	Name: ASD01811191
#	Creating user name:	WinNT
#	Creation time:	15. 06. 2019 19:26

#	Modifying user name:	WinNT
#	Modification time:	15. 06. 2019 19:26

#	Program:	/corina/corina34_cracker 3.40 0067  02.08.2006

@<TRIPOS>MOLECULE
ASD01811191
  31   32    0    0    0
SMALL
NO_CHARGES


@<TRIPOS>ATOM
   1 C1            -0.0180     1.4730     0.0101 C.2     
   2 C2             0.0021    -0.0041     0.0020 C.ar    
   3 C3             1.2190    -0.6889    -0.0133 C.ar    
   4 C4             1.2304    -2.0681    -0.0203 C.ar    
   5 C5             0.0396    -2.7731    -0.0127 C.ar    
   6 C6            -1.1695    -2.1010     0.0020 C.ar    
   7 C7            -1.1954    -0.7216     0.0154 C.ar    
   8 O8             1.0256     2.0946     0.0035 O.2     
   9 O9            -1.1936     2.1307     0.0193 O.3     
  10 C10            2.5167     0.0772    -0.0226 C.3     
  11 C11            2.8144     0.5588    -1.4439 C.3     
  12 C12            0.0601    -4.2800    -0.0210 C.3     
  13 C13           -0.5976    -5.0019     1.1568 C.3     
  14 C14           -1.2739    -5.0035    -0.2156 C.3     
  15 C15           -1.1373     3.5816     0.0269 C.3     
  16 H16            2.1708    -2.5990    -0.0321 H       
  17 H17           -2.0952    -2.6573     0.0071 H       
  18 H18           -2.1399    -0.1982     0.0318 H       
  19 H19            2.4360     0.9367     0.6429 H       
  20 H20            3.3239    -0.5714     0.3179 H       
  21 H21            3.7531     1.1129    -1.4507 H       
  22 H22            2.8952    -0.3007    -2.1094 H       
  23 H23            2.0072     1.2073    -1.7844 H       
  24 H24            0.9486    -4.7357    -0.4579 H       
  25 H25           -0.1420    -5.9327     1.4945 H       
  26 H26           -1.0450    -4.3869     1.9377 H       
  27 H27           -2.1663    -4.3897    -0.3376 H       
  28 H28           -1.2632    -5.9355    -0.7808 H       
  29 H29           -0.6055     3.9199     0.9162 H       
  30 H30           -0.6140     3.9295    -0.8637 H       
  31 H31           -2.1501     3.9844     0.0339 H       
@<TRIPOS>BOND
   1    1    2 1
   2    1    8 2
   3    1    9 1
   4    2    3 ar
   5    2    7 ar
   6    3    4 ar
   7    3   10 1
   8    4    5 ar
   9    4   16 1
  10    5    6 ar
  11    5   12 1
  12    6    7 ar
  13    6   17 1
  14    7   18 1
  15    9   15 1
  16   10   11 1
  17   10   19 1
  18   10   20 1
  19   11   21 1
  20   11   22 1
  21   11   23 1
  22   12   13 1
  23   12   14 1
  24   12   24 1
  25   13   14 1
  26   13   25 1
  27   13   26 1
  28   14   27 1
  29   14   28 1
  30   15   29 1
  31   15   30 1
  32   15   31 1

#	End of record

