#	Name: ASD01901595
#	Creating user name:	WinNT
#	Creation time:	15. 06. 2019 19:54

#	Modifying user name:	WinNT
#	Modification time:	15. 06. 2019 19:54

#	Program:	/corina/corina34_cracker 3.40 0067  02.08.2006

@<TRIPOS>MOLECULE
ASD01901595
  45   49    0    0    0
SMALL
NO_CHARGES


@<TRIPOS>ATOM
   1 F1             0.7393     1.2442    -1.0655 F       
   2 C2             0.6833     2.6118    -0.7760 C.3     
   3 H3             1.6845     2.9998    -0.5887 H       
   4 C4             0.0185     3.3806    -1.9412 C.3     
   5 C5            -1.4503     3.5204    -1.4679 C.3     
   6 N6            -1.3171     3.7493    -0.0106 N.am    
   7 C7            -0.2247     2.8641     0.4420 C.3     
   8 C8            -2.0432     4.5942     0.7480 C.2     
   9 O9            -2.9170     5.2690     0.2398 O.2     
  10 C10           -1.7767     4.7000     2.1997 C.ar    
  11 N11           -0.9030     3.8915     2.7748 N.ar    
  12 C12           -0.6263     3.9416     4.0655 C.ar    
  13 C13           -1.2284     4.8391     4.9007 C.ar    
  14 C14           -2.1715     5.7360     4.3670 C.ar    
  15 C15           -2.8294     6.6844     5.1607 C.ar    
  16 C16           -3.7441     7.5364     4.5764 C.ar    
  17 N17           -4.4033     8.4835     5.3596 N.pl3   
  18 C18           -5.6914     8.9032     5.0128 C.2     
  19 N19           -6.4267     8.4166     4.0485 N.2     
  20 N20           -7.6554     9.0832     4.0000 N.pl3   
  21 H21           -8.3697     8.9008     3.3697 H       
  22 C22           -7.6888    10.0349     4.9848 C.ar    
  23 C23           -8.6375    10.9717     5.3932 C.ar    
  24 C24           -8.3256    11.7969     6.4557 C.ar    
  25 C25           -7.0919    11.6741     7.0816 C.ar    
  26 N26           -6.2089    10.7864     6.6842 N.ar    
  27 C27           -6.4606     9.9627     5.6695 C.ar    
  28 C28           -4.0168     7.4600     3.2046 C.ar    
  29 C29           -3.3894     6.5465     2.4152 C.ar    
  30 C30           -2.4506     5.6696     2.9759 C.ar    
  31 H31            0.4778     4.3609    -2.0687 H       
  32 H32            0.0732     2.8045    -2.8648 H       
  33 H33           -1.9299     4.3728    -1.9489 H       
  34 H34           -2.0064     2.6036    -1.6639 H       
  35 H35           -0.6355     1.9203     0.8007 H       
  36 H36            0.3442     3.3496     1.2350 H       
  37 H37            0.0979     3.2516     4.4728 H       
  38 H38           -0.9849     4.8595     5.9527 H       
  39 H39           -2.6231     6.7479     6.2189 H       
  40 H40           -3.9684     8.8511     6.1448 H       
  41 H41           -9.5907    11.0502     4.8916 H       
  42 H42           -9.0370    12.5339     6.7979 H       
  43 H43           -6.8534    12.3220     7.9121 H       
  44 H44           -4.7363     8.1361     2.7669 H       
  45 H45           -3.6106     6.5002     1.3591 H       
@<TRIPOS>BOND
   1    1    2 1
   2    2    3 1
   3    2    7 1
   4    2    4 1
   5    4    5 1
   6    4   31 1
   7    4   32 1
   8    5    6 1
   9    5   33 1
  10    5   34 1
  11    6    7 1
  12    6    8 am
  13    7   35 1
  14    7   36 1
  15    8    9 2
  16    8   10 1
  17   10   30 ar
  18   10   11 ar
  19   11   12 ar
  20   12   13 ar
  21   12   37 1
  22   13   14 ar
  23   13   38 1
  24   14   30 ar
  25   14   15 ar
  26   15   16 ar
  27   15   39 1
  28   16   17 1
  29   16   28 ar
  30   17   18 1
  31   17   40 1
  32   18   27 1
  33   18   19 2
  34   19   20 1
  35   20   21 1
  36   20   22 1
  37   22   27 ar
  38   22   23 ar
  39   23   24 ar
  40   23   41 1
  41   24   25 ar
  42   24   42 1
  43   25   26 ar
  44   25   43 1
  45   26   27 ar
  46   28   29 ar
  47   28   44 1
  48   29   30 ar
  49   29   45 1

#	End of record

