#	Name: ASD01810099
#	Creating user name:	WinNT
#	Creation time:	15. 06. 2019 19:23

#	Modifying user name:	WinNT
#	Modification time:	15. 06. 2019 19:23

#	Program:	/corina/corina34_cracker 3.40 0067  02.08.2006

@<TRIPOS>MOLECULE
ASD01810099
  59   63    0    0    0
SMALL
NO_CHARGES


@<TRIPOS>ATOM
   1 C1            -0.0167     1.3799     0.0096 C.ar    
   2 C2             0.0021    -0.0041     0.0020 C.ar    
   3 C3             1.2063    -0.6846    -0.0127 C.ar    
   4 C4             2.3996     0.0245    -0.0204 C.ar    
   5 C5             2.3788     1.4201    -0.0131 C.ar    
   6 C6             1.1662     2.0930     0.0022 C.ar    
   7 N7             3.7399    -0.3584    -0.0349 N.am    
   8 C8             4.4982     0.7542    -0.0364 C.2     
   9 N9             3.7060     1.8427    -0.0235 N.am    
  10 O10            5.7150     0.7730    -0.0474 O.2     
  11 C11            4.1623     3.2348    -0.0203 C.3     
  12 C12            5.0182     3.4899     1.2235 C.3     
  13 C13            5.5418     4.9275     1.1902 C.3     
  14 N14            6.3400     5.1311    -0.0254 N.3     
  15 C15            5.5271     4.9379    -1.2330 C.3     
  16 C16            5.0030     3.5006    -1.2721 C.3     
  17 C17            6.9732     6.4566    -0.0236 C.3     
  18 C18            7.8928     6.5841    -1.2403 C.3     
  19 C19            8.5777     7.9541    -1.2164 C.3     
  20 N20            7.5464     8.9969    -1.1276 N.am    
  21 C21            6.5544     8.9191    -0.0466 C.3     
  22 C22            5.8922     7.5382    -0.0836 C.3     
  23 S23            7.5034    10.2366    -2.2247 S.o2    
  24 C24            6.4817     9.7145    -3.5619 C.ar    
  25 C25            5.1228     9.9664    -3.5327 C.ar    
  26 C26            4.3212     9.5567    -4.5818 C.ar    
  27 C27            4.8786     8.8955    -5.6602 C.ar    
  28 C28            6.2376     8.6444    -5.6898 C.ar    
  29 C29            7.0399     9.0579    -4.6428 C.ar    
  30 O30            6.8189    11.3090    -1.5917 O.2     
  31 O31            8.8193    10.3554    -2.7478 O.2     
  32 F32            1.2210    -2.0355    -0.0192 F       
  33 H33           -0.9606     1.9046     0.0170 H       
  34 H34           -0.9270    -0.5547     0.0080 H       
  35 H35            1.1468     3.1728     0.0078 H       
  36 H36            4.0699    -1.2705    -0.0421 H       
  37 H37            3.2995     3.9009    -0.0117 H       
  38 H38            4.4128     3.3437     2.1180 H       
  39 H39            5.8591     2.7965     1.2350 H       
  40 H40            4.7006     5.6206     1.1926 H       
  41 H41            6.1633     5.1080     2.0673 H       
  42 H42            4.6859     5.6309    -1.2193 H       
  43 H43            6.1380     5.1258    -2.1159 H       
  44 H44            5.8437     2.8073    -1.2998 H       
  45 H45            4.3869     3.3619    -2.1605 H       
  46 H46            7.5582     6.5784     0.8880 H       
  47 H47            8.6484     5.7990    -1.2091 H       
  48 H48            7.3044     6.4873    -2.1527 H       
  49 H49            9.2373     8.0179    -0.3510 H       
  50 H50            9.1563     8.0894    -2.1302 H       
  51 H51            7.0490     9.0615     0.9142 H       
  52 H52            5.7980     9.6910    -0.1886 H       
  53 H53            5.3226     7.4324    -1.0069 H       
  54 H54            5.2237     7.4322     0.7709 H       
  55 H55            4.6873    10.4830    -2.6902 H       
  56 H56            3.2594     9.7529    -4.5587 H       
  57 H57            4.2522     8.5748    -6.4795 H       
  58 H58            6.6731     8.1275    -6.5322 H       
  59 H59            8.1016     8.8617    -4.6659 H       
@<TRIPOS>BOND
   1    1    2 ar
   2    1    6 ar
   3    1   33 1
   4    2    3 ar
   5    2   34 1
   6    3    4 ar
   7    3   32 1
   8    4    5 ar
   9    4    7 1
  10    5    6 ar
  11    5    9 1
  12    6   35 1
  13    7    8 am
  14    7   36 1
  15    8    9 am
  16    8   10 2
  17    9   11 1
  18   11   12 1
  19   11   16 1
  20   11   37 1
  21   12   13 1
  22   12   38 1
  23   12   39 1
  24   13   14 1
  25   13   40 1
  26   13   41 1
  27   14   15 1
  28   14   17 1
  29   15   16 1
  30   15   42 1
  31   15   43 1
  32   16   44 1
  33   16   45 1
  34   17   18 1
  35   17   22 1
  36   17   46 1
  37   18   19 1
  38   18   47 1
  39   18   48 1
  40   19   20 1
  41   19   49 1
  42   19   50 1
  43   20   21 1
  44   20   23 am
  45   21   22 1
  46   21   51 1
  47   21   52 1
  48   22   53 1
  49   22   54 1
  50   23   30 2
  51   23   31 2
  52   23   24 1
  53   24   25 ar
  54   24   29 ar
  55   25   26 ar
  56   25   55 1
  57   26   27 ar
  58   26   56 1
  59   27   28 ar
  60   27   57 1
  61   28   29 ar
  62   28   58 1
  63   29   59 1

#	End of record

