#	Name: ASD07930155
#	Creating user name:	WinNT
#	Creation time:	15. 06. 2019 21:11

#	Modifying user name:	WinNT
#	Modification time:	15. 06. 2019 21:11

#	Program:	/corina/corina34_cracker 3.40 0067  02.08.2006

@<TRIPOS>MOLECULE
ASD07930155
  57   60    0    0    0
SMALL
NO_CHARGES


@<TRIPOS>ATOM
   1 C1            -0.7586     0.1493     0.9806 C.2     
   2 C2            -0.2792    -1.2410     0.8171 C.2     
   3 N3             0.1507     1.1771     0.8718 N.am    
   4 N4             1.0357    -1.5009     1.0125 N.am    
   5 C5             1.9224    -0.3990     1.4126 C.3     
   6 C6             1.5542     0.8456     0.5913 C.3     
   7 C7            -2.0731     0.4004     1.2277 C.2     
   8 C8            -2.5311     1.7144     1.3851 C.2     
   9 C9            -1.6452     2.7524     1.2898 C.2     
  10 C10           -0.2366     2.4562     1.0176 C.2     
  11 O11           -1.0496    -2.1315     0.5141 O.2     
  12 O12            0.5762     3.3603     0.9241 O.2     
  13 C13           -1.7235     4.9281     2.4386 C.2     
  14 N14           -2.3295     6.0672     2.2422 N.2     
  15 C15           -3.0809     5.9858     1.1339 C.2     
  16 C16           -2.9389     4.7499     0.6190 C.2     
  17 N17           -2.0775     4.0727     1.4436 N.pl3   
  18 C18           -3.9368     7.0875     0.5638 C.3     
  19 C19            1.5642    -2.8547     0.8281 C.3     
  20 C20            1.9940    -3.0404    -0.6285 C.3     
  21 O21            3.1538    -2.2468    -0.8878 O.3     
  22 C22            4.3611    -2.8147    -0.6274 C.ar    
  23 C23            5.5292    -2.1583    -0.9869 C.ar    
  24 C24            6.7553    -2.7363    -0.7212 C.ar    
  25 C25            6.8188    -3.9707    -0.0968 C.ar    
  26 C26            5.6540    -4.6268     0.2625 C.ar    
  27 C27            4.4263    -4.0483     0.0031 C.ar    
  28 C28            5.4605    -0.8155    -1.6674 C.3     
  29 C29            4.8512    -0.9806    -3.0611 C.3     
  30 C30            4.5900     0.1319    -0.8393 C.3     
  31 O31            6.7772    -0.2727    -1.7843 O.3     
  32 F32            3.5148    -1.3768    -2.9419 F       
  33 F33            4.9172     0.2374    -3.7462 F       
  34 F34            5.5647    -1.9533    -3.7696 F       
  35 F35            8.0187    -4.5353     0.1617 F       
  36 H36            1.7903    -0.1896     2.4741 H       
  37 H37            2.9590    -0.6735     1.2167 H       
  38 H38            1.6778     0.6356    -0.4711 H       
  39 H39            2.1942     1.6796     0.8794 H       
  40 H40           -2.7698    -0.4215     1.3027 H       
  41 H41           -3.5758     1.9068     1.5798 H       
  42 H42           -1.0500     4.7043     3.2527 H       
  43 H43           -3.4126     4.3655    -0.2722 H       
  44 H44           -3.3480     7.6792    -0.1371 H       
  45 H45           -4.7906     6.6525     0.0444 H       
  46 H46           -4.2907     7.7277     1.3719 H       
  47 H47            2.4239    -3.0014     1.4820 H       
  48 H48            0.7917    -3.5831     1.0746 H       
  49 H49            2.2247    -4.0904    -0.8083 H       
  50 H50            1.1849    -2.7279    -1.2887 H       
  51 H51            7.6648    -2.2255    -1.0010 H       
  52 H52            5.7050    -5.5894     0.7495 H       
  53 H53            3.5178    -4.5585     0.2872 H       
  54 H54            5.0241     0.2496     0.1536 H       
  55 H55            4.5403     1.1032    -1.3315 H       
  56 H56            3.5857    -0.2820    -0.7501 H       
  57 H57            7.3849    -0.8222    -2.2981 H       
@<TRIPOS>BOND
   1    1    2 1
   2    1    3 1
   3    1    7 2
   4    2    4 am
   5    2   11 2
   6    3    6 1
   7    3   10 am
   8    4    5 1
   9    4   19 1
  10    5    6 1
  11    5   36 1
  12    5   37 1
  13    6   38 1
  14    6   39 1
  15    7    8 1
  16    7   40 1
  17    8    9 2
  18    8   41 1
  19    9   10 1
  20    9   17 1
  21   10   12 2
  22   13   14 2
  23   13   17 1
  24   13   42 1
  25   14   15 1
  26   15   16 2
  27   15   18 1
  28   16   17 1
  29   16   43 1
  30   18   44 1
  31   18   45 1
  32   18   46 1
  33   19   20 1
  34   19   47 1
  35   19   48 1
  36   20   21 1
  37   20   49 1
  38   20   50 1
  39   21   22 1
  40   22   23 ar
  41   22   27 ar
  42   23   24 ar
  43   23   28 1
  44   24   25 ar
  45   24   51 1
  46   25   26 ar
  47   25   35 1
  48   26   27 ar
  49   26   52 1
  50   27   53 1
  51   28   29 1
  52   28   30 1
  53   28   31 1
  54   29   32 1
  55   29   33 1
  56   29   34 1
  57   30   54 1
  58   30   55 1
  59   30   56 1
  60   31   57 1

#	End of record

