#	Name: ASD01883757
#	Creating user name:	WinNT
#	Creation time:	15. 06. 2019 19:47

#	Modifying user name:	WinNT
#	Modification time:	15. 06. 2019 19:47

#	Program:	/corina/corina34_cracker 3.40 0067  02.08.2006

@<TRIPOS>MOLECULE
ASD01883757
  49   53    0    0    0
SMALL
NO_CHARGES


@<TRIPOS>ATOM
   1 C1            -0.1469     1.2570    -1.0918 C.2     
   2 C2            -0.0967    -0.1394    -0.9695 C.2     
   3 C3            -1.2957    -0.8773    -1.0589 C.2     
   4 C4            -2.4756    -0.2610    -1.2589 C.2     
   5 N5            -2.5700     1.0947    -1.3839 N.pl3   
   6 C6            -1.4527     1.8858    -1.3019 C.2     
   7 C7            -3.6353     1.9329    -1.5883 C.2     
   8 C8            -3.1494     3.1913    -1.6319 C.2     
   9 N9            -1.8247     3.1438    -1.4555 N.2     
  10 C10           -5.0786     1.5255    -1.7367 C.3     
  11 C11            1.1929    -0.8274    -0.7507 C.ar    
  12 C12            1.4278    -1.5134     0.4421 C.ar    
  13 C13            2.6361    -2.1567     0.6464 C.ar    
  14 C14            3.6178    -2.1246    -0.3403 C.ar    
  15 C15            3.3807    -1.4375    -1.5299 C.ar    
  16 C16            2.1795    -0.7987    -1.7389 C.ar    
  17 C17           -5.4201     1.3898    -3.2219 C.3     
  18 F18           -4.5990     0.4171    -3.8022 F       
  19 F19           -6.7599     1.0116    -3.3596 F       
  20 F20           -5.2136     2.6166    -3.8619 F       
  21 C21            1.0450     2.0463    -1.0075 C.1     
  22 N22            1.9904     2.6725    -0.9407 N.1     
  23 O23            2.8378    -2.8070     1.8258 O.3     
  24 C24            3.9400    -3.7187     1.8767 C.3     
  25 C25            5.1507    -3.0313     1.2322 C.3     
  26 N26            4.8444    -2.7699    -0.1788 N.3     
  27 C27            5.9266    -2.0119    -0.8208 C.3     
  28 C28            5.9762    -0.5990    -0.2358 C.3     
  29 C29            7.1250     0.3092    -0.6792 C.3     
  30 C30            5.7050     0.5690    -1.1861 C.3     
  31 H31           -1.2665    -1.9529    -0.9659 H       
  32 H32           -3.3740    -0.8570    -1.3227 H       
  33 H33           -3.7334     4.0875    -1.7807 H       
  34 H34           -5.2394     0.5697    -1.2381 H       
  35 H35           -5.7183     2.2834    -1.2846 H       
  36 H36            0.6657    -1.5418     1.2068 H       
  37 H37            4.1433    -1.4093    -2.2942 H       
  38 H38            2.0031    -0.2686    -2.6631 H       
  39 H39            4.1657    -3.9669     2.9138 H       
  40 H40            3.6940    -4.6259     1.3248 H       
  41 H41            5.3520    -2.0899     1.7434 H       
  42 H42            6.0218    -3.6826     1.3029 H       
  43 H43            6.8776    -2.5132    -0.6410 H       
  44 H44            5.7432    -1.9547    -1.8938 H       
  45 H45            5.6271    -0.5034     0.7923 H       
  46 H46            7.5312     1.0026     0.0572 H       
  47 H47            7.8453    -0.0999    -1.3876 H       
  48 H48            5.4911     0.3308    -2.2281 H       
  49 H49            5.1770     1.4334    -0.7833 H       
@<TRIPOS>BOND
   1    1    2 2
   2    1   21 1
   3    1    6 1
   4    2    3 1
   5    2   11 1
   6    3    4 2
   7    3   31 1
   8    4    5 1
   9    4   32 1
  10    5    6 1
  11    5    7 1
  12    6    9 2
  13    7    8 2
  14    7   10 1
  15    8    9 1
  16    8   33 1
  17   10   17 1
  18   10   34 1
  19   10   35 1
  20   11   12 ar
  21   11   16 ar
  22   12   13 ar
  23   12   36 1
  24   13   14 ar
  25   13   23 1
  26   14   15 ar
  27   14   26 1
  28   15   16 ar
  29   15   37 1
  30   16   38 1
  31   17   18 1
  32   17   19 1
  33   17   20 1
  34   21   22 3
  35   23   24 1
  36   24   25 1
  37   24   39 1
  38   24   40 1
  39   25   26 1
  40   25   41 1
  41   25   42 1
  42   26   27 1
  43   27   28 1
  44   27   43 1
  45   27   44 1
  46   28   29 1
  47   28   30 1
  48   28   45 1
  49   29   30 1
  50   29   46 1
  51   29   47 1
  52   30   48 1
  53   30   49 1

#	End of record

