#	Name: ASD01884784
#	Creating user name:	WinNT
#	Creation time:	15. 06. 2019 19:48

#	Modifying user name:	WinNT
#	Modification time:	15. 06. 2019 19:48

#	Program:	/corina/corina34_cracker 3.40 0067  02.08.2006

@<TRIPOS>MOLECULE
ASD01884784
  50   54    0    0    0
SMALL
NO_CHARGES


@<TRIPOS>ATOM
   1 C1            -0.4384     1.2691     0.2468 C.3     
   2 C2            -0.1567    -0.2334     0.1834 C.3     
   3 H3            -1.0904    -0.7840     0.2989 H       
   4 C4             0.4754    -0.5777    -1.1650 C.3     
   5 N5             1.0568    -1.9155    -1.1860 N.am    
   6 C6             1.7458    -2.4090    -0.1290 C.2     
   7 O7             2.3998    -3.4318    -0.2102 O.2     
   8 C8             1.6601    -1.6410     1.1204 C.2     
   9 C9             2.3553    -1.7453     2.3059 C.2     
  10 C10            1.8679    -0.7327     3.1585 C.2     
  11 N11            0.9333    -0.0636     2.5265 N.2     
  12 N12            0.7657    -0.6038     1.2588 N.pl3   
  13 C13            3.4093    -2.7297     2.6233 C.2     
  14 C14            4.6430    -2.4678     3.1510 C.2     
  15 C15            5.2466    -3.7486     3.2540 C.2     
  16 N16            4.3654    -4.6084     2.8030 N.2     
  17 O17            3.3440    -4.0631     2.4559 O.3     
  18 C18            6.6044    -4.0534     3.7687 C.ar    
  19 C19            7.1093    -5.3572     3.7091 C.ar    
  20 C20            8.3781    -5.5932     4.1999 C.ar    
  21 C21            9.1081    -4.5347     4.7338 C.ar    
  22 N22           10.3848    -4.7636     5.2289 N.pl3   
  23 N23            8.6002    -3.3117     4.7751 N.ar    
  24 C24            7.3957    -3.0453     4.3122 C.ar    
  25 C25            0.8995    -2.7086    -2.3266 C.ar    
  26 C26            0.1188    -3.8563    -2.2741 C.ar    
  27 C27           -0.0346    -4.6375    -3.4025 C.ar    
  28 C28            0.5885    -4.2786    -4.5838 C.ar    
  29 C29            1.3664    -3.1366    -4.6395 C.ar    
  30 C30            1.5188    -2.3476    -3.5163 C.ar    
  31 C31            0.4197    -5.1340    -5.8129 C.3     
  32 F32           -0.6927    -4.6939    -6.5382 F       
  33 F33            1.5650    -5.0358    -6.6103 F       
  34 F34            0.2301    -6.4665    -5.4312 F       
  35 H35            0.4955     1.8191     0.1312 H       
  36 H36           -1.1238     1.5444    -0.5548 H       
  37 H37           -0.8877     1.5142     1.2092 H       
  38 H38           -0.2892    -0.5137    -1.9392 H       
  39 H39            1.2571     0.1497    -1.3837 H       
  40 H40            2.2078    -0.5404     4.1654 H       
  41 H41            5.0608    -1.5104     3.4250 H       
  42 H42            6.5206    -6.1596     3.2897 H       
  43 H43            8.7993    -6.5873     4.1702 H       
  44 H44           10.7628    -5.6565     5.2014 H       
  45 H45           10.8989    -4.0306     5.6023 H       
  46 H46            7.0166    -2.0351     4.3590 H       
  47 H47           -0.3675    -4.1375    -1.3517 H       
  48 H48           -0.6415    -5.5300    -3.3623 H       
  49 H49            1.8516    -2.8591    -5.5636 H       
  50 H50            2.1226    -1.4533    -3.5618 H       
@<TRIPOS>BOND
   1    1    2 1
   2    1   35 1
   3    1   36 1
   4    1   37 1
   5    2    3 1
   6    2   12 1
   7    2    4 1
   8    4    5 1
   9    4   38 1
  10    4   39 1
  11    5    6 am
  12    5   25 1
  13    6    7 2
  14    6    8 1
  15    8   12 1
  16    8    9 2
  17    9   10 1
  18    9   13 1
  19   10   11 2
  20   10   40 1
  21   11   12 1
  22   13   17 1
  23   13   14 2
  24   14   15 1
  25   14   41 1
  26   15   16 2
  27   15   18 1
  28   16   17 1
  29   18   24 ar
  30   18   19 ar
  31   19   20 ar
  32   19   42 1
  33   20   21 ar
  34   20   43 1
  35   21   22 1
  36   21   23 ar
  37   22   44 1
  38   22   45 1
  39   23   24 ar
  40   24   46 1
  41   25   30 ar
  42   25   26 ar
  43   26   27 ar
  44   26   47 1
  45   27   28 ar
  46   27   48 1
  47   28   29 ar
  48   28   31 1
  49   29   30 ar
  50   29   49 1
  51   30   50 1
  52   31   32 1
  53   31   33 1
  54   31   34 1

#	End of record

