#	Name: ASD08170627
#	Creating user name:	WinNT
#	Creation time:	15. 06. 2019 21:17

#	Modifying user name:	WinNT
#	Modification time:	15. 06. 2019 21:17

#	Program:	/corina/corina34_cracker 3.40 0067  02.08.2006

@<TRIPOS>MOLECULE
ASD08170627
  53   56    0    0    0
SMALL
NO_CHARGES


@<TRIPOS>ATOM
   1 C1            -0.0178     1.4643     0.0101 C.3     
   2 C2             1.3729     3.5174     0.0078 C.2     
   3 N3             2.5225     4.2207     0.0006 N.am    
   4 C4             2.4872     5.6110     0.0084 C.2     
   5 S5             3.8533     6.6446     0.0010 S.3     
   6 C6             2.7733     8.0392     0.0188 C.2     
   7 C7             3.1913     9.4871     0.0226 C.3     
   8 C8             3.3465     9.9693     1.4663 C.3     
   9 C9             4.4029    13.5544     3.4155 C.3     
  10 C10            4.5109    13.8722     4.8847 C.2     
  11 S11            3.2170    14.4866     5.9141 S.3     
  12 C12            4.3010    14.4915     7.2406 C.2     
  13 N13            3.9929    14.8870     8.5378 N.am    
  14 C14            4.9380    14.8446     9.4977 C.2     
  15 C15            4.6042    15.2733    10.9034 C.3     
  16 N16            1.4129     6.3410     0.0170 N.2     
  17 N17            1.5566     7.5952     0.0280 N.2     
  18 N18            5.5690    13.7380     5.6195 N.2     
  19 N19            5.4582    14.0640     6.8341 N.2     
  20 O20            6.0573    14.4615     9.2302 O.2     
  21 O21            0.3075     4.0968     0.0211 O.2     
  22 C22            3.9796    12.0947     3.2393 C.3     
  23 N23            5.7911    15.1352    11.7509 N.pl3   
  24 N24            0.0021    -0.0041     0.0020 N.2     
  25 S25            3.8496    11.7122     1.4708 S.3     
  26 C26           -0.5824    -0.4001     1.0824 C.2     
  27 C27           -1.0221     0.7648     1.8666 C.2     
  28 N28           -0.6987     1.8526     1.2520 N.2     
  29 C29            6.3474    16.1080    12.5027 C.2     
  30 C30            7.4219    15.5790    13.1326 C.2     
  31 C31            7.5258    14.2370    12.7527 C.2     
  32 N32            6.5455    13.9683    11.9288 N.2     
  33 C33            1.4112     2.0109    -0.0006 C.3     
  34 H34           -0.5685     1.8371    -0.8536 H       
  35 H35            3.3746     3.7573    -0.0100 H       
  36 H36            4.1422     9.5922    -0.4998 H       
  37 H37            2.4321    10.0857    -0.4808 H       
  38 H38            2.3956     9.8643     1.9886 H       
  39 H39            4.1057     9.3707     1.9696 H       
  40 H40            3.6595    14.2062     2.9565 H       
  41 H41            5.3696    13.7126     2.9375 H       
  42 H42            3.0978    15.1934     8.7518 H       
  43 H43            4.2802    16.3140    10.8986 H       
  44 H44            3.8036    14.6453    11.2942 H       
  45 H45            4.7230    11.4429     3.6983 H       
  46 H46            3.0129    11.9365     3.7173 H       
  47 H47           -0.7274    -1.4315     1.3678 H       
  48 H48           -1.5380     0.7167     2.8143 H       
  49 H49            5.9978    17.1264    12.5865 H       
  50 H50            8.0824    16.1009    13.8091 H       
  51 H51            8.2820    13.5414    13.0855 H       
  52 H52            1.9425     1.6560     0.8824 H       
  53 H53            1.9255     1.6655    -0.8974 H       
@<TRIPOS>BOND
   1    1   24 1
   2    1   33 1
   3    1   28 1
   4    1   34 1
   5    2    3 am
   6    2   21 2
   7    2   33 1
   8    3    4 1
   9    3   35 1
  10    4    5 1
  11    4   16 2
  12    5    6 1
  13    6    7 1
  14    6   17 2
  15    7    8 1
  16    7   36 1
  17    7   37 1
  18    8   25 1
  19    8   38 1
  20    8   39 1
  21    9   10 1
  22    9   22 1
  23    9   40 1
  24    9   41 1
  25   10   11 1
  26   10   18 2
  27   11   12 1
  28   12   13 1
  29   12   19 2
  30   13   14 am
  31   13   42 1
  32   14   15 1
  33   14   20 2
  34   15   23 1
  35   15   43 1
  36   15   44 1
  37   16   17 1
  38   18   19 1
  39   22   25 1
  40   22   45 1
  41   22   46 1
  42   23   29 1
  43   23   32 1
  44   24   26 2
  45   26   27 1
  46   26   47 1
  47   27   28 2
  48   27   48 1
  49   29   30 2
  50   29   49 1
  51   30   31 1
  52   30   50 1
  53   31   32 2
  54   31   51 1
  55   33   52 1
  56   33   53 1

#	End of record

