#	Name: ASD01000073
#	Creating user name:	WinNT
#	Creation time:	15. 06. 2019 18:54

#	Modifying user name:	WinNT
#	Modification time:	15. 06. 2019 18:54

#	Program:	/corina/corina34_cracker 3.40 0067  02.08.2006

@<TRIPOS>MOLECULE
ASD01000073
  53   55    0    0    0
SMALL
NO_CHARGES


@<TRIPOS>ATOM
   1 C1             0.3603     1.3646     0.4607 C.ar    
   2 C2             0.5284     0.0082     0.6676 C.ar    
   3 C3             1.0146    -0.7911    -0.3501 C.ar    
   4 C4             1.3321    -0.2341    -1.5748 C.ar    
   5 C5             1.1631     1.1221    -1.7819 C.ar    
   6 C6             0.6783     1.9217    -0.7638 C.ar    
   7 C7             1.1989    -2.2697    -0.1243 C.3     
   8 C8             1.0049    -2.5827     1.3370 C.ar    
   9 C9             0.0487    -3.5021     1.7259 C.ar    
  10 C10           -0.1293    -3.7892     3.0663 C.ar    
  11 C11            0.6492    -3.1572     4.0178 C.ar    
  12 C12            1.6060    -2.2385     3.6289 C.ar    
  13 C13            1.7869    -1.9546     2.2882 C.ar    
  14 S14           -0.0191    -3.1878    -1.1062 S.3     
  15 C15           -1.5934    -2.4338    -0.6123 C.3     
  16 C16           -2.7494    -3.1878    -1.2727 C.3     
  17 C17            2.5890    -2.6725    -0.5441 C.ar    
  18 C18            2.8332    -3.9616    -0.9801 C.ar    
  19 C19            3.6188    -1.7517    -0.4985 C.ar    
  20 C20            4.8942    -2.1213    -0.8836 C.ar    
  21 C21            5.1395    -3.4117    -1.3137 C.ar    
  22 C22            4.1082    -4.3311    -1.3651 C.ar    
  23 N23           -2.7971    -4.5617    -0.7549 N.3     
  24 C24            4.3757    -5.7380    -1.8341 C.3     
  25 C25            6.5296    -3.8144    -1.7340 C.3     
  26 C26           -4.0477    -2.4886    -0.9621 C.2     
  27 O27           -4.7663    -2.9096    -0.0868 O.2     
  28 O28           -4.4058    -1.3980    -1.6579 O.3     
  29 H29           -0.0238     1.9883     1.2544 H       
  30 H30            0.2803    -0.4270     1.6244 H       
  31 H31            1.7126    -0.8585    -2.3696 H       
  32 H32            1.4119     1.5574    -2.7385 H       
  33 H33            0.5459     2.9812    -0.9257 H       
  34 H34           -0.5596    -3.9959     0.9825 H       
  35 H35           -0.8769    -4.5070     3.3702 H       
  36 H36            0.5096    -3.3810     5.0652 H       
  37 H37            2.2140    -1.7444     4.3723 H       
  38 H38            2.5345    -1.2368     1.9843 H       
  39 H39           -1.6972    -2.4865     0.4715 H       
  40 H40           -1.6119    -1.3909    -0.9288 H       
  41 H41           -2.5984    -3.2113    -2.3519 H       
  42 H42            2.0277    -4.6800    -1.0196 H       
  43 H43            3.4271    -0.7434    -0.1624 H       
  44 H44            5.6986    -1.4016    -0.8486 H       
  45 H45           -2.9364    -4.5669     0.2444 H       
  46 H46           -3.5114    -5.0997    -1.2223 H       
  47 H47            4.6446    -6.3606    -0.9808 H       
  48 H48            3.4802    -6.1392    -2.3087 H       
  49 H49            5.1957    -5.7319    -2.5522 H       
  50 H50            7.0750    -4.1934    -0.8697 H       
  51 H51            6.4680    -4.5927    -2.4946 H       
  52 H52            7.0511    -2.9484    -2.1416 H       
  53 H53           -5.2473    -0.9838    -1.4226 H       
@<TRIPOS>BOND
   1    1    2 ar
   2    1    6 ar
   3    1   29 1
   4    2    3 ar
   5    2   30 1
   6    3    4 ar
   7    3    7 1
   8    4    5 ar
   9    4   31 1
  10    5    6 ar
  11    5   32 1
  12    6   33 1
  13    7    8 1
  14    7   14 1
  15    7   17 1
  16    8    9 ar
  17    8   13 ar
  18    9   10 ar
  19    9   34 1
  20   10   11 ar
  21   10   35 1
  22   11   12 ar
  23   11   36 1
  24   12   13 ar
  25   12   37 1
  26   13   38 1
  27   14   15 1
  28   15   16 1
  29   15   39 1
  30   15   40 1
  31   16   26 1
  32   16   23 1
  33   16   41 1
  34   17   18 ar
  35   17   19 ar
  36   18   22 ar
  37   18   42 1
  38   19   20 ar
  39   19   43 1
  40   20   21 ar
  41   20   44 1
  42   21   22 ar
  43   21   25 1
  44   22   24 1
  45   23   45 1
  46   23   46 1
  47   24   47 1
  48   24   48 1
  49   24   49 1
  50   25   50 1
  51   25   51 1
  52   25   52 1
  53   26   27 2
  54   26   28 1
  55   28   53 1

#	End of record

