#	Name: ASD01140473
#	Creating user name:	WinNT
#	Creation time:	15. 06. 2019 19:00

#	Modifying user name:	WinNT
#	Modification time:	15. 06. 2019 19:00

#	Program:	/corina/corina34_cracker 3.40 0067  02.08.2006

@<TRIPOS>MOLECULE
ASD01140473
  40   42    0    0    0
SMALL
NO_CHARGES


@<TRIPOS>ATOM
   1 C1             0.5404     0.4185    -1.1476 C.ar    
   2 C2             0.1262    -0.1769     0.0310 C.ar    
   3 C3             0.7734     0.1055     1.2206 C.ar    
   4 C4             1.8373     0.9838     1.2391 C.ar    
   5 C5             2.2605     1.5875     0.0539 C.ar    
   6 C6             1.6028     1.2980    -1.1433 C.ar    
   7 C7             2.0528     1.9450    -2.4277 C.3     
   8 C8             3.3991     2.5296     0.0662 C.2     
   9 O9             3.2080     3.7161    -0.1150 O.2     
  10 N10            4.6493     2.0731     0.2784 N.am    
  11 C11            5.8806     2.8796     0.2378 C.3     
  12 C12            6.9876     1.8531     0.5494 C.3     
  13 N13            6.2628     0.5880     0.7304 N.2     
  14 C14            4.9931     0.7759     0.5758 C.2     
  15 S15            3.8076    -0.5188     0.7269 S.3     
  16 C16            4.9044    -1.9056     1.1142 C.3     
  17 C17            4.0863    -3.1586     1.2918 C.ar    
  18 C18            2.8440    -4.6413     2.7037 C.ar    
  19 C19            3.5951    -3.4920     2.5401 C.ar    
  20 C20            3.8224    -3.9715     0.2053 C.ar    
  21 C21            3.0711    -5.1214     0.3684 C.ar    
  22 C22            2.5840    -5.4574     1.6193 C.ar    
  23 Cl23           2.7389    -6.1424    -0.9958 Cl      
  24 H24            0.0333     0.1906    -2.0735 H       
  25 H25           -0.7063    -0.8649     0.0221 H       
  26 H26            0.4449    -0.3623     2.1370 H       
  27 H27            2.3413     1.2039     2.1686 H       
  28 H28            1.5890     2.9269    -2.5219 H       
  29 H29            3.1372     2.0549    -2.4188 H       
  30 H30            1.7577     1.3214    -3.2716 H       
  31 H31            6.0246     3.3116    -0.7525 H       
  32 H32            5.8544     3.6596     0.9987 H       
  33 H33            7.6843     1.7778    -0.2855 H       
  34 H34            7.5143     2.1255     1.4640 H       
  35 H35            5.6133    -2.0470     0.2984 H       
  36 H36            5.4478    -1.6929     2.0349 H       
  37 H37            2.4608    -4.9014     3.6793 H       
  38 H38            3.7983    -2.8547     3.3880 H       
  39 H39            4.2026    -3.7086    -0.7708 H       
  40 H40            1.9977    -6.3553     1.7473 H       
@<TRIPOS>BOND
   1    1    2 ar
   2    1    6 ar
   3    1   24 1
   4    2    3 ar
   5    2   25 1
   6    3    4 ar
   7    3   26 1
   8    4    5 ar
   9    4   27 1
  10    5    6 ar
  11    5    8 1
  12    6    7 1
  13    7   28 1
  14    7   29 1
  15    7   30 1
  16    8    9 2
  17    8   10 am
  18   10   11 1
  19   10   14 1
  20   11   12 1
  21   11   31 1
  22   11   32 1
  23   12   13 1
  24   12   33 1
  25   12   34 1
  26   13   14 2
  27   14   15 1
  28   15   16 1
  29   16   17 1
  30   16   35 1
  31   16   36 1
  32   17   20 ar
  33   17   19 ar
  34   18   19 ar
  35   18   22 ar
  36   18   37 1
  37   19   38 1
  38   20   21 ar
  39   20   39 1
  40   21   22 ar
  41   21   23 1
  42   22   40 1

#	End of record

