#	Name: ASD05250066
#	Creating user name:	WinNT
#	Creation time:	15. 06. 2019 20:58

#	Modifying user name:	WinNT
#	Modification time:	15. 06. 2019 20:58

#	Program:	/corina/corina34_cracker 3.40 0067  02.08.2006

@<TRIPOS>MOLECULE
ASD05250066
  39   42    0    0    0
SMALL
NO_CHARGES


@<TRIPOS>ATOM
   1 C1             0.0370     1.0712     0.0517 C.ar    
   2 C2            -0.0746    -0.3034     0.2590 C.ar    
   3 C3            -1.2940    -0.9048     0.3240 C.ar    
   4 C4            -2.4608    -0.1340     0.1809 C.ar    
   5 C5            -2.3478     1.2647    -0.0300 C.ar    
   6 C6            -1.0719     1.8509    -0.0862 C.ar    
   7 N7            -3.6699    -0.7027     0.2406 N.ar    
   8 C8            -4.7522     0.0406     0.1031 C.ar    
   9 C9            -4.6394     1.4372    -0.1079 C.ar    
  10 N10           -3.4509     2.0088    -0.1677 N.ar    
  11 C11           -5.8615     2.2603    -0.2616 C.ar    
  12 C12           -5.9780     3.4739     0.4156 C.ar    
  13 C13           -7.1188     4.2361     0.2684 C.ar    
  14 C14           -8.1459     3.7984    -0.5486 C.ar    
  15 C15           -8.0363     2.5953    -1.2226 C.ar    
  16 C16           -6.8977     1.8274    -1.0886 C.ar    
  17 C17           -6.0916    -0.5889     0.1692 C.ar    
  18 C18           -6.3427    -1.7747    -0.5205 C.ar    
  19 C19           -7.5922    -2.3564    -0.4547 C.ar    
  20 C20           -8.5948    -1.7658     0.2936 C.ar    
  21 C21           -8.3517    -0.5895     0.9800 C.ar    
  22 C22           -7.1048    -0.0011     0.9261 C.ar    
  23 Cl23           1.6107     1.8002    -0.0245 Cl      
  24 C24            1.1728    -1.1350     0.4127 C.3     
  25 F25            0.8191    -2.4742     0.6094 F       
  26 F26            1.9529    -1.0236    -0.7432 F       
  27 F27            1.9043    -0.6792     1.5147 F       
  28 H28           -1.3648    -1.9704     0.4847 H       
  29 H29           -0.9705     2.9142    -0.2458 H       
  30 H30           -5.1771     3.8162     1.0542 H       
  31 H31           -7.2102     5.1761     0.7923 H       
  32 H32           -9.0370     4.3983    -0.6604 H       
  33 H33           -8.8417     2.2585    -1.8584 H       
  34 H34           -6.8132     0.8883    -1.6153 H       
  35 H35           -5.5609    -2.2365    -1.1053 H       
  36 H36           -7.7880    -3.2745    -0.9887 H       
  37 H37           -9.5712    -2.2247     0.3418 H       
  38 H38           -9.1383    -0.1331     1.5625 H       
  39 H39           -6.9161     0.9170     1.4627 H       
@<TRIPOS>BOND
   1    1    2 ar
   2    1   23 1
   3    1    6 ar
   4    2    3 ar
   5    2   24 1
   6    3    4 ar
   7    3   28 1
   8    4    5 ar
   9    4    7 ar
  10    5    6 ar
  11    5   10 ar
  12    6   29 1
  13    7    8 ar
  14    8    9 ar
  15    8   17 1
  16    9   10 ar
  17    9   11 1
  18   11   12 ar
  19   11   16 ar
  20   12   13 ar
  21   12   30 1
  22   13   14 ar
  23   13   31 1
  24   14   15 ar
  25   14   32 1
  26   15   16 ar
  27   15   33 1
  28   16   34 1
  29   17   18 ar
  30   17   22 ar
  31   18   19 ar
  32   18   35 1
  33   19   20 ar
  34   19   36 1
  35   20   21 ar
  36   20   37 1
  37   21   22 ar
  38   21   38 1
  39   22   39 1
  40   24   25 1
  41   24   26 1
  42   24   27 1

#	End of record

