#	Name: ASD00170143
#	Creating user name:	WinNT
#	Creation time:	15. 06. 2019 18:31

#	Modifying user name:	WinNT
#	Modification time:	15. 06. 2019 18:31

#	Program:	/corina/corina34_cracker 3.40 0067  02.08.2006

@<TRIPOS>MOLECULE
ASD00170143
  42   46    0    0    0
SMALL
NO_CHARGES


@<TRIPOS>ATOM
   1 C1            -0.0182     1.4914     0.0102 C.2     
   2 C2             0.0021    -0.0041     0.0020 C.ar    
   3 C3             1.3190    -0.4523    -0.0130 C.ar    
   4 C4             2.1958     0.7739    -0.0148 C.3     
   5 C5             1.2473     1.9527     0.0006 C.2     
   6 S6             1.2222     3.7155     0.0098 S.3     
   7 C7            -0.5366     3.6920     0.0263 C.2     
   8 N8            -0.9504     2.4701     0.0195 N.2     
   9 C9            -1.0453    -0.9282     0.0071 C.ar    
  10 C10           -0.7700    -2.2774    -0.0028 C.ar    
  11 C11            0.5516    -2.7230    -0.0174 C.ar    
  12 C12            1.5976    -1.7993    -0.0233 C.ar    
  13 N13           -1.3513     4.8123     0.0397 N.pl3   
  14 C14            0.8450    -4.1768    -0.0266 C.ar    
  15 C15           -0.1976    -5.0982    -0.0208 C.ar    
  16 C16            0.0856    -6.4619    -0.0294 C.ar    
  17 C17            1.4116    -6.8959    -0.0439 C.ar    
  18 C18            2.4417    -5.9761    -0.0497 C.ar    
  19 C19            2.1665    -4.6229    -0.0469 C.ar    
  20 C20           -1.0188    -7.4497    -0.0228 C.2     
  21 C21           -1.8724    -7.5234    -1.0946 C.2     
  22 C22           -2.9434    -8.4334    -1.1628 C.2     
  23 C23           -3.2090    -9.2985    -0.1802 C.2     
  24 C24           -2.3301    -9.3046     1.0513 C.3     
  25 C25           -1.1820    -8.3167     1.0905 C.2     
  26 S26           -0.1258    -8.2392     2.4357 S.2     
  27 H27            2.8272     0.7868     0.8736 H       
  28 H28            2.8101     0.7964    -0.9148 H       
  29 H29           -2.0692    -0.5851     0.0190 H       
  30 H30           -1.5795    -2.9924     0.0011 H       
  31 H31            2.6221    -2.1407    -0.0343 H       
  32 H32           -0.9573     5.6986     0.0405 H       
  33 H33           -2.3159     4.7104     0.0483 H       
  34 H34           -1.2223    -4.7574    -0.0092 H       
  35 H35            1.6328    -7.9530    -0.0503 H       
  36 H36            3.4666    -6.3166    -0.0609 H       
  37 H37            2.9764    -3.9084    -0.0518 H       
  38 H38           -1.7150    -6.8509    -1.9249 H       
  39 H39           -3.5730    -8.4321    -2.0402 H       
  40 H40           -4.0396    -9.9838    -0.2636 H       
  41 H41           -2.9657    -9.1186     1.9170 H       
  42 H42           -1.9103   -10.3048     1.1579 H       
@<TRIPOS>BOND
   1    1    2 1
   2    1    5 2
   3    1    8 1
   4    2    3 ar
   5    2    9 ar
   6    3    4 1
   7    3   12 ar
   8    4    5 1
   9    4   27 1
  10    4   28 1
  11    5    6 1
  12    6    7 1
  13    7    8 2
  14    7   13 1
  15    9   10 ar
  16    9   29 1
  17   10   11 ar
  18   10   30 1
  19   11   12 ar
  20   11   14 1
  21   12   31 1
  22   13   32 1
  23   13   33 1
  24   14   15 ar
  25   14   19 ar
  26   15   16 ar
  27   15   34 1
  28   16   17 ar
  29   16   20 1
  30   17   18 ar
  31   17   35 1
  32   18   19 ar
  33   18   36 1
  34   19   37 1
  35   20   21 2
  36   20   25 1
  37   21   22 1
  38   21   38 1
  39   22   23 2
  40   22   39 1
  41   23   24 1
  42   23   40 1
  43   24   25 1
  44   24   41 1
  45   24   42 1
  46   25   26 2

#	End of record

