#	Name: ASD03731437
#	Creating user name:	WinNT
#	Creation time:	15. 06. 2019 20:45

#	Modifying user name:	WinNT
#	Modification time:	15. 06. 2019 20:45

#	Program:	/corina/corina34_cracker 3.40 0067  02.08.2006

@<TRIPOS>MOLECULE
ASD03731437
  52   57    0    0    0
SMALL
NO_CHARGES


@<TRIPOS>ATOM
   1 C1            -0.0187     1.5258     0.0104 C.3     
   2 C2             0.0021    -0.0041     0.0020 C.3     
   3 C3             1.3165     0.7789    -0.0063 C.3     
   4 C4            -0.4420     2.2229    -1.2568 C.2     
   5 O5            -0.7498     1.5724    -2.2330 O.2     
   6 N6            -0.4784     3.5693    -1.3053 N.am    
   7 C7            -0.8899     4.2470    -2.5372 C.3     
   8 C8            -0.8443     5.7616    -2.3257 C.3     
   9 C9            -1.2741     6.4694    -3.6123 C.3     
  10 O10            2.3694    10.7520     0.8683 O.3     
  11 C11            2.7644    12.0462     1.3602 C.3     
  12 O12            2.9083    12.8370     0.1657 O.3     
  13 C13            2.0664    12.2734    -0.7499 C.ar    
  14 C14            1.7361    10.9909    -0.3178 C.ar    
  15 C15            1.5457    12.7592    -1.9358 C.ar    
  16 C16            0.6926    11.9739    -2.7054 C.ar    
  17 C17            0.3766    10.6913    -2.2675 C.ar    
  18 C18            0.8893    10.2064    -1.0824 C.ar    
  19 O19            0.0648    12.2631    -3.8811 O.3     
  20 C20           -0.5275    10.0924    -3.3114 C.3     
  21 C21           -0.3566    11.0369    -4.5090 C.3     
  22 N22           -1.2304     7.9197    -3.4098 N.am    
  23 C23           -0.1448     8.6810    -3.6524 C.2     
  24 C24           -1.9548    10.0185    -2.8561 C.ar    
  25 C25           -2.8632    10.9559    -2.4175 C.ar    
  26 C26           -4.1419    10.5672    -2.0597 C.ar    
  27 C27           -4.5051     9.2353    -2.1431 C.ar    
  28 C28           -3.5985     8.2926    -2.5809 C.ar    
  29 C29           -2.3092     8.6748    -2.9435 C.ar    
  30 O30            0.9302     8.3006    -4.0656 O.2     
  31 H31           -0.3072     2.0201     0.9381 H       
  32 H32           -0.2728    -0.5162     0.9241 H       
  33 H33           -0.2904    -0.5063    -0.9201 H       
  34 H34            1.8888     0.7918    -0.9339 H       
  35 H35            1.9064     0.7818     0.9103 H       
  36 H36           -0.2322     4.0896    -0.5246 H       
  37 H37           -0.2131     3.9726    -3.3464 H       
  38 H38           -1.9054     3.9466    -2.7954 H       
  39 H39           -1.5212     6.0360    -1.5166 H       
  40 H40            0.1712     6.0620    -2.0676 H       
  41 H41           -0.5972     6.1950    -4.4214 H       
  42 H42           -2.2896     6.1690    -3.8705 H       
  43 H43            1.9908    12.4634     2.0048 H       
  44 H44            3.7133    11.9803     1.8924 H       
  45 H45            1.8030    13.7545    -2.2668 H       
  46 H46            0.6297     9.2120    -0.7502 H       
  47 H47           -1.3033    11.1748    -5.0314 H       
  48 H48            0.4111    10.6660    -5.1881 H       
  49 H49           -2.5773    11.9954    -2.3530 H       
  50 H50           -4.8549    11.3022    -1.7165 H       
  51 H51           -5.5032     8.9319    -1.8637 H       
  52 H52           -3.8893     7.2543    -2.6428 H       
@<TRIPOS>BOND
   1    1    2 1
   2    1    3 1
   3    1    4 1
   4    1   31 1
   5    2    3 1
   6    2   32 1
   7    2   33 1
   8    3   34 1
   9    3   35 1
  10    4    5 2
  11    4    6 am
  12    6    7 1
  13    6   36 1
  14    7    8 1
  15    7   37 1
  16    7   38 1
  17    8    9 1
  18    8   39 1
  19    8   40 1
  20    9   22 1
  21    9   41 1
  22    9   42 1
  23   10   11 1
  24   10   14 1
  25   11   12 1
  26   11   43 1
  27   11   44 1
  28   12   13 1
  29   13   14 ar
  30   13   15 ar
  31   14   18 ar
  32   15   16 ar
  33   15   45 1
  34   16   17 ar
  35   16   19 1
  36   17   18 ar
  37   17   20 1
  38   18   46 1
  39   19   21 1
  40   20   21 1
  41   20   23 1
  42   20   24 1
  43   21   47 1
  44   21   48 1
  45   22   23 am
  46   22   29 1
  47   23   30 2
  48   24   25 ar
  49   24   29 ar
  50   25   26 ar
  51   25   49 1
  52   26   27 ar
  53   26   50 1
  54   27   28 ar
  55   27   51 1
  56   28   29 ar
  57   28   52 1

#	End of record

