#	Name: ASD01910683
#	Creating user name:	WinNT
#	Creation time:	15. 06. 2019 19:56

#	Modifying user name:	WinNT
#	Modification time:	15. 06. 2019 19:56

#	Program:	/corina/corina34_cracker 3.40 0067  02.08.2006

@<TRIPOS>MOLECULE
ASD01910683
  49   52    0    0    0
SMALL
NO_CHARGES


@<TRIPOS>ATOM
   1 C1             0.0598     1.7633    -0.3705 C.ar    
   2 C2             0.0023     0.3764    -0.4007 C.ar    
   3 C3             1.1881    -0.3346    -0.3552 C.ar    
   4 C4             2.3909     0.3600    -0.2811 C.ar    
   5 N5             2.4041     1.6839    -0.2539 N.ar    
   6 C6             1.2889     2.3878    -0.2965 C.ar    
   7 N7             3.5899    -0.3418    -0.2347 N.3     
   8 C8             4.7345     0.5758    -0.1591 C.3     
   9 C9             6.0170    -0.2304     0.0722 C.3     
  10 N10            6.1149    -1.2621    -0.9715 N.am    
  11 C11            4.9522    -2.1334    -1.1999 C.3     
  12 C12            3.7117    -1.2523    -1.3811 C.3     
  13 C13            7.2404    -1.4055    -1.6989 C.2     
  14 C14            7.3646    -2.5262    -2.6556 C.ar    
  15 O15            8.1533    -0.6137    -1.5686 O.2     
  16 C16            7.9775    -2.3242    -3.8942 C.ar    
  17 C17            8.0943    -3.3691    -4.7898 C.ar    
  18 C18            7.6070    -4.6198    -4.4686 C.ar    
  19 C19            6.9913    -4.8369    -3.2318 C.ar    
  20 C20            6.8755    -3.7870    -2.3210 C.ar    
  21 C21            6.4860    -6.1349    -2.8994 C.1     
  22 C22            6.0717    -7.1990    -2.6268 C.1     
  23 C23            5.5664    -8.4970    -2.2943 C.ar    
  24 C24            4.9510    -8.7152    -1.0588 C.ar    
  25 C25            4.4667    -9.9676    -0.7450 C.ar    
  26 C26            4.5891   -11.0079    -1.6511 C.ar    
  27 C27            5.1979   -10.7985    -2.8774 C.ar    
  28 C28            5.6815    -9.5496    -3.2062 C.ar    
  29 Cl29           3.9771   -12.5816    -1.2478 Cl      
  30 H30           -0.8476     2.3478    -0.4090 H       
  31 H31           -0.9468    -0.1357    -0.4581 H       
  32 H32            1.1800    -1.4144    -0.3765 H       
  33 H33            1.3382     3.4664    -0.2723 H       
  34 H34            4.8176     1.1313    -1.0933 H       
  35 H35            4.5886     1.2720     0.6668 H       
  36 H36            6.8810     0.4316     0.0149 H       
  37 H37            5.9797    -0.7042     1.0531 H       
  38 H38            5.1123    -2.7296    -2.0982 H       
  39 H39            4.8126    -2.7902    -0.3412 H       
  40 H40            2.8240    -1.8819    -1.4414 H       
  41 H41            3.8090    -0.6713    -2.2982 H       
  42 H42            8.3608    -1.3481    -4.1526 H       
  43 H43            8.5689    -3.2067    -5.7462 H       
  44 H44            7.7010    -5.4323    -5.1738 H       
  45 H45            6.4014    -3.9486    -1.3642 H       
  46 H46            4.8552    -7.9050    -0.3512 H       
  47 H47            3.9911   -10.1377     0.2096 H       
  48 H48            5.2901   -11.6140    -3.5794 H       
  49 H49            6.1560    -9.3876    -4.1627 H       
@<TRIPOS>BOND
   1    1    2 ar
   2    1    6 ar
   3    1   30 1
   4    2    3 ar
   5    2   31 1
   6    3    4 ar
   7    3   32 1
   8    4    5 ar
   9    4    7 1
  10    5    6 ar
  11    6   33 1
  12    7    8 1
  13    7   12 1
  14    8    9 1
  15    8   34 1
  16    8   35 1
  17    9   10 1
  18    9   36 1
  19    9   37 1
  20   10   11 1
  21   10   13 am
  22   11   12 1
  23   11   38 1
  24   11   39 1
  25   12   40 1
  26   12   41 1
  27   13   14 1
  28   13   15 2
  29   14   16 ar
  30   14   20 ar
  31   16   17 ar
  32   16   42 1
  33   17   18 ar
  34   17   43 1
  35   18   19 ar
  36   18   44 1
  37   19   20 ar
  38   19   21 1
  39   20   45 1
  40   21   22 3
  41   22   23 1
  42   23   24 ar
  43   23   28 ar
  44   24   25 ar
  45   24   46 1
  46   25   26 ar
  47   25   47 1
  48   26   27 ar
  49   26   29 1
  50   27   28 ar
  51   27   48 1
  52   28   49 1

#	End of record

