#	Name: ASD08170401
#	Creating user name:	WinNT
#	Creation time:	15. 06. 2019 21:17

#	Modifying user name:	WinNT
#	Modification time:	15. 06. 2019 21:17

#	Program:	/corina/corina34_cracker 3.40 0067  02.08.2006

@<TRIPOS>MOLECULE
ASD08170401
  53   56    0    0    0
SMALL
NO_CHARGES


@<TRIPOS>ATOM
   1 N1            -0.0156     1.2977     0.0092 N.2     
   2 C2             0.0021    -0.0041     0.0020 C.2     
   3 S3             1.6908    -0.5171    -0.0169 S.3     
   4 C4             2.1707     1.1812    -0.0123 C.2     
   5 N5             1.0934     1.8979     0.0018 N.2     
   6 C6             7.9365     3.2704     4.7950 C.2     
   7 S7             7.6708     4.6839     5.8176 S.3     
   8 C8             8.3505     3.7856     7.1764 C.2     
   9 N9             8.6802     2.6030     6.7431 N.2     
  10 N10            8.4619     2.3430     5.5286 N.2     
  11 C11            9.2083     3.9598    10.8008 C.ar    
  12 C12           -3.5296    -1.1994     0.0301 C.ar    
  13 C13            8.8098     5.2569    11.1292 C.ar    
  14 C14           -4.8161    -0.6558     0.0453 C.ar    
  15 C15            8.9671     5.7176    12.4197 C.ar    
  16 C16            9.5185     4.8975    13.3885 C.ar    
  17 C17            9.9161     3.6113    13.0706 C.ar    
  18 C18            9.7588     3.1352    11.7845 C.ar    
  19 C19           -5.9147    -1.4915     0.0517 C.ar    
  20 C20           -5.7433    -2.8641     0.0437 C.ar    
  21 C21           -4.4713    -3.4090     0.0291 C.ar    
  22 C22           -3.3647    -2.5857     0.0158 C.ar    
  23 I23           10.3617     1.1870    11.3049 I       
  24 I24           -5.0777     1.4228     0.0589 I       
  25 N25            8.5061     4.2561     8.4747 N.am    
  26 C26            9.0428     3.4596     9.4203 C.2     
  27 O27            9.3908     2.3297     9.1374 O.2     
  28 C28            3.5841     1.7039    -0.0230 C.3     
  29 C29            4.0762     1.8731     1.4158 C.3     
  30 S30            5.7775     2.5023     1.4029 S.3     
  31 C31            6.1771     2.6343     3.1674 C.3     
  32 C32            7.6046     3.1607     3.3291 C.3     
  33 N33           -1.1087    -0.8393     0.0085 N.am    
  34 C34           -2.3487    -0.3114     0.0232 C.2     
  35 O35           -2.4955     0.8953     0.0306 O.2     
  36 H36            8.3796     5.8983    10.3742 H       
  37 H37            8.6595     6.7209    12.6748 H       
  38 H38            9.6393     5.2635    14.3974 H       
  39 H39           10.3461     2.9767    13.8313 H       
  40 H40           -6.9102    -1.0729     0.0634 H       
  41 H41           -6.6062    -3.5136     0.0491 H       
  42 H42           -4.3448    -4.4816     0.0233 H       
  43 H43           -2.3727    -3.0125     0.0040 H       
  44 H44            8.2285     5.1576     8.7005 H       
  45 H45            4.2286     0.9980    -0.5468 H       
  46 H46            3.6113     2.6674    -0.5320 H       
  47 H47            3.4317     2.5790     1.9396 H       
  48 H48            4.0489     0.9096     1.9247 H       
  49 H49            5.4800     3.3212     3.6474 H       
  50 H50            6.0973     1.6518     3.6325 H       
  51 H51            7.6844     4.1432     2.8639 H       
  52 H52            8.3016     2.4738     2.8491 H       
  53 H53           -0.9915    -1.8022     0.0026 H       
@<TRIPOS>BOND
   1    1    2 2
   2    1    5 1
   3    2    3 1
   4    2   33 1
   5    3    4 1
   6    4    5 2
   7    4   28 1
   8    6    7 1
   9    6   32 1
  10    6   10 2
  11    7    8 1
  12    8    9 2
  13    8   25 1
  14    9   10 1
  15   11   13 ar
  16   11   26 1
  17   11   18 ar
  18   12   14 ar
  19   12   34 1
  20   12   22 ar
  21   13   15 ar
  22   13   36 1
  23   14   19 ar
  24   14   24 1
  25   15   16 ar
  26   15   37 1
  27   16   17 ar
  28   16   38 1
  29   17   18 ar
  30   17   39 1
  31   18   23 1
  32   19   20 ar
  33   19   40 1
  34   20   21 ar
  35   20   41 1
  36   21   22 ar
  37   21   42 1
  38   22   43 1
  39   25   26 am
  40   25   44 1
  41   26   27 2
  42   28   29 1
  43   28   45 1
  44   28   46 1
  45   29   30 1
  46   29   47 1
  47   29   48 1
  48   30   31 1
  49   31   32 1
  50   31   49 1
  51   31   50 1
  52   32   51 1
  53   32   52 1
  54   33   34 am
  55   33   53 1
  56   34   35 2

#	End of record

