#	Name: ASD03090342
#	Creating user name:	WinNT
#	Creation time:	15. 06. 2019 20:28

#	Modifying user name:	WinNT
#	Modification time:	15. 06. 2019 20:28

#	Program:	/corina/corina34_cracker 3.40 0067  02.08.2006

@<TRIPOS>MOLECULE
ASD03090342
  56   59    0    0    0
SMALL
NO_CHARGES


@<TRIPOS>ATOM
   1 C1             0.0415     1.5699    -0.0585 C.ar    
   2 C2             0.1642     0.4403     0.7404 C.ar    
   3 C3             1.3543    -0.2540     0.7836 C.ar    
   4 C4             2.4414     0.1777     0.0225 C.ar    
   5 C5             2.3196     1.3128    -0.7793 C.ar    
   6 C6             1.1229     2.0070    -0.8175 C.ar    
   7 C7             3.7191    -0.5657     0.0661 C.2     
   8 N8             7.1909    -0.8983    -0.3749 N.pl3   
   9 C9             7.6678     0.2740    -0.9732 C.ar    
  10 C10            6.7762     1.2150    -1.4668 C.ar    
  11 C11            7.2502     2.3727    -2.0577 C.ar    
  12 C12            8.6119     2.5940    -2.1579 C.ar    
  13 C13            9.5060     1.6593    -1.6679 C.ar    
  14 C14            9.0394     0.5013    -1.0693 C.ar    
  15 N15            4.9021    -0.0957    -0.2773 N.2     
  16 C16            5.8277    -1.0424    -0.1104 C.2     
  17 N17            5.2502    -2.1312     0.3420 N.2     
  18 N18            3.8813    -1.8456     0.4708 N.pl3   
  19 C19            2.8351    -2.7566     0.9417 C.3     
  20 C20            2.7660    -2.7077     2.4693 C.3     
  21 C21            1.6898    -3.6449     2.9537 C.2     
  22 N22            1.4473    -3.7677     4.2738 N.am    
  23 C23            0.4011    -4.6787     4.7447 C.3     
  24 O24            1.0419    -4.2885     2.1557 O.2     
  25 C25            2.2299    -2.9903     5.2378 C.3     
  26 O26            1.0217     3.1172    -1.5989 O.3     
  27 C27           -0.3013     3.5728    -1.9020 C.3     
  28 C28           -1.1189     3.5724    -0.6033 C.3     
  29 O29           -1.1453     2.2348    -0.0920 O.3     
  30 O30            9.9179    -0.4185    -0.5872 O.3     
  31 C31           11.3090    -0.1251    -0.7322 C.3     
  32 Cl32           6.1335     3.5498    -2.6752 Cl      
  33 H33           -0.6760     0.1048     1.3302 H       
  34 H34            1.4455    -1.1316     1.4066 H       
  35 H35            3.1590     1.6502    -1.3693 H       
  36 H36            7.8076    -1.6105    -0.1440 H       
  37 H37            5.7126     1.0438    -1.3903 H       
  38 H38            8.9779     3.4989    -2.6201 H       
  39 H39           10.5686     1.8348    -1.7484 H       
  40 H40            1.8747    -2.4536     0.5246 H       
  41 H41            3.0664    -3.7723     0.6208 H       
  42 H42            3.7263    -3.0108     2.8864 H       
  43 H43            2.5347    -1.6920     2.7902 H       
  44 H44            0.8296    -5.6660     4.9170 H       
  45 H45           -0.0203    -4.2981     5.6751 H       
  46 H46           -0.3844    -4.7498     3.9923 H       
  47 H47            2.0934    -1.9265     5.0429 H       
  48 H48            1.8935    -3.2205     6.2487 H       
  49 H49            3.2850    -3.2453     5.1390 H       
  50 H50           -0.2580     4.5831    -2.3089 H       
  51 H51           -0.7634     2.9032    -2.6275 H       
  52 H52           -0.6530     4.2368     0.1245 H       
  53 H53           -2.1357     3.9068    -0.8091 H       
  54 H54           11.5492    -0.0169    -1.7899 H       
  55 H55           11.5409     0.8032    -0.2101 H       
  56 H56           11.8979    -0.9379    -0.3072 H       
@<TRIPOS>BOND
   1    1    2 ar
   2    1    6 ar
   3    1   29 1
   4    2    3 ar
   5    2   33 1
   6    3    4 ar
   7    3   34 1
   8    4    5 ar
   9    4    7 1
  10    5    6 ar
  11    5   35 1
  12    6   26 1
  13    7   15 2
  14    7   18 1
  15    8    9 1
  16    8   16 1
  17    8   36 1
  18    9   10 ar
  19    9   14 ar
  20   10   11 ar
  21   10   37 1
  22   11   12 ar
  23   11   32 1
  24   12   13 ar
  25   12   38 1
  26   13   14 ar
  27   13   39 1
  28   14   30 1
  29   15   16 1
  30   16   17 2
  31   17   18 1
  32   18   19 1
  33   19   20 1
  34   19   40 1
  35   19   41 1
  36   20   21 1
  37   20   42 1
  38   20   43 1
  39   21   22 am
  40   21   24 2
  41   22   23 1
  42   22   25 1
  43   23   44 1
  44   23   45 1
  45   23   46 1
  46   25   47 1
  47   25   48 1
  48   25   49 1
  49   26   27 1
  50   27   28 1
  51   27   50 1
  52   27   51 1
  53   28   29 1
  54   28   52 1
  55   28   53 1
  56   30   31 1
  57   31   54 1
  58   31   55 1
  59   31   56 1

#	End of record

