#	Name: ASD01411123
#	Creating user name:	WinNT
#	Creation time:	15. 06. 2019 19:19

#	Modifying user name:	WinNT
#	Modification time:	15. 06. 2019 19:19

#	Program:	/corina/corina34_cracker 3.40 0067  02.08.2006

@<TRIPOS>MOLECULE
ASD01411123
  88   91    0    0    0
SMALL
NO_CHARGES


@<TRIPOS>ATOM
   1 C1            -0.8957     2.3473    -0.6127 C.ar    
   2 C2            -0.8781     1.0527    -1.1180 C.ar    
   3 C3            -1.9940     0.2474    -1.0125 C.ar    
   4 C4            -3.1436     0.7262    -0.3997 C.ar    
   5 C5            -3.1679     2.0324     0.1125 C.ar    
   6 C6            -2.0314     2.8377     0.0059 C.ar    
   7 O7             0.2090     3.1323    -0.7218 O.3     
   8 C8             0.5584     3.5727    -1.9576 C.ar    
   9 N9            -4.2706    -0.0876    -0.2939 N.am    
  10 C10           -4.4955    -0.7833     0.8383 C.2     
  11 C11           -3.5957    -0.5916     2.0318 C.3     
  12 O12           -5.4221    -1.5636     0.8966 O.2     
  13 C13           -4.3503    -0.9750     3.3063 C.3     
  14 C14           -2.3581    -1.4792     1.8853 C.3     
  15 C15           -1.4445    -1.2846     3.0971 C.3     
  16 C16           -2.1992    -1.6680     4.3716 C.3     
  17 C17           -3.4367    -0.7803     4.5181 C.3     
  18 C18           -1.2856    -1.4734     5.5833 C.3     
  19 N19           -0.2315     3.3219    -2.9881 N.ar    
  20 C20           -5.2103    -0.1866    -1.4134 C.3     
  21 C21           -5.0604     1.0403    -2.3152 C.3     
  22 C22            1.7384     4.2858    -2.1235 C.ar    
  23 C23            2.0862     4.7305    -3.3868 C.ar    
  24 C24            1.2323     4.4428    -4.4497 C.ar    
  25 C25            0.0672     3.7299    -4.2065 C.ar    
  26 C26           -4.9113    -1.4519    -2.2199 C.3     
  27 O27           -5.4657     2.2093    -1.6002 O.3     
  28 O28           -5.1413    -2.6023    -1.4040 O.3     
  29 C29           -5.3640     3.4176    -2.3565 C.3     
  30 C30           -4.8900    -3.8438    -2.0656 C.3     
  31 N31            1.5432     4.8723    -5.7451 N.3     
  32 C32            2.7552     5.5731    -5.7640 C.3     
  33 C33            3.0246     6.2285    -7.1336 C.3     
  34 N34            3.5127     5.2192    -8.0465 N.3     
  35 C35            2.4540     4.5994    -8.8756 C.3     
  36 C36            1.1764     4.3054    -8.0734 C.3     
  37 C37            1.4808     3.7490    -6.7053 C.3     
  38 C38            4.5964     5.7480    -8.8854 C.3     
  39 F39            0.4469     5.4905    -7.9301 F       
  40 F40            0.4003     3.3791    -8.7783 F       
  41 C41            2.6289     4.5724    -0.9420 C.3     
  42 F42            3.7466     5.2993    -1.3659 F       
  43 F43            1.9201     5.3177     0.0063 F       
  44 F44            3.0468     3.3662    -0.3696 F       
  45 C45           -4.3842     2.5500     0.7645 C.2     
  46 O46           -5.3972     1.8792     0.7809 O.2     
  47 O47           -4.3728     3.7673     1.3425 O.3     
  48 H48            0.0135     0.6749    -1.5961 H       
  49 H49           -1.9727    -0.7574    -1.4079 H       
  50 H50           -2.0423     3.8439     0.3981 H       
  51 H51           -3.2888     0.4526     2.0915 H       
  52 H52           -5.2320    -0.3426     3.4107 H       
  53 H53           -4.6572    -2.0192     3.2466 H       
  54 H54           -2.6650    -2.5234     1.8256 H       
  55 H55           -1.8205    -1.2061     0.9773 H       
  56 H56           -0.5629    -1.9170     2.9927 H       
  57 H57           -1.1377    -0.2404     3.1568 H       
  58 H58           -2.5061    -2.7122     4.3119 H       
  59 H59           -3.1299     0.2639     4.5778 H       
  60 H60           -3.9744    -1.0535     5.4261 H       
  61 H61           -0.9788    -0.4291     5.6430 H       
  62 H62           -1.8233    -1.7465     6.4913 H       
  63 H63           -0.4040    -2.1057     5.4790 H       
  64 H64           -6.2294    -0.2329    -1.0294 H       
  65 H65           -4.0185     1.1430    -2.6187 H       
  66 H66           -5.6862     0.9200    -3.1995 H       
  67 H67            2.9977     5.2877    -3.5452 H       
  68 H68           -0.6003     3.5026    -5.0245 H       
  69 H69           -5.5634    -1.4891    -3.0926 H       
  70 H70           -3.8707    -1.4386    -2.5442 H       
  71 H71           -5.6897     4.2582    -1.7438 H       
  72 H72           -4.3284     3.5696    -2.6608 H       
  73 H73           -5.9961     3.3465    -3.2416 H       
  74 H74           -5.0877    -4.6675    -1.3797 H       
  75 H75           -5.5416    -3.9306    -2.9350 H       
  76 H76           -3.8490    -3.8801    -2.3867 H       
  77 H77            2.7275     6.3493    -4.9993 H       
  78 H78            3.5671     4.8825    -5.5361 H       
  79 H79            2.1003     6.6559    -7.5220 H       
  80 H80            3.7733     7.0128    -7.0221 H       
  81 H81            2.2082     5.2739    -9.6958 H       
  82 H82            2.8326     3.6654    -9.2908 H       
  83 H83            2.4396     3.2310    -6.7256 H       
  84 H84            0.6934     3.0564    -6.4080 H       
  85 H85            5.3910     6.1380    -8.2493 H       
  86 H86            4.9924     4.9498    -9.5132 H       
  87 H87            4.2100     6.5486    -9.5161 H       
  88 H88           -5.1943     4.0639     1.7575 H       
@<TRIPOS>BOND
   1    1    2 ar
   2    1    7 1
   3    1    6 ar
   4    2    3 ar
   5    2   48 1
   6    3    4 ar
   7    3   49 1
   8    4    5 ar
   9    4    9 1
  10    5    6 ar
  11    5   45 1
  12    6   50 1
  13    7    8 1
  14    8   22 ar
  15    8   19 ar
  16    9   10 am
  17    9   20 1
  18   10   12 2
  19   10   11 1
  20   11   13 1
  21   11   14 1
  22   11   51 1
  23   13   17 1
  24   13   52 1
  25   13   53 1
  26   14   15 1
  27   14   54 1
  28   14   55 1
  29   15   16 1
  30   15   56 1
  31   15   57 1
  32   16   17 1
  33   16   18 1
  34   16   58 1
  35   17   59 1
  36   17   60 1
  37   18   61 1
  38   18   62 1
  39   18   63 1
  40   19   25 ar
  41   20   21 1
  42   20   26 1
  43   20   64 1
  44   21   27 1
  45   21   65 1
  46   21   66 1
  47   22   23 ar
  48   22   41 1
  49   23   24 ar
  50   23   67 1
  51   24   25 ar
  52   24   31 1
  53   25   68 1
  54   26   28 1
  55   26   69 1
  56   26   70 1
  57   27   29 1
  58   28   30 1
  59   29   71 1
  60   29   72 1
  61   29   73 1
  62   30   74 1
  63   30   75 1
  64   30   76 1
  65   31   32 1
  66   31   37 1
  67   32   33 1
  68   32   77 1
  69   32   78 1
  70   33   34 1
  71   33   79 1
  72   33   80 1
  73   34   35 1
  74   34   38 1
  75   35   36 1
  76   35   81 1
  77   35   82 1
  78   36   37 1
  79   36   39 1
  80   36   40 1
  81   37   83 1
  82   37   84 1
  83   38   85 1
  84   38   86 1
  85   38   87 1
  86   41   42 1
  87   41   43 1
  88   41   44 1
  89   45   46 2
  90   45   47 1
  91   47   88 1

#	End of record

