#	Name: ASD01882621
#	Creating user name:	WinNT
#	Creation time:	15. 06. 2019 19:44

#	Modifying user name:	WinNT
#	Modification time:	15. 06. 2019 19:44

#	Program:	/corina/corina34_cracker 3.40 0067  02.08.2006

@<TRIPOS>MOLECULE
ASD01882621
  59   63    0    0    0
SMALL
NO_CHARGES


@<TRIPOS>ATOM
   1 C1            -0.0028     1.1582     0.1879 C.ar    
   2 C2            -0.1172    -0.2076     0.0062 C.ar    
   3 C3             1.0171    -0.9959    -0.0409 C.ar    
   4 C4             2.2662    -0.4186     0.0932 C.ar    
   5 C5             2.3806     0.9468     0.2739 C.ar    
   6 C6             1.2459     1.7352     0.3224 C.ar    
   7 C7            -1.2392     2.0185     0.2330 C.3     
   8 O8            -0.8633     3.3826     0.4329 O.3     
   9 C9            -2.0002     1.8875    -1.0879 C.3     
  10 C10           -2.1361     1.5625     1.3856 C.3     
  11 N11           -3.2394    -3.0197    -0.5077 N.pl3   
  12 C12           -2.9707    -2.1451    -1.6573 C.3     
  13 C13           -1.5740    -1.5364    -1.4978 C.3     
  14 C14           -1.4787    -0.8368    -0.1400 C.3     
  15 C15           -1.6905    -1.8596     0.9786 C.3     
  16 C16           -3.0885    -2.4719     0.8472 C.3     
  17 C17           -5.2471    -6.0970    -0.4845 C.2     
  18 C18           -4.8701    -4.7582    -0.2794 C.2     
  19 C19           -3.6354    -4.3414    -0.6988 C.2     
  20 C20           -2.7663    -5.2596    -1.3266 C.2     
  21 C21           -3.1480    -6.5384    -1.5126 C.2     
  22 N22           -4.3767    -6.9642    -1.0988 N.pl3   
  23 N23           -6.1951    -8.0041    -0.5963 N.2     
  24 N24           -6.3388    -6.7895    -0.1968 N.2     
  25 C25           -5.0220    -8.1647    -1.1500 C.2     
  26 C26           -4.4804    -9.4434    -1.7354 C.3     
  27 C27           -3.7424   -10.2290    -0.6496 C.3     
  28 C28           -3.2174   -11.6185    -1.0163 C.3     
  29 C29           -2.2408   -10.4543    -0.8378 C.3     
  30 Cl30          -5.9569    -3.6476     0.4946 Cl      
  31 H31            0.9277    -2.0629    -0.1822 H       
  32 H32            3.1525    -1.0347     0.0571 H       
  33 H33            3.3563     1.3977     0.3793 H       
  34 H34            1.3353     2.8021     0.4644 H       
  35 H35           -1.6108     3.9949     0.4722 H       
  36 H36           -2.1469     0.8326    -1.3196 H       
  37 H37           -2.9694     2.3782    -0.9991 H       
  38 H38           -1.4263     2.3584    -1.8861 H       
  39 H39           -1.6650     1.8169     2.3351 H       
  40 H40           -3.1021     2.0622     1.3139 H       
  41 H41           -2.2800     0.4835     1.3290 H       
  42 H42           -3.0125    -2.7278    -2.5775 H       
  43 H43           -3.7144    -1.3490    -1.6924 H       
  44 H44           -0.8245    -2.3258    -1.5537 H       
  45 H45           -1.3999    -0.8118    -2.2933 H       
  46 H46           -2.2447    -0.0641    -0.0750 H       
  47 H47           -0.9399    -2.6460     0.8994 H       
  48 H48           -1.5993    -1.3651     1.9457 H       
  49 H49           -3.8418    -1.7025     1.0163 H       
  50 H50           -3.2080    -3.2704     1.5796 H       
  51 H51           -1.7913    -4.9357    -1.6596 H       
  52 H52           -2.4754    -7.2328    -1.9940 H       
  53 H53           -5.3042   -10.0436    -2.1217 H       
  54 H54           -3.7907    -9.2083    -2.5461 H       
  55 H55           -4.1058   -10.0805     0.3673 H       
  56 H56           -3.2350   -12.3841    -0.2406 H       
  57 H57           -3.3978   -11.9730    -2.0312 H       
  58 H58           -1.7787   -10.0429    -1.7352 H       
  59 H59           -1.6160   -10.4540     0.0553 H       
@<TRIPOS>BOND
   1    1    2 ar
   2    1    6 ar
   3    1    7 1
   4    2    3 ar
   5    2   14 1
   6    3    4 ar
   7    3   31 1
   8    4    5 ar
   9    4   32 1
  10    5    6 ar
  11    5   33 1
  12    6   34 1
  13    7    8 1
  14    7    9 1
  15    7   10 1
  16    8   35 1
  17    9   36 1
  18    9   37 1
  19    9   38 1
  20   10   39 1
  21   10   40 1
  22   10   41 1
  23   11   12 1
  24   11   16 1
  25   11   19 1
  26   12   13 1
  27   12   42 1
  28   12   43 1
  29   13   14 1
  30   13   44 1
  31   13   45 1
  32   14   15 1
  33   14   46 1
  34   15   16 1
  35   15   47 1
  36   15   48 1
  37   16   49 1
  38   16   50 1
  39   17   18 1
  40   17   22 1
  41   17   24 2
  42   18   19 2
  43   18   30 1
  44   19   20 1
  45   20   21 2
  46   20   51 1
  47   21   22 1
  48   21   52 1
  49   22   25 1
  50   23   24 1
  51   23   25 2
  52   25   26 1
  53   26   27 1
  54   26   53 1
  55   26   54 1
  56   27   28 1
  57   27   29 1
  58   27   55 1
  59   28   29 1
  60   28   56 1
  61   28   57 1
  62   29   58 1
  63   29   59 1

#	End of record

