#	Name: ASD01811667
#	Creating user name:	WinNT
#	Creation time:	15. 06. 2019 19:27

#	Modifying user name:	WinNT
#	Modification time:	15. 06. 2019 19:27

#	Program:	/corina/corina34_cracker 3.40 0067  02.08.2006

@<TRIPOS>MOLECULE
ASD01811667
  68   73    0    0    0
SMALL
NO_CHARGES


@<TRIPOS>ATOM
   1 C1             0.0153     1.3762     0.1115 C.ar    
   2 C2             0.0491    -0.0260     0.2129 C.ar    
   3 C3             1.2465    -0.6665     0.3058 C.ar    
   4 C4             2.4433     0.0469     0.3023 C.ar    
   5 C5             2.4497     1.4053     0.2060 C.ar    
   6 C6             1.2349     2.1022     0.1075 C.ar    
   7 C7             1.2062     3.5052     0.0067 C.ar    
   8 C8             0.0212     4.1590    -0.0862 C.ar    
   9 C9            -1.1954     2.0698     0.0085 C.ar    
  10 N10           -3.4351     2.8572    -0.1457 N.am    
  11 C11           -2.6379     1.6313    -0.0230 C.3     
  12 C12           -1.1977     3.4527    -0.0836 C.ar    
  13 C13           -2.5988     3.9092    -0.1709 C.2     
  14 C14           -4.8969     2.9241    -0.2142 C.3     
  15 C15           -5.4249     3.7552     0.9568 C.3     
  16 C16           -6.9516     3.8251     0.8852 C.3     
  17 C17           -7.3710     4.4779    -0.4335 C.3     
  18 C18           -6.8430     3.6467    -1.6046 C.3     
  19 C19           -5.3163     3.5768    -1.5329 C.3     
  20 C20            2.4961     4.2843     0.0022 C.3     
  21 N21            3.0532     4.3170     1.3611 N.3     
  22 C22            2.0481     4.7702     2.3311 C.3     
  23 C23            4.2588     5.1535     1.4157 C.3     
  24 C24            4.8920     5.0481     2.8050 C.3     
  25 C25            3.8803     5.5089     3.8579 C.3     
  26 C26            2.6152     4.6533     3.7477 C.3     
  27 C27            4.4769     5.3508     5.2327 C.ar    
  28 N28            5.5577     4.6122     5.3932 N.ar    
  29 C29            6.1144     4.4460     6.5769 C.ar    
  30 C30            5.5787     5.0464     7.7008 C.ar    
  31 C31            4.4427     5.8304     7.5713 C.ar    
  32 C32            3.8886     5.9861     6.3097 C.ar    
  33 O33           -4.8232     2.8005    -2.6267 O.3     
  34 O34           -2.9462     5.0703    -0.2656 O.2     
  35 C35            3.5398     6.9223     3.6276 C.1     
  36 N36            3.2770     8.0131     3.4498 N.1     
  37 H37           -0.8707    -0.5919     0.2176 H       
  38 H38            1.2693    -1.7435     0.3836 H       
  39 H39            3.3800    -0.4854     0.3775 H       
  40 H40            3.3856     1.9443     0.2050 H       
  41 H41            0.0120     5.2363    -0.1627 H       
  42 H42           -2.8137     0.9824    -0.8810 H       
  43 H43           -2.8914     1.1100     0.9001 H       
  44 H44           -5.3097     1.9167    -0.1601 H       
  45 H45           -5.1262     3.2902     1.8963 H       
  46 H46           -5.0121     4.7626     0.9026 H       
  47 H47           -7.3644     2.8178     0.9393 H       
  48 H48           -7.3278     4.4173     1.7194 H       
  49 H49           -8.4587     4.5277    -0.4846 H       
  50 H50           -6.9582     5.4852    -0.4877 H       
  51 H51           -7.2558     2.6394    -1.5504 H       
  52 H52           -7.1418     4.1118    -2.5440 H       
  53 H53           -4.9035     4.5842    -1.5871 H       
  54 H54            3.2075     3.8055    -0.6706 H       
  55 H55            2.3045     5.3025    -0.3364 H       
  56 H56            1.7899     5.8095     2.1279 H       
  57 H57            1.1552     4.1508     2.2451 H       
  58 H58            4.9717     4.8126     0.6649 H       
  59 H59            3.9903     6.1910     1.2168 H       
  60 H60            5.1733     4.0131     2.9991 H       
  61 H61            5.7781     5.6813     2.8501 H       
  62 H62            1.8747     5.0044     4.4663 H       
  63 H63            2.8608     3.6120     3.9566 H       
  64 H64            6.9990     3.8334     6.6694 H       
  65 H65            6.0391     4.9062     8.6676 H       
  66 H66            4.0020     6.3115     8.4319 H       
  67 H67            3.0060     6.5930     6.1712 H       
  68 H68           -5.0520     3.1563    -3.4962 H       
@<TRIPOS>BOND
   1    1    2 ar
   2    1    6 ar
   3    1    9 ar
   4    2    3 ar
   5    2   37 1
   6    3    4 ar
   7    3   38 1
   8    4    5 ar
   9    4   39 1
  10    5    6 ar
  11    5   40 1
  12    6    7 ar
  13    7    8 ar
  14    7   20 1
  15    8   12 ar
  16    8   41 1
  17    9   11 1
  18    9   12 ar
  19   10   11 1
  20   10   13 am
  21   10   14 1
  22   11   42 1
  23   11   43 1
  24   12   13 1
  25   13   34 2
  26   14   15 1
  27   14   19 1
  28   14   44 1
  29   15   16 1
  30   15   45 1
  31   15   46 1
  32   16   17 1
  33   16   47 1
  34   16   48 1
  35   17   18 1
  36   17   49 1
  37   17   50 1
  38   18   19 1
  39   18   51 1
  40   18   52 1
  41   19   33 1
  42   19   53 1
  43   20   21 1
  44   20   54 1
  45   20   55 1
  46   21   23 1
  47   21   22 1
  48   22   26 1
  49   22   56 1
  50   22   57 1
  51   23   24 1
  52   23   58 1
  53   23   59 1
  54   24   25 1
  55   24   60 1
  56   24   61 1
  57   25   26 1
  58   25   27 1
  59   25   35 1
  60   26   62 1
  61   26   63 1
  62   27   28 ar
  63   27   32 ar
  64   28   29 ar
  65   29   30 ar
  66   29   64 1
  67   30   31 ar
  68   30   65 1
  69   31   32 ar
  70   31   66 1
  71   32   67 1
  72   33   68 1
  73   35   36 3

#	End of record

