#	Name: ASD03331832
#	Creating user name:	WinNT
#	Creation time:	15. 06. 2019 20:39

#	Modifying user name:	WinNT
#	Modification time:	15. 06. 2019 20:39

#	Program:	/corina/corina34_cracker 3.40 0067  02.08.2006

@<TRIPOS>MOLECULE
ASD03331832
  43   46    0    0    0
SMALL
NO_CHARGES


@<TRIPOS>ATOM
   1 C1            -0.0699     1.3921    -0.0502 C.2     
   2 C2            -0.1227    -0.0364    -0.3562 C.ar    
   3 C3             1.2066    -0.4985    -0.3147 C.ar    
   4 N4             2.0078     0.5782    -0.0046 N.pl3   
   5 C5             1.2341     1.7050     0.1517 C.2     
   6 C6            -1.1604    -0.9253    -0.6522 C.ar    
   7 C7            -0.8784    -2.2387    -0.8997 C.ar    
   8 C8             0.4310    -2.6986    -0.8599 C.ar    
   9 C9             1.4692    -1.8407    -0.5693 C.ar    
  10 C10            1.7460     3.0513     0.4875 C.ar    
  11 C11            2.6976     3.2076     1.4962 C.ar    
  12 C12            3.1715     4.4661     1.8043 C.ar    
  13 C13            2.7049     5.5719     1.1160 C.ar    
  14 C14            1.7615     5.4237     0.1149 C.ar    
  15 C15            1.2838     4.1700    -0.2069 C.ar    
  16 C16           -1.2408     2.3381     0.0209 C.3     
  17 C17           -2.0487     2.2481    -1.2753 C.3     
  18 C18           -2.1188     1.9639     1.1871 C.ar    
  19 N19           -3.1160     3.2513    -1.2561 N.pl3   
  20 O20           -2.8757     4.3893    -0.8945 O.2     
  21 O21           -4.2437     2.9475    -1.6018 O.2     
  22 C22           -3.8980     0.6626     2.1041 C.ar    
  23 C23           -3.6875     1.3118     3.3112 C.ar    
  24 C24           -2.6952     2.2697     3.3964 C.ar    
  25 N25           -1.9502     2.5644     2.3488 N.ar    
  26 C26           -3.0953     0.9991     1.0251 C.ar    
  27 H27            2.9727     0.5466     0.0894 H       
  28 H28           -2.1814    -0.5748    -0.6846 H       
  29 H29           -1.6805    -2.9249    -1.1280 H       
  30 H30            0.6379    -3.7400    -1.0579 H       
  31 H31            2.4841    -2.2087    -0.5410 H       
  32 H32            3.0621     2.3453     2.0347 H       
  33 H33            3.9079     4.5885     2.5847 H       
  34 H34            3.0785     6.5550     1.3614 H       
  35 H35            1.4013     6.2909    -0.4187 H       
  36 H36            0.5504     4.0552    -0.9913 H       
  37 H37           -0.8770     3.3572     0.1523 H       
  38 H38           -1.3924     2.4319    -2.1260 H       
  39 H39           -2.4863     1.2536    -1.3623 H       
  40 H40           -4.6663    -0.0904     2.0079 H       
  41 H41           -4.2941     1.0747     4.1727 H       
  42 H42           -2.5249     2.7799     4.3330 H       
  43 H43           -3.2315     0.5140     0.0698 H       
@<TRIPOS>BOND
   1    1    2 1
   2    1    5 2
   3    1   16 1
   4    2    3 ar
   5    2    6 ar
   6    3    4 1
   7    3    9 ar
   8    4    5 1
   9    4   27 1
  10    5   10 1
  11    6    7 ar
  12    6   28 1
  13    7    8 ar
  14    7   29 1
  15    8    9 ar
  16    8   30 1
  17    9   31 1
  18   10   11 ar
  19   10   15 ar
  20   11   12 ar
  21   11   32 1
  22   12   13 ar
  23   12   33 1
  24   13   14 ar
  25   13   34 1
  26   14   15 ar
  27   14   35 1
  28   15   36 1
  29   16   17 1
  30   16   18 1
  31   16   37 1
  32   17   19 1
  33   17   38 1
  34   17   39 1
  35   18   26 ar
  36   18   25 ar
  37   19   20 2
  38   19   21 2
  39   22   23 ar
  40   22   26 ar
  41   22   40 1
  42   23   24 ar
  43   23   41 1
  44   24   25 ar
  45   24   42 1
  46   26   43 1

#	End of record

