#	Name: ASD01148563
#	Creating user name:	WinNT
#	Creation time:	15. 06. 2019 19:02

#	Modifying user name:	WinNT
#	Modification time:	15. 06. 2019 19:02

#	Program:	/corina/corina34_cracker 3.40 0067  02.08.2006

@<TRIPOS>MOLECULE
ASD01148563
  51   55    0    0    0
SMALL
NO_CHARGES


@<TRIPOS>ATOM
   1 C1            -0.0170     1.4365    -0.0252 C.ar    
   2 C2             0.0192     0.0537    -0.0359 C.ar    
   3 C3            -1.1605    -0.6687    -0.0203 C.ar    
   4 C4            -2.3757    -0.0077     0.0061 C.ar    
   5 C5            -2.4112     1.3740     0.0167 C.ar    
   6 C6            -1.2327     2.0962     0.0064 C.ar    
   7 C7            -3.7352     2.0932     0.0454 C.3     
   8 O8            -4.7244     1.3251     0.7601 O.3     
   9 C9            -3.6498     3.3763     0.9060 C.3     
  10 C10           -4.1226     2.8945     2.2643 C.2     
  11 N11           -4.7049     1.7514     2.1080 N.2     
  12 C12           -3.9478     3.6066     3.5417 C.ar    
  13 C13           -4.4546     3.0257     4.7826 C.ar    
  14 C14           -3.2954     4.8314     3.5751 C.ar    
  15 C15           -3.1173     5.5220     4.7606 C.ar    
  16 C16           -3.5833     5.0199     5.9680 C.ar    
  17 C17           -4.2726     3.7320     5.9952 C.ar    
  18 C18           -3.3789     5.7782     7.2150 C.2     
  19 O19           -3.8799     5.3889     8.2524 O.2     
  20 N20           -2.6368     6.9032     7.2057 N.am    
  21 C21           -4.7589     3.1868     7.1901 C.ar    
  22 C22           -5.1134     1.7897     4.7971 C.ar    
  23 C23           -4.2112     2.4148    -1.3727 C.3     
  24 F24           -4.3447     1.2273    -2.1002 F       
  25 F25           -5.4476     3.0666    -1.3129 F       
  26 F26           -3.2766     3.2444    -2.0015 F       
  27 Cl27          -1.1161    -2.4040    -0.0342 Cl      
  28 Cl28           1.4629     2.3438    -0.0442 Cl      
  29 C29           -2.4442     7.6174     8.3803 C.ar    
  30 N30           -1.7122     8.7207     8.3531 N.ar    
  31 N31           -3.0015     7.1821     9.5000 N.ar    
  32 C32           -2.8380     7.8388    10.6365 C.ar    
  33 C33           -2.0730     8.9947    10.6453 C.ar    
  34 C34           -1.5090     9.4247     9.4543 C.ar    
  35 C35           -5.5701     1.2840     5.9778 C.ar    
  36 C36           -5.3959     1.9816     7.1701 C.ar    
  37 H37            0.9680    -0.4618    -0.0568 H       
  38 H38           -3.2968    -0.5716     0.0179 H       
  39 H39           -1.2610     3.1758     0.0147 H       
  40 H40           -2.6231     3.7385     0.9598 H       
  41 H41           -4.3136     4.1482     0.5166 H       
  42 H42           -2.9184     5.2543     2.6556 H       
  43 H43           -2.6043     6.4723     4.7464 H       
  44 H44           -2.2372     7.2137     6.3782 H       
  45 H45           -4.6297     3.7177     8.1217 H       
  46 H46           -5.2590     1.2409     3.8784 H       
  47 H47           -3.2953     7.4790    11.5463 H       
  48 H48           -1.9232     9.5504    11.5591 H       
  49 H49           -0.9075    10.3213     9.4266 H       
  50 H50           -6.0779     0.3309     5.9879 H       
  51 H51           -5.7702     1.5618     8.0922 H       
@<TRIPOS>BOND
   1    1    2 ar
   2    1   28 1
   3    1    6 ar
   4    2    3 ar
   5    2   37 1
   6    3    4 ar
   7    3   27 1
   8    4    5 ar
   9    4   38 1
  10    5    6 ar
  11    5    7 1
  12    6   39 1
  13    7    8 1
  14    7    9 1
  15    7   23 1
  16    8   11 1
  17    9   10 1
  18    9   40 1
  19    9   41 1
  20   10   11 2
  21   10   12 1
  22   12   13 ar
  23   12   14 ar
  24   13   22 ar
  25   13   17 ar
  26   14   15 ar
  27   14   42 1
  28   15   16 ar
  29   15   43 1
  30   16   17 ar
  31   16   18 1
  32   17   21 ar
  33   18   19 2
  34   18   20 am
  35   20   29 1
  36   20   44 1
  37   21   36 ar
  38   21   45 1
  39   22   35 ar
  40   22   46 1
  41   23   24 1
  42   23   25 1
  43   23   26 1
  44   29   30 ar
  45   29   31 ar
  46   30   34 ar
  47   31   32 ar
  48   32   33 ar
  49   32   47 1
  50   33   34 ar
  51   33   48 1
  52   34   49 1
  53   35   36 ar
  54   35   50 1
  55   36   51 1

#	End of record

