#	Name: ASD08178124
#	Creating user name:	WinNT
#	Creation time:	15. 06. 2019 21:18

#	Modifying user name:	WinNT
#	Modification time:	15. 06. 2019 21:18

#	Program:	/corina/corina34_cracker 3.40 0067  02.08.2006

@<TRIPOS>MOLECULE
ASD08178124
  66   71    0    0    0
SMALL
NO_CHARGES


@<TRIPOS>ATOM
   1 C1            -0.0184     1.5028     0.0103 C.2     
   2 C2             0.0021    -0.0041     0.0020 C.3     
   3 C3             0.0221    -0.5218     1.4416 C.3     
   4 C4             0.0429    -2.0516     1.4332 C.3     
   5 C5             0.0630    -2.5693     2.8728 C.3     
   6 C6             0.0834    -4.0761     2.8645 C.2     
   7 N7             1.1396    -4.8258     2.8513 N.2     
   8 N8             0.9467    -6.0734     2.8463 N.2     
   9 C9            -0.2824    -6.4936     2.8547 C.2     
  10 S10           -1.3267    -5.1359     2.8788 S.3     
  11 N11           -0.6838    -7.8252     2.8506 N.am    
  12 N12            1.0171     2.2809     0.0046 N.2     
  13 C13            0.2391    -8.8073     2.8374 C.2     
  14 O14            1.4197    -8.5298     2.8290 O.2     
  15 C15           -0.1960   -10.2501     2.8329 C.3     
  16 C16            1.0193   -11.1412     2.8177 C.ar    
  17 N17            0.7904     3.5228     0.0134 N.2     
  18 C18           -0.4495     3.9094     0.0274 C.2     
  19 S19           -1.4568     2.5237     0.0218 S.3     
  20 C20            2.6196   -12.4452     1.6097 C.ar    
  21 C21            1.6565   -11.4772     4.0136 C.ar    
  22 C22            2.7904   -12.3098     3.9949 C.ar    
  23 C23            3.2637   -12.7893     2.7779 C.ar    
  24 C24            1.4980   -11.6276     1.6340 C.ar    
  25 N25           -0.8870     5.2295     0.0390 N.am    
  26 C26            0.0089     6.2364     0.0358 C.2     
  27 O27            1.1967     5.9912     0.0228 O.2     
  28 C28           -0.4651     7.6668     0.0485 C.3     
  29 C29            0.7256     8.5906     0.0419 C.ar    
  30 C30            1.2157     9.0858     1.2174 C.ar    
  31 C31            2.3116     9.9377     1.2213 C.ar    
  32 C32            2.9249    10.2990     0.0417 C.ar    
  33 C33            2.4429     9.8064    -1.1666 C.ar    
  34 C34            1.3352     8.9391    -1.1647 C.ar    
  35 C35            1.4185   -11.1492     5.4213 C.2     
  36 C36            2.3714   -11.7691     6.1352 C.2     
  37 N37            3.2002   -12.4674     5.2999 N.pl3   
  38 N38            2.8244     9.9752    -2.4788 N.pl3   
  39 C39            1.9998     9.2547    -3.2993 C.2     
  40 C40            1.0797     8.6059    -2.5682 C.2     
  41 H41           -0.8875    -0.3767    -0.5057 H       
  42 H42            0.8922    -0.3525    -0.5218 H       
  43 H43            0.9118    -0.1491     1.9494 H       
  44 H44           -0.8680    -0.1733     1.9655 H       
  45 H45           -0.8467    -2.4242     0.9255 H       
  46 H46            0.9330    -2.4000     0.9094 H       
  47 H47            0.9526    -2.1967     3.3806 H       
  48 H48           -0.8271    -2.2209     3.3967 H       
  49 H49           -1.6281    -8.0470     2.8573 H       
  50 H50           -0.7854   -10.4546     3.7267 H       
  51 H51           -0.8003   -10.4446     1.9469 H       
  52 H52            2.9863   -12.8217     0.6662 H       
  53 H53            4.1329   -13.4296     2.7489 H       
  54 H54            1.0047   -11.3673     0.7092 H       
  55 H55           -1.8369     5.4256     0.0495 H       
  56 H56           -1.0758     7.8550    -0.8345 H       
  57 H57           -1.0583     7.8451     0.9454 H       
  58 H58            0.7465     8.8124     2.1509 H       
  59 H59            2.6871    10.3215     2.1584 H       
  60 H60            3.7768    10.9627     0.0551 H       
  61 H61            0.6267   -10.5266     5.8109 H       
  62 H62            2.4694   -11.7234     7.2098 H       
  63 H63            3.9630   -12.9946     5.5846 H       
  64 H64            3.5671    10.5232    -2.7772 H       
  65 H65            2.0794     9.2118    -4.3755 H       
  66 H66            0.2992     7.9607    -2.9435 H       
@<TRIPOS>BOND
   1    1    2 1
   2    1   12 2
   3    1   19 1
   4    2    3 1
   5    2   41 1
   6    2   42 1
   7    3    4 1
   8    3   43 1
   9    3   44 1
  10    4    5 1
  11    4   45 1
  12    4   46 1
  13    5    6 1
  14    5   47 1
  15    5   48 1
  16    6    7 2
  17    6   10 1
  18    7    8 1
  19    8    9 2
  20    9   10 1
  21    9   11 1
  22   11   13 am
  23   11   49 1
  24   12   17 1
  25   13   14 2
  26   13   15 1
  27   15   16 1
  28   15   50 1
  29   15   51 1
  30   16   21 ar
  31   16   24 ar
  32   17   18 2
  33   18   19 1
  34   18   25 1
  35   20   24 ar
  36   20   23 ar
  37   20   52 1
  38   21   22 ar
  39   21   35 1
  40   22   23 ar
  41   22   37 1
  42   23   53 1
  43   24   54 1
  44   25   26 am
  45   25   55 1
  46   26   27 2
  47   26   28 1
  48   28   29 1
  49   28   56 1
  50   28   57 1
  51   29   30 ar
  52   29   34 ar
  53   30   31 ar
  54   30   58 1
  55   31   32 ar
  56   31   59 1
  57   32   33 ar
  58   32   60 1
  59   33   34 ar
  60   33   38 1
  61   34   40 1
  62   35   36 2
  63   35   61 1
  64   36   37 1
  65   36   62 1
  66   37   63 1
  67   38   39 1
  68   38   64 1
  69   39   40 2
  70   39   65 1
  71   40   66 1

#	End of record

