#	Name: ASD06140023
#	Creating user name:	WinNT
#	Creation time:	15. 06. 2019 21:05

#	Modifying user name:	WinNT
#	Modification time:	15. 06. 2019 21:05

#	Program:	/corina/corina34_cracker 3.40 0067  02.08.2006

@<TRIPOS>MOLECULE
ASD06140023
  18   19    0    0    0
SMALL
NO_CHARGES


@<TRIPOS>ATOM
   1 C1            -0.0167     1.3825     0.0096 C.ar    
   2 C2             0.0021    -0.0041     0.0020 C.ar    
   3 C3             1.1928    -0.6865    -0.0130 C.ar    
   4 C4             2.4175     0.0136    -0.0205 C.ar    
   5 C5             2.3842     1.4114    -0.0127 C.ar    
   6 C6             1.1672     2.0871     0.0021 C.ar    
   7 N7             3.6713    -0.4808    -0.0346 N.2     
   8 C8             4.6504     0.3588    -0.0391 C.2     
   9 S9             4.0420     2.0081    -0.0247 S.3     
  10 S10            6.3557    -0.0843    -0.0576 S.3     
  11 C11           -1.2966    -0.7685     0.0108 C.3     
  12 F12           -2.3675     0.1316     0.0263 F       
  13 F13           -1.3753    -1.5673    -1.1350 F       
  14 F14           -1.3526    -1.5795     1.1494 F       
  15 H15           -0.9592     1.9099     0.0170 H       
  16 H16            1.1921    -1.7664    -0.0188 H       
  17 H17            1.1510     3.1669     0.0081 H       
  18 H18            6.5796    -0.1381    -1.4487 H       
@<TRIPOS>BOND
   1    1    2 ar
   2    1    6 ar
   3    1   15 1
   4    2    3 ar
   5    2   11 1
   6    3    4 ar
   7    3   16 1
   8    4    5 ar
   9    4    7 1
  10    5    6 ar
  11    5    9 1
  12    6   17 1
  13    7    8 2
  14    8    9 1
  15    8   10 1
  16   10   18 1
  17   11   12 1
  18   11   13 1
  19   11   14 1

#	End of record

