#	Name: ASD01915540
#	Creating user name:	WinNT
#	Creation time:	15. 06. 2019 20:05

#	Modifying user name:	WinNT
#	Modification time:	15. 06. 2019 20:05

#	Program:	/corina/corina34_cracker 3.40 0067  02.08.2006

@<TRIPOS>MOLECULE
ASD01915540
  39   40    0    0    0
SMALL
NO_CHARGES


@<TRIPOS>ATOM
   1 C1            -0.0167     1.3821     0.0096 C.ar    
   2 C2             0.0021    -0.0041     0.0020 C.ar    
   3 C3             1.2056    -0.6858    -0.0131 C.ar    
   4 C4             2.3968     0.0096    -0.0207 C.ar    
   5 C5             2.3872     1.4072    -0.0131 C.ar    
   6 C6             1.1685     2.0912     0.0021 C.ar    
   7 C7             3.6205     2.1350    -0.0205 C.1     
   8 C8             4.6315     2.7317    -0.0265 C.1     
   9 C9             5.8647     3.4595    -0.0339 C.ar    
  10 C10            7.0783     2.7630    -0.0545 C.ar    
  11 N11            5.8428     4.7906    -0.0266 N.ar    
  12 C12            6.9512     5.4977    -0.0329 C.ar    
  13 C13            8.1976     4.8664    -0.0477 C.ar    
  14 C14            8.2537     3.4646    -0.0615 C.ar    
  15 C15            9.4395     5.6642    -0.0547 C.2     
  16 O16           10.5200     5.1070    -0.0676 O.2     
  17 N17            9.3756     7.0105    -0.0469 N.am    
  18 C18           10.6081     7.8023    -0.0539 C.3     
  19 F19           -1.1964     2.0404     0.0188 F       
  20 C20           11.4156     7.4779    -1.3123 C.3     
  21 C21           10.2576     9.2916    -0.0427 C.3     
  22 C22           11.4384     7.4644     1.1860 C.3     
  23 H23           -0.9273    -0.5542     0.0083 H       
  24 H24            1.2126    -1.7658    -0.0186 H       
  25 H25            3.3352    -0.5249    -0.0322 H       
  26 H26            1.1535     3.1711     0.0077 H       
  27 H27            7.0874     1.6831    -0.0645 H       
  28 H28            6.8978     6.5764    -0.0270 H       
  29 H29            9.2033     2.9504    -0.0775 H       
  30 H30            8.5136     7.4551    -0.0366 H       
  31 H31           10.8241     7.7186    -2.1957 H       
  32 H32           12.3326     8.0671    -1.3175 H       
  33 H33           11.6653     6.4169    -1.3203 H       
  34 H34            9.6824     9.5227     0.8539 H       
  35 H35           11.1747     9.8807    -0.0479 H       
  36 H36            9.6661     9.5323    -0.9260 H       
  37 H37           11.6882     6.4035     1.1780 H       
  38 H38           12.3555     8.0536     1.1808 H       
  39 H39           10.8632     7.6956     2.0825 H       
@<TRIPOS>BOND
   1    1    2 ar
   2    1    6 ar
   3    1   19 1
   4    2    3 ar
   5    2   23 1
   6    3    4 ar
   7    3   24 1
   8    4    5 ar
   9    4   25 1
  10    5    6 ar
  11    5    7 1
  12    6   26 1
  13    7    8 3
  14    8    9 1
  15    9   11 ar
  16    9   10 ar
  17   10   14 ar
  18   10   27 1
  19   11   12 ar
  20   12   13 ar
  21   12   28 1
  22   13   14 ar
  23   13   15 1
  24   14   29 1
  25   15   16 2
  26   15   17 am
  27   17   18 1
  28   17   30 1
  29   18   20 1
  30   18   21 1
  31   18   22 1
  32   20   31 1
  33   20   32 1
  34   20   33 1
  35   21   34 1
  36   21   35 1
  37   21   36 1
  38   22   37 1
  39   22   38 1
  40   22   39 1

#	End of record

