#	Name: ASD01180113
#	Creating user name:	WinNT
#	Creation time:	15. 06. 2019 19:06

#	Modifying user name:	WinNT
#	Modification time:	15. 06. 2019 19:06

#	Program:	/corina/corina34_cracker 3.40 0067  02.08.2006

@<TRIPOS>MOLECULE
ASD01180113
  31   31    0    0    0
SMALL
NO_CHARGES


@<TRIPOS>ATOM
   1 C1             0.2325     1.4635     0.0166 C.2     
   2 C2             0.1529    -0.0116     0.0027 C.ar    
   3 C3             1.3104    -0.7748    -0.1620 C.ar    
   4 C4             1.2290    -2.1518    -0.1735 C.ar    
   5 C5             0.0038    -2.7768    -0.0228 C.ar    
   6 C6            -1.1473    -2.0265     0.1404 C.ar    
   7 C7            -1.0794    -0.6489     0.1601 C.ar    
   8 O8             1.3067     2.0150    -0.1155 O.2     
   9 O9            -0.8869     2.1970     0.1701 O.3     
  10 C10           -0.0774    -4.2816    -0.0369 C.3     
  11 C11           -0.1678    -4.8009     1.3995 C.3     
  12 C12           -0.1491    -6.3308     1.3907 C.3     
  13 C13            1.2075    -6.8214     0.8809 C.3     
  14 C14           -0.3791    -6.8517     2.8108 C.3     
  15 O15           -1.2377    -4.6892    -0.7646 O.3     
  16 H16            2.2673    -0.2882    -0.2805 H       
  17 H17            2.1235    -2.7434    -0.3008 H       
  18 H18           -2.1006    -2.5207     0.2569 H       
  19 H19           -1.9780    -0.0645     0.2923 H       
  20 H20           -0.7848     3.1586     0.1728 H       
  21 H21            0.8132    -4.6890    -0.5152 H       
  22 H22            0.6813    -4.4305     1.9738 H       
  23 H23           -1.0945    -4.4514     1.8545 H       
  24 H24           -0.9385    -6.7000     0.7360 H       
  25 H25            1.9968    -6.4521     1.5357 H       
  26 H26            1.2207    -7.9113     0.8747 H       
  27 H27            1.3713    -6.4502    -0.1308 H       
  28 H28           -0.4529    -7.9391     2.7914 H       
  29 H29            0.4556    -6.5555     3.4461 H       
  30 H30           -1.3038    -6.4318     3.2066 H       
  31 H31           -2.0691    -4.3620    -0.3947 H       
@<TRIPOS>BOND
   1    1    2 1
   2    1    8 2
   3    1    9 1
   4    2    3 ar
   5    2    7 ar
   6    3    4 ar
   7    3   16 1
   8    4    5 ar
   9    4   17 1
  10    5    6 ar
  11    5   10 1
  12    6    7 ar
  13    6   18 1
  14    7   19 1
  15    9   20 1
  16   10   11 1
  17   10   15 1
  18   10   21 1
  19   11   12 1
  20   11   22 1
  21   11   23 1
  22   12   13 1
  23   12   14 1
  24   12   24 1
  25   13   25 1
  26   13   26 1
  27   13   27 1
  28   14   28 1
  29   14   29 1
  30   14   30 1
  31   15   31 1

#	End of record

