#	Name: ASD01910347
#	Creating user name:	WinNT
#	Creation time:	15. 06. 2019 19:55

#	Modifying user name:	WinNT
#	Modification time:	15. 06. 2019 19:55

#	Program:	/corina/corina34_cracker 3.40 0067  02.08.2006

@<TRIPOS>MOLECULE
ASD01910347
  36   38    0    0    0
SMALL
NO_CHARGES


@<TRIPOS>ATOM
   1 C1            -0.0460     1.4243    -0.2644 C.ar    
   2 C2            -0.0217    -0.0070    -0.2248 C.1     
   3 C3            -0.0017    -1.1803    -0.1924 C.1     
   4 C4             0.0226    -2.6116    -0.1528 C.ar    
   5 C5            -1.1377    -3.3227     0.1731 C.ar    
   6 C6            -1.1137    -4.6877     0.2107 C.ar    
   7 C7             0.0697    -5.3745    -0.0763 C.ar    
   8 C8             1.2293    -4.6647    -0.4020 C.ar    
   9 C9             1.2053    -3.2999    -0.4456 C.ar    
  10 C10            0.0949    -6.8500    -0.0350 C.2     
  11 O11           -0.9404    -7.4721     0.1040 O.2     
  12 N12            1.2657    -7.5075    -0.1514 N.am    
  13 C13            1.1111     2.1373    -0.5895 C.ar    
  14 C14            1.0814     3.5159    -0.6260 C.ar    
  15 C15           -0.0900     4.1943    -0.3413 C.ar    
  16 C16           -1.2423     3.4950    -0.0174 C.ar    
  17 C17           -1.2285     2.1142     0.0163 C.ar    
  18 F18           -2.3821     4.1650     0.2603 F       
  19 C19            1.7002    -8.9119    -0.1097 C.3     
  20 C20            3.0722    -8.4167     0.3685 C.3     
  21 C21            2.6699    -7.1367    -0.3826 C.3     
  22 O22            3.1779    -8.2613     1.7850 O.3     
  23 H23           -2.0518    -2.7922     0.3952 H       
  24 H24           -2.0091    -5.2366     0.4626 H       
  25 H25            2.1432    -5.1960    -0.6233 H       
  26 H26            2.1010    -2.7517    -0.6976 H       
  27 H27            2.0270     1.6099    -0.8115 H       
  28 H28            1.9755     4.0673    -0.8772 H       
  29 H29           -0.1068     5.2737    -0.3711 H       
  30 H30           -2.1265     1.5697     0.2684 H       
  31 H31            1.1708    -9.5082     0.6335 H       
  32 H32            1.7278    -9.3871    -1.0902 H       
  33 H33            3.9169    -8.9450    -0.0736 H       
  34 H34            2.9565    -7.1423    -1.4342 H       
  35 H35            2.9653    -6.2215     0.1305 H       
  36 H36            4.0434    -7.9492     2.0829 H       
@<TRIPOS>BOND
   1    1    2 1
   2    1   13 ar
   3    1   17 ar
   4    2    3 3
   5    3    4 1
   6    4    5 ar
   7    4    9 ar
   8    5    6 ar
   9    5   23 1
  10    6    7 ar
  11    6   24 1
  12    7    8 ar
  13    7   10 1
  14    8    9 ar
  15    8   25 1
  16    9   26 1
  17   10   11 2
  18   10   12 am
  19   12   19 1
  20   12   21 1
  21   13   14 ar
  22   13   27 1
  23   14   15 ar
  24   14   28 1
  25   15   16 ar
  26   15   29 1
  27   16   17 ar
  28   16   18 1
  29   17   30 1
  30   19   20 1
  31   19   31 1
  32   19   32 1
  33   20   21 1
  34   20   22 1
  35   20   33 1
  36   21   34 1
  37   21   35 1
  38   22   36 1

#	End of record

