#	Name: ASD02770040
#	Creating user name:	WinNT
#	Creation time:	15. 06. 2019 20:26

#	Modifying user name:	WinNT
#	Modification time:	15. 06. 2019 20:26

#	Program:	/corina/corina34_cracker 3.40 0067  02.08.2006

@<TRIPOS>MOLECULE
ASD02770040
  27   27    0    0    0
SMALL
NO_CHARGES


@<TRIPOS>ATOM
   1 C1            -0.0184     1.4889     0.0150 C.2     
   2 C2             0.0014    -0.0045     0.0119 C.2     
   3 O3             1.0246     2.1097     0.0086 O.2     
   4 N4            -1.1944     2.1473     0.0194 N.am    
   5 O5            -1.0414    -0.6252     0.0183 O.2     
   6 N6             1.1774    -0.6628     0.0019 N.am    
   7 C7             1.1968    -2.1277    -0.0012 C.3     
   8 C8             2.6459    -2.6185    -0.0128 C.3     
   9 O9             3.2887    -2.2345     1.2043 O.3     
  10 C10           -1.2151     3.5397     0.1325 C.ar    
  11 C11           -2.1833     4.2779    -0.5362 C.ar    
  12 C12           -2.2010     5.6560    -0.4215 C.ar    
  13 C13           -1.2542     6.2988     0.3594 C.ar    
  14 C14           -0.2902     5.5652     1.0253 C.ar    
  15 C15           -0.2709     4.1882     0.9186 C.ar    
  16 F16           -3.1416     6.3757    -1.0715 F       
  17 H17           -2.0264     1.6544    -0.0560 H       
  18 H18            2.0109    -0.1667    -0.0032 H       
  19 H19            0.6944    -2.4996     0.8917 H       
  20 H20            0.6814    -2.4960    -0.8882 H       
  21 H21            2.6610    -3.7045    -0.1047 H       
  22 H22            3.1730    -2.1751    -0.8577 H       
  23 H23            4.2126    -2.5133     1.2661 H       
  24 H24           -2.9210     3.7764    -1.1451 H       
  25 H25           -1.2690     7.3751     0.4477 H       
  26 H26            0.4466     6.0693     1.6333 H       
  27 H27            0.4803     3.6162     1.4429 H       
@<TRIPOS>BOND
   1    1    2 1
   2    1    3 2
   3    1    4 am
   4    2    5 2
   5    2    6 am
   6    4   10 1
   7    4   17 1
   8    6    7 1
   9    6   18 1
  10    7    8 1
  11    7   19 1
  12    7   20 1
  13    8    9 1
  14    8   21 1
  15    8   22 1
  16    9   23 1
  17   10   11 ar
  18   10   15 ar
  19   11   12 ar
  20   11   24 1
  21   12   13 ar
  22   12   16 1
  23   13   14 ar
  24   13   25 1
  25   14   15 ar
  26   14   26 1
  27   15   27 1

#	End of record

