#	Name: ASD00311475
#	Creating user name:	WinNT
#	Creation time:	15. 06. 2019 18:34

#	Modifying user name:	WinNT
#	Modification time:	15. 06. 2019 18:34

#	Program:	/corina/corina34_cracker 3.40 0067  02.08.2006

@<TRIPOS>MOLECULE
ASD00311475
  44   48    0    0    0
SMALL
NO_CHARGES


@<TRIPOS>ATOM
   1 C1            -0.0167     1.3779     0.0096 C.2     
   2 C2             0.0021    -0.0041     0.0020 C.2     
   3 C3             1.2581    -0.6768    -0.0131 C.2     
   4 C4             2.4321     0.0677    -0.0199 C.2     
   5 C5             2.3575     1.4764    -0.0117 C.2     
   6 N6             1.1645     2.0908     0.0022 N.am    
   7 C7            -1.3435    -0.5752     0.0118 C.2     
   8 C8            -2.3230     0.3264     0.0260 C.2     
   9 S9            -1.6793     1.9565     0.0358 S.3     
  10 O10            3.3818     2.1389    -0.0175 O.2     
  11 C11           -1.5960    -2.0343     0.0064 C.ar    
  12 C12           -2.4716    -2.5947     0.9376 C.ar    
  13 C13           -2.7065    -3.9514     0.9320 C.ar    
  14 C14           -2.0690    -4.7660    -0.0041 C.ar    
  15 C15           -1.1937    -4.2062    -0.9351 C.ar    
  16 C16           -0.9628    -2.8488    -0.9337 C.ar    
  17 C17           -1.9558    -8.4149    -0.9081 C.ar    
  18 C18           -1.6928    -7.0611    -0.9389 C.ar    
  19 C19           -2.3214    -6.2268    -0.0093 C.ar    
  20 C20           -3.1943    -6.8082     0.9157 C.ar    
  21 C21           -3.4001    -8.1716     0.8759 C.ar    
  22 N22           -2.7867    -8.9234    -0.0182 N.ar    
  23 C23            5.8247    -1.1326    -1.1029 C.ar    
  24 C24            4.6090    -0.4838    -1.1308 C.ar    
  25 C25            3.7467    -0.6105    -0.0352 C.ar    
  26 C26            4.1632    -1.3966     1.0459 C.ar    
  27 C27            5.3961    -2.0103     0.9900 C.ar    
  28 N28            6.1788    -1.8645    -0.0630 N.ar    
  29 O29            1.3078    -2.0288    -0.0204 O.3     
  30 H30            1.1319     3.0602     0.0077 H       
  31 H31           -3.3756     0.0851     0.0347 H       
  32 H32           -2.9646    -1.9642     1.6628 H       
  33 H33           -3.3841    -4.3851     1.6525 H       
  34 H34           -0.7004    -4.8371    -1.6596 H       
  35 H35           -0.2886    -2.4149    -1.6573 H       
  36 H36           -1.4786    -9.0668    -1.6248 H       
  37 H37           -1.0113    -6.6517    -1.6698 H       
  38 H38           -3.6995    -6.1989     1.6505 H       
  39 H39           -4.0722    -8.6299     1.5864 H       
  40 H40            6.4948    -1.0447    -1.9453 H       
  41 H41            4.3259     0.1136    -1.9849 H       
  42 H42            3.5282    -1.5199     1.9107 H       
  43 H43            5.7265    -2.6184     1.8192 H       
  44 H44            2.2050    -2.3894    -0.0306 H       
@<TRIPOS>BOND
   1    1    2 2
   2    1    6 1
   3    1    9 1
   4    2    3 1
   5    2    7 1
   6    3    4 2
   7    3   29 1
   8    4    5 1
   9    4   25 1
  10    5    6 am
  11    5   10 2
  12    6   30 1
  13    7    8 2
  14    7   11 1
  15    8    9 1
  16    8   31 1
  17   11   12 ar
  18   11   16 ar
  19   12   13 ar
  20   12   32 1
  21   13   14 ar
  22   13   33 1
  23   14   15 ar
  24   14   19 1
  25   15   16 ar
  26   15   34 1
  27   16   35 1
  28   17   18 ar
  29   17   22 ar
  30   17   36 1
  31   18   19 ar
  32   18   37 1
  33   19   20 ar
  34   20   21 ar
  35   20   38 1
  36   21   22 ar
  37   21   39 1
  38   23   24 ar
  39   23   28 ar
  40   23   40 1
  41   24   25 ar
  42   24   41 1
  43   25   26 ar
  44   26   27 ar
  45   26   42 1
  46   27   28 ar
  47   27   43 1
  48   29   44 1

#	End of record

