#	Name: ASD01916400
#	Creating user name:	WinNT
#	Creation time:	15. 06. 2019 20:07

#	Modifying user name:	WinNT
#	Modification time:	15. 06. 2019 20:07

#	Program:	/corina/corina34_cracker 3.40 0067  02.08.2006

@<TRIPOS>MOLECULE
ASD01916400
  36   38    0    0    0
SMALL
NO_CHARGES


@<TRIPOS>ATOM
   1 N1            -0.0157     1.3091     0.0092 N.ar    
   2 C2             0.0021    -0.0041     0.0020 C.ar    
   3 C3             1.2125    -0.7011    -0.0128 C.ar    
   4 N4             2.3572    -0.0574    -0.0198 N.ar    
   5 C5             2.3656     1.2802    -0.0131 C.ar    
   6 C6             3.5735     1.9988    -0.0198 C.ar    
   7 C7             3.5490     3.3595    -0.0123 C.ar    
   8 C8             2.3413     4.0549     0.0019 C.ar    
   9 C9             1.1521     3.3931     0.0092 C.ar    
  10 C10            1.1369     1.9877     0.0019 C.ar    
  11 C11           -1.2974    -0.7672     0.0103 C.3     
  12 C12           -2.1448    -0.3183     1.2025 C.3     
  13 C13           -3.4141    -1.0637     1.2107 C.1     
  14 C14           -4.4264    -1.6582     1.2171 C.1     
  15 C15           -5.6613    -2.3833     1.2251 C.ar    
  16 C16           -6.6006    -2.1400     2.2278 C.ar    
  17 C17           -7.7888    -2.8487     2.2216 C.ar    
  18 C18           -8.0008    -3.7786     1.2130 C.ar    
  19 C19           -7.0270    -3.9697     0.2502 C.ar    
  20 N20           -5.9059    -3.2783     0.2749 N.ar    
  21 C21           -7.2537    -4.9788    -0.8458 C.3     
  22 F22           -7.8784    -4.3557    -1.9315 F       
  23 H23            1.2069    -1.7811    -0.0183 H       
  24 H24            4.5170     1.4734    -0.0304 H       
  25 H25            4.4790     3.9084    -0.0171 H       
  26 H26            2.3493     5.1349     0.0076 H       
  27 H27            0.2241     3.9455     0.0209 H       
  28 H28           -1.8395    -0.5716    -0.9149 H       
  29 H29           -1.0915    -1.8344     0.0922 H       
  30 H30           -1.6027    -0.5138     2.1277 H       
  31 H31           -2.3507     0.7489     1.1207 H       
  32 H32           -6.4028    -1.4091     2.9980 H       
  33 H33           -8.5347    -2.6824     2.9848 H       
  34 H34           -8.9179    -4.3480     1.1809 H       
  35 H35           -6.2960    -5.3901    -1.1648 H       
  36 H36           -7.8886    -5.7829    -0.4738 H       
@<TRIPOS>BOND
   1    1    2 ar
   2    1   10 ar
   3    2    3 ar
   4    2   11 1
   5    3    4 ar
   6    3   23 1
   7    4    5 ar
   8    5    6 ar
   9    5   10 ar
  10    6    7 ar
  11    6   24 1
  12    7    8 ar
  13    7   25 1
  14    8    9 ar
  15    8   26 1
  16    9   10 ar
  17    9   27 1
  18   11   12 1
  19   11   28 1
  20   11   29 1
  21   12   13 1
  22   12   30 1
  23   12   31 1
  24   13   14 3
  25   14   15 1
  26   15   16 ar
  27   15   20 ar
  28   16   17 ar
  29   16   32 1
  30   17   18 ar
  31   17   33 1
  32   18   19 ar
  33   18   34 1
  34   19   20 ar
  35   19   21 1
  36   21   22 1
  37   21   35 1
  38   21   36 1

#	End of record

