#	Name: ASD00844526
#	Creating user name:	WinNT
#	Creation time:	15. 06. 2019 18:50

#	Modifying user name:	WinNT
#	Modification time:	15. 06. 2019 18:50

#	Program:	/corina/corina34_cracker 3.40 0067  02.08.2006

@<TRIPOS>MOLECULE
ASD00844526
  93   98    0    0    0
SMALL
NO_CHARGES


@<TRIPOS>ATOM
   1 F1            -0.0947    -3.1577     4.7128 F       
   2 C2            -0.0051     1.3862     0.0369 C.ar    
   3 C3             0.0093    -0.0007     0.0190 C.ar    
   4 C4             1.2194    -0.6794    -0.0011 C.ar    
   5 C5             2.4062     0.0272    -0.0032 C.ar    
   6 C6             2.3891     1.4098     0.0152 C.ar    
   7 C7             1.1848     2.0884     0.0348 C.ar    
   8 C8             1.2387    -2.1861    -0.0202 C.3     
   9 C9             0.4941    -2.7108    -1.2293 C.2     
  10 N10            2.6177    -2.6805    -0.0123 N.am    
  11 C11            3.4634    -2.3342    -1.0029 C.2     
  12 N12            4.7590    -2.7005    -0.9417 N.am    
  13 O13            3.0576    -1.6914    -1.9518 O.2     
  14 C14            5.2905    -3.3763     0.2497 C.3     
  15 C15            6.5169    -2.6053     0.7481 C.3     
  16 C16            7.5240    -2.4627    -0.3953 C.3     
  17 C17            6.8889    -1.6715    -1.5411 C.3     
  18 C18            5.6654    -2.4369    -2.0677 C.3     
  19 N19            8.7158    -1.7527     0.0880 N.3     
  20 C20            9.7549    -1.7008    -0.9498 C.3     
  21 C21           10.9449    -0.8868    -0.4363 C.3     
  22 N22           11.4628    -1.5034     0.7931 N.3     
  23 C23           10.4237    -1.5553     1.8309 C.3     
  24 C24            9.2337    -2.3693     1.3174 C.3     
  25 C25           12.6546    -0.7934     1.2764 C.3     
  26 O26            0.7737    -2.5069    -2.3918 O.2     
  27 N27           -0.5343    -3.4452    -0.7729 N.am    
  28 C28            0.4677    -2.7405     1.1558 C.ar    
  29 C29           -0.5784    -3.4829     0.6224 C.ar    
  30 C30            0.6323    -2.6295     2.5183 C.ar    
  31 C31           -0.2527    -3.2636     3.3753 C.ar    
  32 C32           -1.3009    -4.0076     2.8551 C.ar    
  33 C33           -1.4656    -4.1186     1.4878 C.ar    
  34 F34           -2.1650    -4.6266     3.6890 F       
  35 C35           -0.9922    -5.8306    -2.0669 C.ar    
  36 C36            0.1858    -5.9874    -2.7824 C.ar    
  37 C37           -1.6662    -6.9411    -1.5963 C.ar    
  38 C38           -1.1673    -8.2076    -1.8376 C.ar    
  39 C39            0.0068    -8.3666    -2.5506 C.ar    
  40 C40            0.6841    -7.2597    -3.0236 C.ar    
  41 H41            0.3945    -9.3571    -2.7378 H       
  42 O42            0.8504    -4.8967    -3.2468 O.3     
  43 C43            2.0565    -5.1336    -3.9755 C.3     
  44 C44           13.0167    -1.2979     2.6747 C.3     
  45 C45           14.2579    -0.5584     3.1781 C.3     
  46 O46           -1.1597    -0.6936     0.0215 O.3     
  47 C47           -2.3669     0.0708     0.0431 C.3     
  48 C48           -3.5696    -0.8751     0.0427 C.3     
  49 F49           -3.5396    -1.6670    -1.1102 F       
  50 F50           -3.5173    -1.6963     1.1741 F       
  51 S51           -1.6245    -4.2164    -1.7522 S.o2    
  52 O52           -2.8043    -4.3911    -0.9797 O.2     
  53 O53           -1.6042    -3.5281    -2.9952 O.2     
  54 H54           -0.9457     1.9168     0.0481 H       
  55 H55            3.3483    -0.5006    -0.0188 H       
  56 H56            3.3182     1.9605     0.0143 H       
  57 H57            1.1741     3.1682     0.0491 H       
  58 H58            2.9222    -3.2571     0.7059 H       
  59 H59            4.5289    -3.3950     1.0294 H       
  60 H60            5.5790    -4.3957    -0.0066 H       
  61 H61            6.2110    -1.6162     1.0890 H       
  62 H62            6.9776    -3.1486     1.5731 H       
  63 H63            7.8107    -3.4519    -0.7522 H       
  64 H64            6.5796    -0.6912    -1.1787 H       
  65 H65            7.6145    -1.5502    -2.3454 H       
  66 H66            5.9872    -3.3785    -2.5128 H       
  67 H67            5.1512    -1.8336    -2.8157 H       
  68 H68           10.0822    -2.7130    -1.1877 H       
  69 H69            9.3510    -1.2290    -1.8456 H       
  70 H70           11.7288    -0.8714    -1.1934 H       
  71 H71           10.6236     0.1329    -0.2242 H       
  72 H72           10.8276    -2.0271     2.7267 H       
  73 H73           10.0964    -0.5431     2.0688 H       
  74 H74            8.4498    -2.3848     2.0745 H       
  75 H75            9.5551    -3.3890     1.1053 H       
  76 H76           13.4871    -0.9767     0.5972 H       
  77 H77           12.4484     0.2761     1.3181 H       
  78 H78            1.4505    -2.0492     2.9185 H       
  79 H79           -2.2843    -4.6993     1.0891 H       
  80 H80           -2.5834    -6.8196    -1.0391 H       
  81 H81           -1.6953    -9.0744    -1.4682 H       
  82 H82            1.6007    -7.3844    -3.5811 H       
  83 H83            2.4853    -4.1814    -4.2879 H       
  84 H84            2.7676    -5.6611    -3.3397 H       
  85 H85            1.8368    -5.7390    -4.8549 H       
  86 H86           12.1841    -1.1146     3.3540 H       
  87 H87           13.2228    -2.3674     2.6330 H       
  88 H88           14.5159    -0.9178     4.1743 H       
  89 H89           15.0904    -0.7418     2.4989 H       
  90 H90           14.0517     0.5111     3.2198 H       
  91 H91           -2.3902     0.6878     0.9414 H       
  92 H92           -2.4076     0.7106    -0.8383 H       
  93 H93           -4.4904    -0.2920     0.0592 H       
@<TRIPOS>BOND
   1    1   31 1
   2    2    3 ar
   3    2    7 ar
   4    2   54 1
   5    3    4 ar
   6    3   46 1
   7    4    5 ar
   8    4    8 1
   9    5    6 ar
  10    5   55 1
  11    6    7 ar
  12    6   56 1
  13    7   57 1
  14    8    9 1
  15    8   10 1
  16    8   28 1
  17    9   26 2
  18    9   27 am
  19   10   11 am
  20   10   58 1
  21   11   12 am
  22   11   13 2
  23   12   14 1
  24   12   18 1
  25   14   15 1
  26   14   59 1
  27   14   60 1
  28   15   16 1
  29   15   61 1
  30   15   62 1
  31   16   17 1
  32   16   19 1
  33   16   63 1
  34   17   18 1
  35   17   64 1
  36   17   65 1
  37   18   66 1
  38   18   67 1
  39   19   20 1
  40   19   24 1
  41   20   21 1
  42   20   68 1
  43   20   69 1
  44   21   22 1
  45   21   70 1
  46   21   71 1
  47   22   23 1
  48   22   25 1
  49   23   24 1
  50   23   72 1
  51   23   73 1
  52   24   74 1
  53   24   75 1
  54   25   44 1
  55   25   76 1
  56   25   77 1
  57   27   51 am
  58   27   29 1
  59   28   29 ar
  60   28   30 ar
  61   29   33 ar
  62   30   31 ar
  63   30   78 1
  64   31   32 ar
  65   32   33 ar
  66   32   34 1
  67   33   79 1
  68   35   36 ar
  69   35   37 ar
  70   35   51 1
  71   36   42 1
  72   36   40 ar
  73   37   38 ar
  74   37   80 1
  75   38   39 ar
  76   38   81 1
  77   39   40 ar
  78   39   41 1
  79   40   82 1
  80   42   43 1
  81   43   83 1
  82   43   84 1
  83   43   85 1
  84   44   45 1
  85   44   86 1
  86   44   87 1
  87   45   88 1
  88   45   89 1
  89   45   90 1
  90   46   47 1
  91   47   48 1
  92   47   91 1
  93   47   92 1
  94   48   49 1
  95   48   50 1
  96   48   93 1
  97   51   52 2
  98   51   53 2

#	End of record

