#	Name: ASD01884931
#	Creating user name:	WinNT
#	Creation time:	15. 06. 2019 19:49

#	Modifying user name:	WinNT
#	Modification time:	15. 06. 2019 19:49

#	Program:	/corina/corina34_cracker 3.40 0067  02.08.2006

@<TRIPOS>MOLECULE
ASD01884931
  41   44    0    0    0
SMALL
NO_CHARGES


@<TRIPOS>ATOM
   1 C1            -0.1534     1.5898    -0.7029 C.ar    
   2 C2            -0.3270     0.2264    -0.8096 C.ar    
   3 C3             0.6428    -0.6403    -0.3051 C.ar    
   4 C4             1.7855    -0.1237     0.3059 C.ar    
   5 C5             1.9530     1.2408     0.4093 C.ar    
   6 C6             0.9855     2.1008    -0.0940 C.ar    
   7 C7             0.4593    -2.1059    -0.4175 C.2     
   8 C8             1.3206    -2.8603    -1.1938 C.2     
   9 C9            -0.5963    -2.7497     0.2733 C.2     
  10 C10           -0.7611    -4.0815     0.1702 C.2     
  11 N11            0.0807    -4.8338    -0.5982 N.pl3   
  12 C12            1.1202    -4.2495    -1.2805 C.2     
  13 Cl13           2.6286    -2.1035    -2.0483 Cl      
  14 C14            0.1518    -6.1638    -0.8807 C.2     
  15 N15            1.1687    -6.3423    -1.6840 N.2     
  16 N16            1.7487    -5.2196    -1.9266 N.2     
  17 C17           -0.7723    -7.2353    -0.3621 C.3     
  18 C18           -1.9501    -7.4024    -1.3242 C.3     
  19 O19            1.1538     3.4449     0.0091 O.3     
  20 C20            0.6472     4.0690     1.1046 C.ar    
  21 C21            0.6987     5.4522     1.2024 C.ar    
  22 C22            0.1825     6.0843     2.3170 C.ar    
  23 C23           -0.3850     5.3398     3.3347 C.ar    
  24 C24           -0.4376     3.9614     3.2397 C.ar    
  25 C25            0.0723     3.3247     2.1249 C.ar    
  26 H26           -0.9017     2.2614    -1.0973 H       
  27 H27           -1.2130    -0.1704    -1.2829 H       
  28 H28            2.5380    -0.7919     0.6978 H       
  29 H29            2.8374     1.6414     0.8822 H       
  30 H30           -1.2712    -2.1698     0.8853 H       
  31 H31           -1.5692    -4.5615     0.7022 H       
  32 H32           -0.2295    -8.1773    -0.2852 H       
  33 H33           -1.1446    -6.9491     0.6216 H       
  34 H34           -1.5779    -7.6886    -2.3079 H       
  35 H35           -2.6186    -8.1774    -0.9491 H       
  36 H36           -2.4930    -6.4604    -1.4011 H       
  37 H37            1.1422     6.0341     0.4080 H       
  38 H38            0.2227     7.1608     2.3938 H       
  39 H39           -0.7877     5.8359     4.2054 H       
  40 H40           -0.8815     3.3823     4.0360 H       
  41 H41            0.0308     2.2480     2.0511 H       
@<TRIPOS>BOND
   1    1    2 ar
   2    1    6 ar
   3    1   26 1
   4    2    3 ar
   5    2   27 1
   6    3    4 ar
   7    3    7 1
   8    4    5 ar
   9    4   28 1
  10    5    6 ar
  11    5   29 1
  12    6   19 1
  13    7    8 2
  14    7    9 1
  15    8   13 1
  16    8   12 1
  17    9   10 2
  18    9   30 1
  19   10   11 1
  20   10   31 1
  21   11   12 1
  22   11   14 1
  23   12   16 2
  24   14   15 2
  25   14   17 1
  26   15   16 1
  27   17   18 1
  28   17   32 1
  29   17   33 1
  30   18   34 1
  31   18   35 1
  32   18   36 1
  33   19   20 1
  34   20   21 ar
  35   20   25 ar
  36   21   22 ar
  37   21   37 1
  38   22   23 ar
  39   22   38 1
  40   23   24 ar
  41   23   39 1
  42   24   25 ar
  43   24   40 1
  44   25   41 1

#	End of record

