#	Name: ASD01411114
#	Creating user name:	WinNT
#	Creation time:	15. 06. 2019 19:19

#	Modifying user name:	WinNT
#	Modification time:	15. 06. 2019 19:19

#	Program:	/corina/corina34_cracker 3.40 0067  02.08.2006

@<TRIPOS>MOLECULE
ASD01411114
  60   62    0    0    0
SMALL
NO_CHARGES


@<TRIPOS>ATOM
   1 C1             0.0976     1.8982    -0.2058 C.3     
   2 C2            -0.0942     0.3796    -0.3275 C.3     
   3 O3             1.4881     2.1911    -0.0437 O.3     
   4 C4             0.6947    -0.2759     0.7781 C.2     
   5 C5             2.0281     1.8099     1.2279 C.3     
   6 C6             1.6560     0.3686     1.4851 C.2     
   7 C7             0.6155    -1.6186     1.2931 C.ar    
   8 C8             1.4402     2.6986     2.3258 C.3     
   9 N9             2.1903    -0.4772     2.4138 N.pl3   
  10 C10           -0.1872    -2.7305     0.9574 C.ar    
  11 C11            1.5825    -1.6988     2.3289 C.ar    
  12 C12            0.0243    -3.9004     1.6965 C.ar    
  13 C13            1.7649    -2.8801     3.0427 C.ar    
  14 C14            0.9685    -3.9629     2.7010 C.ar    
  15 C15            2.1244     2.3839     3.6576 C.3     
  16 C16            3.5510     1.9550     1.2066 C.3     
  17 N17            4.1093     1.0910     0.1635 N.am    
  18 S18            5.5730     0.3522     0.3960 S.o2    
  19 O19            6.4389     1.4068     0.7923 O.2     
  20 C20            5.2890    -0.7908     1.7757 C.3     
  21 O21            5.7980    -0.3668    -0.8089 O.2     
  22 C22            6.5839    -1.5425     2.0901 C.3     
  23 C23            6.3444    -2.5065     3.2538 C.3     
  24 C24            7.6393    -3.2583     3.5682 C.3     
  25 C25            2.7882    -2.9784     4.1447 C.3     
  26 C26            1.6160     3.3470     4.7323 C.3     
  27 C27            3.9150     3.3889     0.9192 C.2     
  28 O28            4.5732     3.6612    -0.0567 O.2     
  29 O29            3.5079     4.3636     1.7475 O.3     
  30 C30           -1.1670    -2.6648    -0.0848 C.1     
  31 N31           -1.9444    -2.6127    -0.9116 N.1     
  32 H32           -0.2735     2.3849    -1.1077 H       
  33 H33           -0.4545     2.2660     0.6591 H       
  34 H34           -1.1506     0.1317    -0.2241 H       
  35 H35            0.2726     0.0377    -1.2953 H       
  36 H36            1.6036     3.7459     2.0719 H       
  37 H37            0.3704     2.5086     2.4131 H       
  38 H38            2.8951    -0.2464     3.0390 H       
  39 H39           -0.5671    -4.7766     1.4752 H       
  40 H40            1.0919    -4.8898     3.2413 H       
  41 H41            1.8957     1.3592     3.9504 H       
  42 H42            3.2029     2.4984     3.5480 H       
  43 H43            3.9573     1.6641     2.1753 H       
  44 H44            3.6217     0.9518    -0.6634 H       
  45 H45            4.9729    -0.2283     2.6543 H       
  46 H46            4.5118    -1.5044     1.5023 H       
  47 H47            6.9000    -2.1050     1.2115 H       
  48 H48            7.3611    -0.8289     2.3635 H       
  49 H49            6.0283    -1.9441     4.1324 H       
  50 H50            5.5672    -3.2202     2.9803 H       
  51 H51            7.9553    -3.8208     2.6896 H       
  52 H52            8.4165    -2.5447     3.8416 H       
  53 H53            7.4686    -3.9451     4.3972 H       
  54 H54            2.3291    -2.6987     5.0929 H       
  55 H55            3.1572    -4.0021     4.2077 H       
  56 H56            3.6185    -2.3055     3.9305 H       
  57 H57            2.1035     3.1228     5.6811 H       
  58 H58            1.8447     4.3717     4.4395 H       
  59 H59            0.5376     3.2325     4.8419 H       
  60 H60            3.7659     5.2677     1.5218 H       
@<TRIPOS>BOND
   1    1    2 1
   2    1    3 1
   3    1   32 1
   4    1   33 1
   5    2    4 1
   6    2   34 1
   7    2   35 1
   8    3    5 1
   9    4    6 2
  10    4    7 1
  11    5    8 1
  12    5   16 1
  13    5    6 1
  14    6    9 1
  15    7   10 ar
  16    7   11 ar
  17    8   15 1
  18    8   36 1
  19    8   37 1
  20    9   11 1
  21    9   38 1
  22   10   12 ar
  23   10   30 1
  24   11   13 ar
  25   12   14 ar
  26   12   39 1
  27   13   14 ar
  28   13   25 1
  29   14   40 1
  30   15   26 1
  31   15   41 1
  32   15   42 1
  33   16   17 1
  34   16   27 1
  35   16   43 1
  36   17   18 am
  37   17   44 1
  38   18   19 2
  39   18   20 1
  40   18   21 2
  41   20   22 1
  42   20   45 1
  43   20   46 1
  44   22   23 1
  45   22   47 1
  46   22   48 1
  47   23   24 1
  48   23   49 1
  49   23   50 1
  50   24   51 1
  51   24   52 1
  52   24   53 1
  53   25   54 1
  54   25   55 1
  55   25   56 1
  56   26   57 1
  57   26   58 1
  58   26   59 1
  59   27   28 2
  60   27   29 1
  61   29   60 1
  62   30   31 3

#	End of record

