#	Name: ASD00100033
#	Creating user name:	WinNT
#	Creation time:	15. 06. 2019 18:30

#	Modifying user name:	WinNT
#	Modification time:	15. 06. 2019 18:30

#	Program:	/corina/corina34_cracker 3.40 0067  02.08.2006

@<TRIPOS>MOLECULE
ASD00100033
  60   63    0    0    0
SMALL
NO_CHARGES


@<TRIPOS>ATOM
   1 C1            -0.0225     1.8097     0.0120 C.3     
   2 S2             0.0021    -0.0041     0.0020 S.o2    
   3 O3             0.8448    -0.4970     1.0346 O.2     
   4 O4            -1.3093    -0.5195    -0.1821 O.2     
   5 N5             0.7961    -0.3989    -1.3965 N.am    
   6 C6             2.2072    -0.0423    -1.5633 C.3     
   7 C7             2.9179    -1.1345    -2.3652 C.3     
   8 C8             4.3916    -0.7622    -2.5394 C.3     
   9 C9             4.4965     0.5689    -3.2865 C.3     
  10 C10            3.7858     1.6611    -2.4846 C.3     
  11 C11            2.3121     1.2888    -2.3104 C.3     
  12 C12            5.9702     0.9413    -3.4607 C.3     
  13 C13            6.0792     2.2061    -4.3147 C.3     
  14 N14            7.4941     2.5636    -4.4819 N.3     
  15 C15            7.6538     3.6256    -5.4835 C.3     
  16 C16            9.1431     3.8698    -5.7369 C.3     
  17 C17            9.8196     4.2746    -4.4243 C.3     
  18 C18            9.5972     3.1734    -3.3839 C.3     
  19 C19            8.0947     2.9493    -3.1986 C.3     
  20 O20           13.3987     4.0616    -5.1769 O.3     
  21 C21           12.1644     3.5352    -5.0930 C.2     
  22 C22           11.2974     4.4583    -4.6551 C.2     
  23 C23           12.0765     5.6847    -4.4460 C.ar    
  24 C24           13.3966     5.3554    -4.7972 C.ar    
  25 C25           11.7686     6.9721    -4.0096 C.ar    
  26 C26           12.7658     7.9187    -3.9250 C.ar    
  27 C27           14.0693     7.5943    -4.2716 C.ar    
  28 C28           14.3870     6.3246    -4.7046 C.ar    
  29 H29            1.0001     2.1870     0.0043 H       
  30 H30           -0.5497     2.1708    -0.8711 H       
  31 H31           -0.5327     2.1613     0.9088 H       
  32 H32            0.3269    -0.8662    -2.1053 H       
  33 H33            2.6762     0.0528    -0.5840 H       
  34 H34            2.8432    -2.0828    -1.8329 H       
  35 H35            2.4490    -1.2297    -3.3445 H       
  36 H36            4.8606    -0.6671    -1.5600 H       
  37 H37            4.8979    -1.5403    -3.1106 H       
  38 H38            4.0275     0.4738    -4.2658 H       
  39 H39            4.2548     1.7562    -1.5053 H       
  40 H40            3.8605     2.6094    -3.0169 H       
  41 H41            1.8431     1.1936    -3.2898 H       
  42 H42            1.8058     2.0669    -1.7392 H       
  43 H43            6.4170     1.1232    -2.4832 H       
  44 H44            6.4957     0.1235    -3.9538 H       
  45 H45            5.6324     2.0241    -5.2921 H       
  46 H46            5.5536     3.0238    -3.8215 H       
  47 H47            7.1719     3.3233    -6.4133 H       
  48 H48            7.1925     4.5427    -5.1170 H       
  49 H49            9.6022     2.9570    -6.1165 H       
  50 H50            9.2614     4.6689    -6.4688 H       
  51 H51            9.3873     5.2083    -4.0645 H       
  52 H52           10.0634     2.2496    -3.7264 H       
  53 H53           10.0400     3.4749    -2.4346 H       
  54 H54            7.6314     3.8696    -2.8428 H       
  55 H55            7.9331     2.1559    -2.4689 H       
  56 H56           11.9086     2.5160    -5.3424 H       
  57 H57           10.7541     7.2261    -3.7398 H       
  58 H58           12.5319     8.9177    -3.5877 H       
  59 H59           14.8432     8.3443    -4.2018 H       
  60 H60           15.4054     6.0838    -4.9716 H       
@<TRIPOS>BOND
   1    1    2 1
   2    1   29 1
   3    1   30 1
   4    1   31 1
   5    2    3 2
   6    2    4 2
   7    2    5 am
   8    5    6 1
   9    5   32 1
  10    6    7 1
  11    6   11 1
  12    6   33 1
  13    7    8 1
  14    7   34 1
  15    7   35 1
  16    8    9 1
  17    8   36 1
  18    8   37 1
  19    9   10 1
  20    9   12 1
  21    9   38 1
  22   10   11 1
  23   10   39 1
  24   10   40 1
  25   11   41 1
  26   11   42 1
  27   12   13 1
  28   12   43 1
  29   12   44 1
  30   13   14 1
  31   13   45 1
  32   13   46 1
  33   14   15 1
  34   14   19 1
  35   15   16 1
  36   15   47 1
  37   15   48 1
  38   16   17 1
  39   16   49 1
  40   16   50 1
  41   17   18 1
  42   17   22 1
  43   17   51 1
  44   18   19 1
  45   18   52 1
  46   18   53 1
  47   19   54 1
  48   19   55 1
  49   20   21 1
  50   20   24 1
  51   21   22 2
  52   21   56 1
  53   22   23 1
  54   23   24 ar
  55   23   25 ar
  56   24   28 ar
  57   25   26 ar
  58   25   57 1
  59   26   27 ar
  60   26   58 1
  61   27   28 ar
  62   27   59 1
  63   28   60 1

#	End of record

