#	Name: ASD01670051
#	Creating user name:	WinNT
#	Creation time:	15. 06. 2019 19:22

#	Modifying user name:	WinNT
#	Modification time:	15. 06. 2019 19:22

#	Program:	/corina/corina34_cracker 3.40 0067  02.08.2006

@<TRIPOS>MOLECULE
ASD01670051
  68   71    0    0    0
SMALL
NO_CHARGES


@<TRIPOS>ATOM
   1 C1             0.0965     1.2939    -0.4173 C.ar    
   2 C2             0.6519     1.1477     0.8412 C.ar    
   3 C3             0.7416     0.7797    -1.5234 C.ar    
   4 C4             1.8569     0.4861     0.9999 C.ar    
   5 C5             6.6488    -0.9616     3.7861 C.ar    
   6 C6             6.8898    -0.9665     5.1496 C.ar    
   7 C7             1.9569     0.1110    -1.3703 C.ar    
   8 C8             4.6936    -2.3173     4.1237 C.ar    
   9 C9             2.5121    -0.0326    -0.0975 C.ar    
  10 C10            5.5609    -1.6304     3.2693 C.ar    
  11 C11            6.0404    -1.6447     6.0101 C.ar    
  12 C12            4.9373    -2.3214     5.5042 C.ar    
  13 C13            2.6534    -0.4428    -2.5509 C.2     
  14 C14            3.5277    -3.0337     3.5756 C.2     
  15 C15            6.8447    -1.2899    11.6065 C.2     
  16 C16            1.2069    -1.8062    -7.8960 C.3     
  17 C17            2.5602    -1.2061    -7.4793 C.3     
  18 C18            0.8887    -1.9291    -6.3965 C.3     
  19 C19            4.5697    -3.2824     7.6453 C.3     
  20 C20            1.8761    -0.7716    -6.1724 C.3     
  21 C21            5.2265    -2.0176     8.2132 C.3     
  22 C22            3.8246    -0.7523     0.0770 C.3     
  23 C23            5.3057    -1.6211     1.7841 C.3     
  24 C24            4.7436     0.7338     1.7532 C.3     
  25 C25            6.3105    -1.0089    10.2256 C.3     
  26 C26            2.7553    -0.9473    -4.9326 C.3     
  27 C27            5.7688    -2.3030     9.6151 C.3     
  28 N28            2.0651    -0.3985    -3.7627 N.am    
  29 N29            4.2696    -0.6278     1.4714 N.3     
  30 O30            3.6310    -4.1980     3.2437 O.2     
  31 O31            6.7970    -2.4104    12.0562 O.2     
  32 O32            3.7567    -0.9382    -2.4287 O.2     
  33 O33            2.3474    -2.3974     3.4427 O.3     
  34 O34            7.3734    -0.2956    12.3368 O.3     
  35 O35            4.0881    -2.9857     6.3299 O.3     
  36 O36            6.3022    -1.6422     7.3461 O.3     
  37 H37           -0.8463     1.8077    -0.5339 H       
  38 H38            0.1429     1.5520     1.7037 H       
  39 H39            0.3068     0.8942    -2.5053 H       
  40 H40            2.2855     0.3760     1.9850 H       
  41 H41            7.3146    -0.4271     3.1248 H       
  42 H42            7.7451    -0.4390     5.5452 H       
  43 H43            0.5615    -1.1036    -8.4231 H       
  44 H44            1.2931    -2.7666    -8.4042 H       
  45 H45            3.3426    -1.9513    -7.3358 H       
  46 H46            2.8786    -0.3715    -8.1039 H       
  47 H47           -0.1422    -1.6781    -6.1469 H       
  48 H48            1.2142    -2.8719    -5.9569 H       
  49 H49            5.3037    -4.0866     7.5944 H       
  50 H50            3.7381    -3.5827     8.2826 H       
  51 H51            1.4136     0.2138    -6.2283 H       
  52 H52            4.4937    -1.2121     8.2596 H       
  53 H53            3.6969    -1.8060    -0.1709 H       
  54 H54            4.5713    -0.3115    -0.5834 H       
  55 H55            6.2257    -1.3641     1.2590 H       
  56 H56            4.9700    -2.6084     1.4669 H       
  57 H57            3.9142     1.4345     1.6569 H       
  58 H58            5.1405     0.7778     2.7674 H       
  59 H59            5.5278     0.9995     1.0443 H       
  60 H60            5.5085    -0.2735    10.2890 H       
  61 H61            7.1122    -0.6190     9.5983 H       
  62 H62            2.9521    -2.0077    -4.7741 H       
  63 H63            3.6984    -0.4206    -5.0783 H       
  64 H64            4.9672    -2.6929    10.2424 H       
  65 H65            6.5709    -3.0384     9.5517 H       
  66 H66            1.1847    -0.0032    -3.8602 H       
  67 H67            1.6117    -2.9085     3.0785 H       
  68 H68            7.7030    -0.5244    13.2166 H       
@<TRIPOS>BOND
   1    1    2 ar
   2    1    3 ar
   3    1   37 1
   4    2    4 ar
   5    2   38 1
   6    3    7 ar
   7    3   39 1
   8    4    9 ar
   9    4   40 1
  10    5    6 ar
  11    5   10 ar
  12    5   41 1
  13    6   11 ar
  14    6   42 1
  15    7    9 ar
  16    7   13 1
  17    8   10 ar
  18    8   12 ar
  19    8   14 1
  20    9   22 1
  21   10   23 1
  22   11   12 ar
  23   11   36 1
  24   12   35 1
  25   13   28 am
  26   13   32 2
  27   14   30 2
  28   14   33 1
  29   15   25 1
  30   15   31 2
  31   15   34 1
  32   16   17 1
  33   16   18 1
  34   16   43 1
  35   16   44 1
  36   17   20 1
  37   17   45 1
  38   17   46 1
  39   18   20 1
  40   18   47 1
  41   18   48 1
  42   19   21 1
  43   19   35 1
  44   19   49 1
  45   19   50 1
  46   20   26 1
  47   20   51 1
  48   21   27 1
  49   21   36 1
  50   21   52 1
  51   22   29 1
  52   22   53 1
  53   22   54 1
  54   23   29 1
  55   23   55 1
  56   23   56 1
  57   24   29 1
  58   24   57 1
  59   24   58 1
  60   24   59 1
  61   25   27 1
  62   25   60 1
  63   25   61 1
  64   26   28 1
  65   26   62 1
  66   26   63 1
  67   27   64 1
  68   27   65 1
  69   28   66 1
  70   33   67 1
  71   34   68 1

#	End of record

