#	Name: ASD06232002
#	Creating user name:	WinNT
#	Creation time:	15. 06. 2019 21:05

#	Modifying user name:	WinNT
#	Modification time:	15. 06. 2019 21:05

#	Program:	/corina/corina34_cracker 3.40 0067  02.08.2006

@<TRIPOS>MOLECULE
ASD06232002
  74   77    0    0    0
SMALL
NO_CHARGES


@<TRIPOS>ATOM
   1 C1            -0.1488     2.4370     1.0702 C.3     
   2 C2            -0.4976     1.1468     0.3409 C.3     
   3 C3             0.0453    -0.0995     1.0136 C.3     
   4 C4             1.4771    -0.0040     1.5200 C.3     
   5 C5             1.7313     1.3052     2.2551 C.3     
   6 C6             1.3421     2.5028     1.4019 C.3     
   7 C7             2.5106    -0.4154     0.5009 C.3     
   8 C8             3.9409    -0.2643     1.0444 C.3     
   9 C9             4.1269     1.1692     1.5360 C.3     
  10 C10            3.1890     1.3957     2.7216 C.3     
  11 C11            5.5406     1.5143     1.8729 C.3     
  12 C12            5.7790     1.7354     3.3822 C.3     
  13 C13            4.9220     2.8741     3.8727 C.3     
  14 C14            3.4685     2.7237     3.4050 C.3     
  15 C15            6.6587     0.5172     1.5390 C.3     
  16 C16            7.8789     1.1983     2.2305 C.3     
  17 C17            7.2963     2.0321     3.3980 C.3     
  18 H18            1.5398    -0.7923     2.3279 H       
  19 C19            0.8573     1.2992     3.5306 C.3     
  20 C20            5.5799     0.4755     4.2203 C.3     
  21 C21            7.8919     1.5779     4.7293 C.3     
  22 O22            4.8512    -0.5406    -0.0233 O.3     
  23 O23           -0.1680     1.2273    -1.0389 O.3     
  24 C24            7.2742     2.3914     5.8684 C.3     
  25 C25            9.4064     1.7946     4.7109 C.3     
  26 C26           10.0186     1.2259     5.9926 C.3     
  27 C27            2.4093     0.2951    -0.8397 C.3     
  28 C28            3.3833    -0.3448    -1.8310 C.3     
  29 C29           11.5103     1.4393     5.9744 C.2     
  30 O30           12.0304     1.9897     5.0329 O.2     
  31 O31           12.2611     1.0179     7.0042 O.3     
  32 H32           -0.3887     3.2853     0.4096 H       
  33 H33           -0.7550     2.5452     1.9652 H       
  34 H34           -1.6124     1.0630     0.3798 H       
  35 H35           -0.6138    -0.3714     1.8518 H       
  36 H36           -0.0163    -0.9398     0.3016 H       
  37 H37            1.9257     2.5406     0.4874 H       
  38 H38            1.5276     3.4254     1.9659 H       
  39 H39            2.3714    -1.5005     0.3022 H       
  40 H40            4.0979    -0.9649     1.8588 H       
  41 H41            3.8055     1.8517     0.7266 H       
  42 H42            3.3015     0.5809     3.4426 H       
  43 H43            5.7915     2.4656     1.3474 H       
  44 H44            4.9487     2.9051     4.9711 H       
  45 H45            5.3288     3.8260     3.5062 H       
  46 H46            3.2425     3.5406     2.7040 H       
  47 H47            2.8105     2.8489     4.2727 H       
  48 H48            6.4738    -0.4681     1.9408 H       
  49 H49            6.8282     0.4783     0.4605 H       
  50 H50            8.5593     0.4393     2.6108 H       
  51 H51            8.3881     1.8482     1.5212 H       
  52 H52            7.4613     3.0921     3.2371 H       
  53 H53            1.1340     0.4509     4.1566 H       
  54 H54            1.0148     2.2254     4.0833 H       
  55 H55           -0.1930     1.2171     3.2510 H       
  56 H56            6.3250    -0.2690     3.9397 H       
  57 H57            5.6910     0.7204     5.2766 H       
  58 H58            4.5817     0.0752     4.0431 H       
  59 H59            7.6780     0.5199     4.8809 H       
  60 H60            4.8914    -1.4736    -0.2744 H       
  61 H61           -0.6263     1.9352    -1.5121 H       
  62 H62            6.1952     2.2370     5.8816 H       
  63 H63            7.6992     2.0673     6.8184 H       
  64 H64            7.4880     3.4494     5.7169 H       
  65 H65            9.8355     1.2870     3.8470 H       
  66 H66            9.6200     2.8616     4.6485 H       
  67 H67            9.5894     1.7335     6.8565 H       
  68 H68            9.8049     0.1589     6.0550 H       
  69 H69            1.3922     0.2072    -1.2216 H       
  70 H70            2.6599     1.3483    -0.7126 H       
  71 H71            3.3886    -1.4255    -1.6889 H       
  72 H72            3.0698    -0.1138    -2.8491 H       
  73 H73            4.3855     0.0489    -1.6613 H       
  74 H74           13.2132     1.1772     6.9474 H       
@<TRIPOS>BOND
   1    1    2 1
   2    1    6 1
   3    1   32 1
   4    1   33 1
   5    2    3 1
   6    2   23 1
   7    2   34 1
   8    3    4 1
   9    3   35 1
  10    3   36 1
  11    4    5 1
  12    4   18 1
  13    4    7 1
  14    5    6 1
  15    5   19 1
  16    5   10 1
  17    6   37 1
  18    6   38 1
  19    7    8 1
  20    7   27 1
  21    7   39 1
  22    8    9 1
  23    8   22 1
  24    8   40 1
  25    9   10 1
  26    9   11 1
  27    9   41 1
  28   10   14 1
  29   10   42 1
  30   11   12 1
  31   11   15 1
  32   11   43 1
  33   12   13 1
  34   12   20 1
  35   12   17 1
  36   13   14 1
  37   13   44 1
  38   13   45 1
  39   14   46 1
  40   14   47 1
  41   15   16 1
  42   15   48 1
  43   15   49 1
  44   16   17 1
  45   16   50 1
  46   16   51 1
  47   17   21 1
  48   17   52 1
  49   19   53 1
  50   19   54 1
  51   19   55 1
  52   20   56 1
  53   20   57 1
  54   20   58 1
  55   21   24 1
  56   21   25 1
  57   21   59 1
  58   22   60 1
  59   23   61 1
  60   24   62 1
  61   24   63 1
  62   24   64 1
  63   25   26 1
  64   25   65 1
  65   25   66 1
  66   26   29 1
  67   26   67 1
  68   26   68 1
  69   27   28 1
  70   27   69 1
  71   27   70 1
  72   28   71 1
  73   28   72 1
  74   28   73 1
  75   29   30 2
  76   29   31 1
  77   31   74 1

#	End of record

