#	Name: ASD01811758
#	Creating user name:	WinNT
#	Creation time:	15. 06. 2019 19:27

#	Modifying user name:	WinNT
#	Modification time:	15. 06. 2019 19:27

#	Program:	/corina/corina34_cracker 3.40 0067  02.08.2006

@<TRIPOS>MOLECULE
ASD01811758
  54   58    0    0    0
SMALL
NO_CHARGES


@<TRIPOS>ATOM
   1 C1             0.0337     1.2975    -0.1608 C.ar    
   2 C2            -0.0764    -0.0838    -0.1851 C.ar    
   3 C3            -1.2865    -0.6900     0.1023 C.ar    
   4 C4            -2.3918     0.0739     0.4145 C.ar    
   5 C5            -2.2894     1.4662     0.4413 C.ar    
   6 C6            -1.0622     2.0686     0.1558 C.ar    
   7 Cl7            1.5537     2.0544    -0.5221 Cl      
   8 C8             1.1247    -0.9276    -0.5260 C.3     
   9 F9             2.2927    -0.2267    -0.2071 F       
  10 F10            1.0809    -2.1187     0.2064 F       
  11 F11            1.1156    -1.2207    -1.8940 F       
  12 C12           -1.3976    -2.1927     0.0736 C.3     
  13 C13           -2.8402    -2.5931     0.2464 C.ar    
  14 C14           -3.6669    -2.6882    -0.8579 C.ar    
  15 C15           -4.9896    -3.0545    -0.7027 C.ar    
  16 C16           -5.4886    -3.3278     0.5638 C.ar    
  17 C17           -4.6560    -3.2318     1.6706 C.ar    
  18 C18           -3.3329    -2.8701     1.5084 C.ar    
  19 N19           -6.8307    -3.6993     0.7247 N.pl3   
  20 C20           -7.4409    -3.9911     1.8956 C.2     
  21 C21           -8.7297    -4.3001     1.6225 C.2     
  22 C22           -8.9144    -4.1940     0.2396 C.2     
  23 N23           -7.7789    -3.8282    -0.2985 N.2     
  24 C24           -3.2700     2.5294     0.7330 C.2     
  25 N25           -2.6912     3.7382     0.6307 N.am    
  26 C26           -1.2812     3.5567     0.2669 C.3     
  27 O27           -4.4349     2.3393     1.0238 O.2     
  28 C28           -3.3572     5.0246     0.8495 C.3     
  29 C29           -3.2316     5.4200     2.3222 C.3     
  30 O30           -1.8598     5.6828     2.6394 O.3     
  31 C31           -1.7040     7.0514     3.0470 C.3     
  32 C32           -3.0988     7.4794     3.5688 C.3     
  33 C33           -4.0281     6.7158     2.5863 C.3     
  34 H34           -3.3344    -0.4038     0.6375 H       
  35 H35           -1.0289    -2.5661    -0.8818 H       
  36 H36           -0.8034    -2.6165     0.8831 H       
  37 H37           -3.2781    -2.4756    -1.8428 H       
  38 H38           -5.6350    -3.1280    -1.5655 H       
  39 H39           -5.0415    -3.4434     2.6570 H       
  40 H40           -2.6847    -2.7952     2.3690 H       
  41 H41           -6.9818    -3.9802     2.8732 H       
  42 H42           -9.4828    -4.5793     2.3445 H       
  43 H43           -9.8365    -4.3778    -0.2917 H       
  44 H44           -0.6378     3.9738     1.0416 H       
  45 H45           -1.0764     4.0373    -0.6898 H       
  46 H46           -2.8884     5.7870     0.2273 H       
  47 H47           -4.4111     4.9376     0.5853 H       
  48 H48           -3.6099     4.6165     2.9542 H       
  49 H49           -0.9628     7.1272     3.8427 H       
  50 H50           -1.4123     7.6684     2.1972 H       
  51 H51           -3.2535     7.1463     4.5950 H       
  52 H52           -3.2367     8.5572     3.4825 H       
  53 H53           -4.1663     7.2809     1.6645 H       
  54 H54           -4.9874     6.4931     3.0536 H       
@<TRIPOS>BOND
   1    1    2 ar
   2    1    7 1
   3    1    6 ar
   4    2    3 ar
   5    2    8 1
   6    3    4 ar
   7    3   12 1
   8    4    5 ar
   9    4   34 1
  10    5    6 ar
  11    5   24 1
  12    6   26 1
  13    8    9 1
  14    8   10 1
  15    8   11 1
  16   12   13 1
  17   12   35 1
  18   12   36 1
  19   13   14 ar
  20   13   18 ar
  21   14   15 ar
  22   14   37 1
  23   15   16 ar
  24   15   38 1
  25   16   17 ar
  26   16   19 1
  27   17   18 ar
  28   17   39 1
  29   18   40 1
  30   19   20 1
  31   19   23 1
  32   20   21 2
  33   20   41 1
  34   21   22 1
  35   21   42 1
  36   22   23 2
  37   22   43 1
  38   24   25 am
  39   24   27 2
  40   25   26 1
  41   25   28 1
  42   26   44 1
  43   26   45 1
  44   28   29 1
  45   28   46 1
  46   28   47 1
  47   29   30 1
  48   29   33 1
  49   29   48 1
  50   30   31 1
  51   31   32 1
  52   31   49 1
  53   31   50 1
  54   32   33 1
  55   32   51 1
  56   32   52 1
  57   33   53 1
  58   33   54 1

#	End of record

