#	Name: ASD03090760
#	Creating user name:	WinNT
#	Creation time:	15. 06. 2019 20:29

#	Modifying user name:	WinNT
#	Modification time:	15. 06. 2019 20:29

#	Program:	/corina/corina34_cracker 3.40 0067  02.08.2006

@<TRIPOS>MOLECULE
ASD03090760
  43   45    0    0    0
SMALL
NO_CHARGES


@<TRIPOS>ATOM
   1 C1            -0.0173     1.4248     0.0099 C.3     
   2 O2             0.0021    -0.0041     0.0020 O.3     
   3 C3             0.6058    -0.6071    -1.0557 C.ar    
   4 C4             1.1679     0.1605    -2.0651 C.ar    
   5 C5             1.7810    -0.4550    -3.1394 C.ar    
   6 C6             1.8346    -1.8347    -3.2089 C.ar    
   7 C7             1.2746    -2.6022    -2.2041 C.ar    
   8 C8             0.6659    -1.9916    -1.1249 C.ar    
   9 C9             1.3344    -4.1059    -2.2832 C.3     
  10 N10            1.0997    -4.5319    -3.6651 N.am    
  11 C11            0.6117    -5.7627    -3.9172 C.2     
  12 O12            0.3668    -6.5175    -3.0000 O.2     
  13 C13            0.3702    -6.2009    -5.3387 C.3     
  14 C14            1.2734    -7.2998    -5.9023 C.3     
  15 C15           -0.1852    -7.6094    -5.5591 C.3     
  16 C16           -1.1427    -7.8083    -6.7057 C.ar    
  17 C17           -2.4253    -8.2635    -6.4640 C.ar    
  18 C18           -3.3036    -8.4460    -7.5158 C.ar    
  19 C19           -2.8994    -8.1729    -8.8091 C.ar    
  20 C20           -1.6170    -7.7168    -9.0507 C.ar    
  21 C21           -0.7401    -7.5301    -7.9985 C.ar    
  22 C22            2.7142    -4.5861    -1.8289 C.3     
  23 H23            1.0053     1.8021     0.0021 H       
  24 H24           -0.5445     1.7859    -0.8732 H       
  25 H25           -0.5275     1.7763     0.9067 H       
  26 H26            1.1260     1.2383    -2.0115 H       
  27 H27            2.2185     0.1422    -3.9258 H       
  28 H28            2.3144    -2.3139    -4.0495 H       
  29 H29            0.2291    -2.5914    -0.3402 H       
  30 H30            0.5693    -4.5345    -1.6359 H       
  31 H31            1.2955    -3.9282    -4.3986 H       
  32 H32            0.0433    -5.4179    -6.0229 H       
  33 H33            1.5403    -7.2400    -6.9574 H       
  34 H34            2.0422    -7.7058    -5.2449 H       
  35 H35           -0.3759    -8.2191    -4.6759 H       
  36 H36           -2.7412    -8.4770    -5.4535 H       
  37 H37           -4.3055    -8.8024    -7.3270 H       
  38 H38           -3.5853    -8.3161    -9.6309 H       
  39 H39           -1.3011    -7.5037   -10.0613 H       
  40 H40            0.2618    -7.1738    -8.1873 H       
  41 H41            2.7575    -5.6737    -1.8861 H       
  42 H42            3.4794    -4.1574    -2.4762 H       
  43 H43            2.8889    -4.2691    -0.8007 H       
@<TRIPOS>BOND
   1    1    2 1
   2    1   23 1
   3    1   24 1
   4    1   25 1
   5    2    3 1
   6    3    4 ar
   7    3    8 ar
   8    4    5 ar
   9    4   26 1
  10    5    6 ar
  11    5   27 1
  12    6    7 ar
  13    6   28 1
  14    7    8 ar
  15    7    9 1
  16    8   29 1
  17    9   10 1
  18    9   22 1
  19    9   30 1
  20   10   11 am
  21   10   31 1
  22   11   12 2
  23   11   13 1
  24   13   14 1
  25   13   15 1
  26   13   32 1
  27   14   15 1
  28   14   33 1
  29   14   34 1
  30   15   16 1
  31   15   35 1
  32   16   17 ar
  33   16   21 ar
  34   17   18 ar
  35   17   36 1
  36   18   19 ar
  37   18   37 1
  38   19   20 ar
  39   19   38 1
  40   20   21 ar
  41   20   39 1
  42   21   40 1
  43   22   41 1
  44   22   42 1
  45   22   43 1

#	End of record

