#	Name: ASD01382007
#	Creating user name:	WinNT
#	Creation time:	15. 06. 2019 19:16

#	Modifying user name:	WinNT
#	Modification time:	15. 06. 2019 19:16

#	Program:	/corina/corina34_cracker 3.40 0067  02.08.2006

@<TRIPOS>MOLECULE
ASD01382007
  53   56    0    0    0
SMALL
NO_CHARGES


@<TRIPOS>ATOM
   1 C1            -0.0245     1.3695    -0.0264 C.ar    
   2 C2             0.0779     0.1182     0.5620 C.ar    
   3 C3            -1.0174    -0.4587     1.1719 C.ar    
   4 C4            -2.2327     0.2133     1.2004 C.ar    
   5 C5            -2.3401     1.4805     0.6061 C.ar    
   6 C6            -1.2213     2.0539    -0.0034 C.ar    
   7 Cl7            1.3629     2.0812    -0.7896 Cl      
   8 C8            -3.6243     2.2039     0.6291 C.2     
   9 N9            -3.7229     3.4203     0.0573 N.am    
  10 O10           -4.5948     1.7029     1.1640 O.2     
  11 C11           -4.9651     4.0580    -0.0200 C.ar    
  12 C12           -5.0468     5.4395     0.0977 C.ar    
  13 C13           -6.2750     6.0663     0.0204 C.ar    
  14 C14           -7.4228     5.3198    -0.1739 C.ar    
  15 C15           -7.3450     3.9442    -0.2915 C.ar    
  16 C16           -6.1193     3.3118    -0.2204 C.ar    
  17 S17           -8.9879     6.1233    -0.2714 S.o2    
  18 N18           -9.2519     6.4909    -1.8644 N.am    
  19 C19           -9.9357     5.5422    -2.7575 C.3     
  20 C20          -11.0636     6.2866    -3.4812 C.3     
  21 O21          -10.5332     7.4648    -4.0929 O.3     
  22 C22           -9.9927     8.4117    -3.1682 C.3     
  23 C23           -8.8150     7.7785    -2.4271 C.3     
  24 O24           -9.9612     5.1503     0.0825 O.2     
  25 O25           -8.8455     7.3631     0.4083 O.2     
  26 N26           -3.3366    -0.3661     1.8136 N.pl3   
  27 S27           -3.2055    -1.8615     2.5129 S.o2    
  28 O28           -2.9703    -2.7801     1.4546 O.2     
  29 O29           -2.3283    -1.7109     3.6207 O.2     
  30 C30           -4.7853    -2.2654     3.1805 C.2     
  31 S31           -5.3250    -1.8823     4.8100 S.3     
  32 C32           -6.8830    -2.6392     4.5044 C.2     
  33 C33           -6.9124    -3.1150     3.2574 C.2     
  34 C34           -5.7561    -2.9031     2.5256 C.2     
  35 Cl35          -8.1833    -2.7509     5.6492 Cl      
  36 H36            1.0206    -0.4085     0.5426 H       
  37 H37           -0.9297    -1.4340     1.6274 H       
  38 H38           -1.2957     3.0286    -0.4625 H       
  39 H39           -2.9322     3.8535    -0.3006 H       
  40 H40           -4.1508     6.0230     0.2499 H       
  41 H41           -6.3393     7.1404     0.1122 H       
  42 H42           -8.2433     3.3641    -0.4429 H       
  43 H43           -6.0591     2.2374    -0.3124 H       
  44 H44           -9.2277     5.1494    -3.4872 H       
  45 H45          -10.3531     4.7228    -2.1723 H       
  46 H46          -11.4933     5.6407    -4.2469 H       
  47 H47          -11.8353     6.5648    -2.7635 H       
  48 H48           -9.6519     9.2948    -3.7088 H       
  49 H49          -10.7605     8.6977    -2.4494 H       
  50 H50           -8.4880     8.4396    -1.6245 H       
  51 H51           -7.9923     7.6090    -3.1218 H       
  52 H52           -7.7739    -3.6225     2.8491 H       
  53 H53           -5.6460    -3.2363     1.5042 H       
@<TRIPOS>BOND
   1    1    2 ar
   2    1    7 1
   3    1    6 ar
   4    2    3 ar
   5    2   36 1
   6    3    4 ar
   7    3   37 1
   8    4    5 ar
   9    4   26 1
  10    5    6 ar
  11    5    8 1
  12    6   38 1
  13    8    9 am
  14    8   10 2
  15    9   11 1
  16    9   39 1
  17   11   12 ar
  18   11   16 ar
  19   12   13 ar
  20   12   40 1
  21   13   14 ar
  22   13   41 1
  23   14   15 ar
  24   14   17 1
  25   15   16 ar
  26   15   42 1
  27   16   43 1
  28   17   18 am
  29   17   24 2
  30   17   25 2
  31   18   19 1
  32   18   23 1
  33   19   20 1
  34   19   44 1
  35   19   45 1
  36   20   21 1
  37   20   46 1
  38   20   47 1
  39   21   22 1
  40   22   23 1
  41   22   48 1
  42   22   49 1
  43   23   50 1
  44   23   51 1
  45   26   27 1
  46   27   28 2
  47   27   29 2
  48   27   30 1
  49   30   31 1
  50   30   34 2
  51   31   32 1
  52   32   33 2
  53   32   35 1
  54   33   34 1
  55   33   52 1
  56   34   53 1

#	End of record

