#	Name: ASD01903011
#	Creating user name:	WinNT
#	Creation time:	15. 06. 2019 19:54

#	Modifying user name:	WinNT
#	Modification time:	15. 06. 2019 19:54

#	Program:	/corina/corina34_cracker 3.40 0067  02.08.2006

@<TRIPOS>MOLECULE
ASD01903011
  29   30    0    0    0
SMALL
NO_CHARGES


@<TRIPOS>ATOM
   1 C1            -0.0024     1.3866    -0.2243 C.ar    
   2 C2             0.0133     0.0010    -0.2376 C.ar    
   3 C3             1.2047    -0.6809    -0.0311 C.ar    
   4 C4             2.3751     0.0202     0.1877 C.ar    
   5 C5             2.3636     1.4016     0.2021 C.ar    
   6 C6             1.1744     2.0893    -0.0044 C.ar    
   7 N7             1.1627     3.4875     0.0097 N.am    
   8 C8             0.1024     4.1474     0.5163 C.2     
   9 O9            -0.8786     3.5308     0.8828 O.2     
  10 C10            0.1328     5.6243     0.6263 C.ar    
  11 O11           -1.1371    -0.6900    -0.4522 O.3     
  12 N12            1.2070     6.2922     0.2243 N.ar    
  13 C13            1.2744     7.6033     0.3048 C.ar    
  14 C14            0.2185     8.3401     0.8164 C.ar    
  15 C15           -0.9231     7.6825     1.2479 C.ar    
  16 C16           -0.9688     6.3012     1.1456 C.ar    
  17 C17           -1.0469    -2.1161    -0.4525 C.3     
  18 F18           -0.5715    -2.5536     0.7884 F       
  19 F19           -2.3130    -2.6634    -0.6862 F       
  20 F20           -0.1678    -2.5275    -1.4600 F       
  21 H21           -0.9276     1.9188    -0.3893 H       
  22 H22            1.2167    -1.7607    -0.0410 H       
  23 H23            3.3006    -0.5128     0.3481 H       
  24 H24            3.2798     1.9472     0.3737 H       
  25 H25            1.9177     3.9824    -0.3451 H       
  26 H26            2.1653     8.1125    -0.0322 H       
  27 H27            0.2842     9.4163     0.8788 H       
  28 H28           -1.7596     8.2344     1.6505 H       
  29 H29           -1.8423     5.7564     1.4721 H       
@<TRIPOS>BOND
   1    1    2 ar
   2    1    6 ar
   3    1   21 1
   4    2    3 ar
   5    2   11 1
   6    3    4 ar
   7    3   22 1
   8    4    5 ar
   9    4   23 1
  10    5    6 ar
  11    5   24 1
  12    6    7 1
  13    7    8 am
  14    7   25 1
  15    8    9 2
  16    8   10 1
  17   10   12 ar
  18   10   16 ar
  19   11   17 1
  20   12   13 ar
  21   13   14 ar
  22   13   26 1
  23   14   15 ar
  24   14   27 1
  25   15   16 ar
  26   15   28 1
  27   16   29 1
  28   17   18 1
  29   17   19 1
  30   17   20 1

#	End of record

