#	Name: ASD01720088
#	Creating user name:	WinNT
#	Creation time:	15. 06. 2019 19:23

#	Modifying user name:	WinNT
#	Modification time:	15. 06. 2019 19:23

#	Program:	/corina/corina34_cracker 3.40 0067  02.08.2006

@<TRIPOS>MOLECULE
ASD01720088
  75   80    0    0    0
SMALL
NO_CHARGES


@<TRIPOS>ATOM
   1 C1            -0.0308     1.3646    -0.0070 C.ar    
   2 C2            -0.0112    -0.0039    -0.0140 C.ar    
   3 C3             1.2104    -0.6734    -0.0578 C.ar    
   4 N4             2.3550    -0.0053    -0.0925 N.ar    
   5 C5             2.3852     1.3161    -0.0874 C.ar    
   6 C6             1.1910     2.0528    -0.0446 C.ar    
   7 N7             1.2290    -2.0577    -0.0649 N.3     
   8 O8             3.5744     1.9628    -0.1232 O.3     
   9 C9             4.7517     1.1539    -0.1653 C.3     
  10 C10            5.9881     2.0543    -0.2015 C.3     
  11 C11            7.2486     1.1882    -0.2466 C.3     
  12 C12            7.2812     0.4030    -1.5593 C.3     
  13 C13            8.4861     2.0835    -0.1570 C.3     
  14 C14            1.2204     3.5247    -0.0388 C.2     
  15 O15            2.2851     4.1118    -0.0716 O.2     
  16 C16            2.6221    -2.5712    -0.1137 C.3     
  17 C17            2.4869    -4.0123    -0.6506 C.3     
  18 C18            1.1562    -4.0262    -1.4308 C.3     
  19 C19            0.5994    -2.5923    -1.2997 C.3     
  20 C20            2.4837    -4.2200    -2.1664 C.3     
  21 C21            2.7985    -5.6019    -2.6788 C.2     
  22 O22            3.0407    -6.4940    -1.9008 O.2     
  23 O23            2.8098    -5.8415    -3.9994 O.3     
  24 C24            0.0969     5.6863     0.0087 C.3     
  25 C25           -1.2196     6.2249    -0.5549 C.3     
  26 C26           -1.1890     7.7546    -0.5488 C.3     
  27 C27            0.2806     6.1870     1.4427 C.3     
  28 C28            0.3112     7.7167     1.4487 C.3     
  29 C29           -1.0053     8.2554     0.8852 C.3     
  30 C30           -0.8827     5.6968     2.3071 C.3     
  31 C31           -2.3830     5.7347     0.3095 C.3     
  32 C32           -2.1686     7.7651     1.7496 C.3     
  33 C33           -2.1992     6.2354     1.7435 C.3     
  34 O34           -0.9767     9.6841     0.8908 O.3     
  35 N35            0.0676     4.2216     0.0029 N.am    
  36 C36            0.1593    10.2453     0.2302 C.3     
  37 F37            0.2317     9.7490    -1.0758 F       
  38 F38            0.0363    11.6384     0.1935 F       
  39 F39            1.3222     9.8980     0.9262 F       
  40 H40           -0.9666     1.9030     0.0223 H       
  41 H41           -0.9360    -0.5611     0.0147 H       
  42 H42            4.7892     0.5205     0.7210 H       
  43 H43            4.7312     0.5287    -1.0580 H       
  44 H44            5.9506     2.6876    -1.0878 H       
  45 H45            6.0086     2.6794     0.6912 H       
  46 H46            7.2418     0.4927     0.5927 H       
  47 H47            7.2880     1.0984    -2.3986 H       
  48 H48            8.1791    -0.2140    -1.5915 H       
  49 H49            6.3996    -0.2349    -1.6231 H       
  50 H50            8.4629     2.6429     0.7782 H       
  51 H51            9.3840     1.4665    -0.1891 H       
  52 H52            8.4929     2.7790    -0.9963 H       
  53 H53            3.2260    -1.9681    -0.7917 H       
  54 H54            3.0604    -2.5769     0.8843 H       
  55 H55            2.7710    -4.8278     0.0145 H       
  56 H56            0.4498    -4.8520    -1.3465 H       
  57 H57           -0.4853    -2.6139    -1.1947 H       
  58 H58            0.8867    -1.9925    -2.1632 H       
  59 H59            2.8389    -3.3973    -2.7869 H       
  60 H60            3.0172    -6.7434    -4.2802 H       
  61 H61            0.9256     6.0355    -0.6071 H       
  62 H62           -1.3505     5.8682    -1.5765 H       
  63 H63           -0.3603     8.1039    -1.1646 H       
  64 H64           -2.1269     8.1383    -0.9503 H       
  65 H65            1.2185     5.8033     1.8442 H       
  66 H66            0.4421     8.0735     2.4703 H       
  67 H67            1.1400     8.0660     0.8329 H       
  68 H68           -0.9045     4.6070     2.3028 H       
  69 H69           -0.7518     6.0535     3.3287 H       
  70 H70           -3.3209     6.1184    -0.0919 H       
  71 H71           -2.4047     4.6449     0.3052 H       
  72 H72           -2.0377     8.1219     2.7712 H       
  73 H73           -3.1065     8.1489     1.3481 H       
  74 H74           -3.0280     5.8862     2.3594 H       
  75 H75           -0.7815     3.7533     0.0291 H       
@<TRIPOS>BOND
   1    1    2 ar
   2    1    6 ar
   3    1   40 1
   4    2    3 ar
   5    2   41 1
   6    3    4 ar
   7    3    7 1
   8    4    5 ar
   9    5    6 ar
  10    5    8 1
  11    6   14 1
  12    7   16 1
  13    7   19 1
  14    8    9 1
  15    9   10 1
  16    9   42 1
  17    9   43 1
  18   10   11 1
  19   10   44 1
  20   10   45 1
  21   11   12 1
  22   11   13 1
  23   11   46 1
  24   12   47 1
  25   12   48 1
  26   12   49 1
  27   13   50 1
  28   13   51 1
  29   13   52 1
  30   14   15 2
  31   14   35 am
  32   16   17 1
  33   16   53 1
  34   16   54 1
  35   17   18 1
  36   17   20 1
  37   17   55 1
  38   18   19 1
  39   18   20 1
  40   18   56 1
  41   19   57 1
  42   19   58 1
  43   20   21 1
  44   20   59 1
  45   21   22 2
  46   21   23 1
  47   23   60 1
  48   24   25 1
  49   24   27 1
  50   24   35 1
  51   24   61 1
  52   25   26 1
  53   25   31 1
  54   25   62 1
  55   26   29 1
  56   26   63 1
  57   26   64 1
  58   27   28 1
  59   27   30 1
  60   27   65 1
  61   28   29 1
  62   28   66 1
  63   28   67 1
  64   29   32 1
  65   29   34 1
  66   30   33 1
  67   30   68 1
  68   30   69 1
  69   31   33 1
  70   31   70 1
  71   31   71 1
  72   32   33 1
  73   32   72 1
  74   32   73 1
  75   33   74 1
  76   34   36 1
  77   35   75 1
  78   36   37 1
  79   36   38 1
  80   36   39 1

#	End of record

