#	Name: ASD01230088
#	Creating user name:	WinNT
#	Creation time:	15. 06. 2019 19:11

#	Modifying user name:	WinNT
#	Modification time:	15. 06. 2019 19:11

#	Program:	/corina/corina34_cracker 3.40 0067  02.08.2006

@<TRIPOS>MOLECULE
ASD01230088
  48   53    0    0    0
SMALL
NO_CHARGES


@<TRIPOS>ATOM
   1 C1            -0.0168     1.3908     0.0097 C.ar    
   2 C2             0.0021    -0.0041     0.0020 C.ar    
   3 C3            -1.2687    -0.7646     0.0096 C.2     
   4 N4            -2.4254    -0.1219     0.0236 N.2     
   5 C5            -3.5772    -0.7918     0.0301 C.2     
   6 N6            -3.5941    -2.1600     0.0224 N.pl3   
   7 C7            -2.4182    -2.8553     0.0072 C.2     
   8 C8            -1.2477    -2.1758    -0.0041 C.2     
   9 C9            -2.4244    -4.3623    -0.0009 C.3     
  10 C10            1.2223    -0.6799    -0.0133 C.ar    
  11 C11            2.4029     0.0335    -0.0207 C.ar    
  12 C12            2.3782     1.4181    -0.0126 C.ar    
  13 C13            1.1697     2.0941     0.0021 C.ar    
  14 C14           -4.9200    -0.3705     0.0446 C.2     
  15 C15           -5.7136    -1.5292     0.0450 C.2     
  16 N16           -4.9300    -2.5767     0.0320 N.2     
  17 C17           -5.4003     1.0179     0.0569 C.2     
  18 O18           -4.6424     2.1276     0.0560 O.3     
  19 N19           -5.3502     3.1122     0.0675 N.2     
  20 C20           -6.6149     2.7654     0.0768 C.2     
  21 N21           -6.6628     1.4158     0.0651 N.2     
  22 C22           -7.7737     3.6821     0.0919 C.2     
  23 S23           -9.4612     3.1860     0.1054 S.3     
  24 C24           -3.0944    -5.0724     1.1772 C.3     
  25 C25           -3.7710    -5.0622    -0.1951 C.3     
  26 Cl26           3.8678     2.3096    -0.0214 Cl      
  27 C27           -7.7013     5.0285     0.1032 C.2     
  28 C28           -8.9204     5.6714     0.1167 C.2     
  29 C29           -9.9865     4.8643     0.1187 C.2     
  30 S30          -11.6646     5.4013     0.1342 S.o2    
  31 N31          -12.1426     5.5615    -1.4432 N.am    
  32 O32          -12.4238     4.3296     0.6766 O.2     
  33 O33          -11.6620     6.7101     0.6876 O.2     
  34 H34           -0.9588     1.9190     0.0170 H       
  35 H35           -0.3078    -2.7077    -0.0165 H       
  36 H36           -1.5441    -4.8337    -0.4380 H       
  37 H37            1.2427    -1.7597    -0.0189 H       
  38 H38            3.3482    -0.4887    -0.0325 H       
  39 H39            1.1563     3.1740     0.0081 H       
  40 H40           -6.7933    -1.5518     0.0551 H       
  41 H41           -2.6552    -6.0111     1.5148 H       
  42 H42           -3.5307    -4.4495     1.9581 H       
  43 H43           -4.6524    -4.4327    -0.3169 H       
  44 H44           -3.7769    -5.9943    -0.7602 H       
  45 H45           -6.7618     5.5613     0.1022 H       
  46 H46           -9.0081     6.7477     0.1266 H       
  47 H47          -11.5201     5.3656    -2.1609 H       
  48 H48          -13.0450     5.8513    -1.6495 H       
@<TRIPOS>BOND
   1    1    2 ar
   2    1   13 ar
   3    1   34 1
   4    2    3 1
   5    2   10 ar
   6    3    4 2
   7    3    8 1
   8    4    5 1
   9    5    6 1
  10    5   14 2
  11    6    7 1
  12    6   16 1
  13    7    8 2
  14    7    9 1
  15    8   35 1
  16    9   24 1
  17    9   25 1
  18    9   36 1
  19   10   11 ar
  20   10   37 1
  21   11   12 ar
  22   11   38 1
  23   12   13 ar
  24   12   26 1
  25   13   39 1
  26   14   15 1
  27   14   17 1
  28   15   16 2
  29   15   40 1
  30   17   18 1
  31   17   21 2
  32   18   19 1
  33   19   20 2
  34   20   21 1
  35   20   22 1
  36   22   23 1
  37   22   27 2
  38   23   29 1
  39   24   25 1
  40   24   41 1
  41   24   42 1
  42   25   43 1
  43   25   44 1
  44   27   28 1
  45   27   45 1
  46   28   29 2
  47   28   46 1
  48   29   30 1
  49   30   31 am
  50   30   32 2
  51   30   33 2
  52   31   47 1
  53   31   48 1

#	End of record

