#	Name: ASD01911553
#	Creating user name:	WinNT
#	Creation time:	15. 06. 2019 19:58

#	Modifying user name:	WinNT
#	Modification time:	15. 06. 2019 19:58

#	Program:	/corina/corina34_cracker 3.40 0067  02.08.2006

@<TRIPOS>MOLECULE
ASD01911553
  41   43    0    0    0
SMALL
NO_CHARGES


@<TRIPOS>ATOM
   1 N1             0.1838     1.5186     0.7070 N.am    
   2 C2            -0.8185     2.2663     1.4784 C.3     
   3 C3            -0.8079     1.7583     2.9236 C.3     
   4 C4            -1.0139     0.2418     2.9286 C.3     
   5 C5             0.1321    -0.4328     2.1710 C.3     
   6 C6             0.1287     0.0504     0.7128 C.3     
   7 C7             1.1324     2.1674     0.0029 C.2     
   8 C8             1.0979     3.6286    -0.0995 C.2     
   9 C9             2.1776     4.4663    -0.0218 C.2     
  10 S10           -0.3403     4.6157    -0.3520 S.3     
  11 C11            0.6540     6.0691    -0.3218 C.2     
  12 N12            1.9078     5.7354    -0.1413 N.2     
  13 C13            0.1680     7.4073    -0.4754 C.1     
  14 C14           -0.2304     8.5044    -0.6013 C.1     
  15 C15           -0.7164     9.8427    -0.7549 C.ar    
  16 C16            0.1716    10.9219    -0.7131 C.ar    
  17 C17           -0.3040    12.2076    -0.8623 C.ar    
  18 C18           -1.6565    12.4312    -1.0526 C.ar    
  19 C19           -2.5417    11.3682    -1.0952 C.ar    
  20 C20           -2.0806    10.0763    -0.9533 C.ar    
  21 O21            2.0177     1.5395    -0.5479 O.2     
  22 C22            3.5802     3.9565     0.1877 C.3     
  23 O23           -1.0368    -0.2311     4.2768 O.3     
  24 H24           -0.5741     3.3284     1.4626 H       
  25 H25           -1.8056     2.1098     1.0433 H       
  26 H26            0.1498     1.9969     3.3861 H       
  27 H27           -1.6119     2.2364     3.4832 H       
  28 H28           -1.9603     0.0022     2.4438 H       
  29 H29            1.0810    -0.1736     2.6406 H       
  30 H30           -0.0028    -1.5142     2.1950 H       
  31 H31           -0.7813    -0.2884     0.2177 H       
  32 H32            1.0000    -0.3488     0.1935 H       
  33 H33            1.2271    10.7490    -0.5639 H       
  34 H34            0.3806    13.0422    -0.8302 H       
  35 H35           -2.0231    13.4405    -1.1681 H       
  36 H36           -3.5957    11.5507    -1.2437 H       
  37 H37           -2.7726     9.2478    -0.9867 H       
  38 H38            4.0452     3.7644    -0.7792 H       
  39 H39            4.1613     4.7035     0.7284 H       
  40 H40            3.5485     3.0328     0.7655 H       
  41 H41           -1.1641    -1.1864     4.3565 H       
@<TRIPOS>BOND
   1    1    2 1
   2    1    7 am
   3    1    6 1
   4    2    3 1
   5    2   24 1
   6    2   25 1
   7    3    4 1
   8    3   26 1
   9    3   27 1
  10    4    5 1
  11    4   23 1
  12    4   28 1
  13    5    6 1
  14    5   29 1
  15    5   30 1
  16    6   31 1
  17    6   32 1
  18    7    8 1
  19    7   21 2
  20    8    9 2
  21    8   10 1
  22    9   22 1
  23    9   12 1
  24   10   11 1
  25   11   12 2
  26   11   13 1
  27   13   14 3
  28   14   15 1
  29   15   16 ar
  30   15   20 ar
  31   16   17 ar
  32   16   33 1
  33   17   18 ar
  34   17   34 1
  35   18   19 ar
  36   18   35 1
  37   19   20 ar
  38   19   36 1
  39   20   37 1
  40   22   38 1
  41   22   39 1
  42   22   40 1
  43   23   41 1

#	End of record

