#	Name: ASD02590039
#	Creating user name:	WinNT
#	Creation time:	15. 06. 2019 20:25

#	Modifying user name:	WinNT
#	Modification time:	15. 06. 2019 20:25

#	Program:	/corina/corina34_cracker 3.40 0067  02.08.2006

@<TRIPOS>MOLECULE
ASD02590039
  32   34    0    0    0
SMALL
NO_CHARGES


@<TRIPOS>ATOM
   1 C1            -0.0168     1.3879     0.0097 C.ar    
   2 C2             0.0021    -0.0041     0.0020 C.ar    
   3 C3            -1.1769    -0.7182     0.0090 C.ar    
   4 C4            -2.3920    -0.0483     0.0242 C.ar    
   5 C5            -2.4200     1.3579     0.0325 C.ar    
   6 C6            -1.2163     2.0705     0.0305 C.ar    
   7 N7            -3.7120    -0.4597     0.0342 N.pl3   
   8 C8            -4.4871     0.6685     0.0479 C.2     
   9 N9            -3.7218     1.7326     0.0468 N.2     
  10 C10           -5.9651     0.6843     0.0614 C.ar    
  11 C11           -6.6471     1.9061     0.0748 C.ar    
  12 C12           -8.0378     1.9004     0.0874 C.ar    
  13 C13           -8.6930     0.6799     0.0861 C.ar    
  14 C14           -7.9526    -0.4905     0.0725 C.ar    
  15 N15           -6.6373    -0.4613     0.0553 N.ar    
  16 O16           -5.9622     3.0784     0.0760 O.3     
  17 C17           -6.7341     4.2808     0.0901 C.3     
  18 O18            1.1539     2.0794     0.0022 O.3     
  19 C19            2.3600     1.3131    -0.0134 C.3     
  20 H20            0.9465    -0.5278    -0.0098 H       
  21 H21           -1.1550    -1.7980     0.0023 H       
  22 H22           -1.2255     3.1505     0.0368 H       
  23 H23           -4.0294    -1.3763     0.0315 H       
  24 H24           -8.5941     2.8261     0.0983 H       
  25 H25           -9.7723     0.6413     0.0960 H       
  26 H26           -8.4631    -1.4423     0.0718 H       
  27 H27           -7.3706     4.3144    -0.7942 H       
  28 H28           -7.3550     4.3035     0.9857 H       
  29 H29           -6.0657     5.1418     0.0895 H       
  30 H30            2.3995     0.6797     0.8728 H       
  31 H31            2.3825     0.6893    -0.9070 H       
  32 H32            3.2178     1.9856    -0.0180 H       
@<TRIPOS>BOND
   1    1    2 ar
   2    1   18 1
   3    1    6 ar
   4    2    3 ar
   5    2   20 1
   6    3    4 ar
   7    3   21 1
   8    4    5 ar
   9    4    7 1
  10    5    6 ar
  11    5    9 1
  12    6   22 1
  13    7    8 1
  14    7   23 1
  15    8    9 2
  16    8   10 1
  17   10   11 ar
  18   10   15 ar
  19   11   12 ar
  20   11   16 1
  21   12   13 ar
  22   12   24 1
  23   13   14 ar
  24   13   25 1
  25   14   15 ar
  26   14   26 1
  27   16   17 1
  28   17   27 1
  29   17   28 1
  30   17   29 1
  31   18   19 1
  32   19   30 1
  33   19   31 1
  34   19   32 1

#	End of record

