#	Name: ASD01910757
#	Creating user name:	WinNT
#	Creation time:	15. 06. 2019 19:56

#	Modifying user name:	WinNT
#	Modification time:	15. 06. 2019 19:56

#	Program:	/corina/corina34_cracker 3.40 0067  02.08.2006

@<TRIPOS>MOLECULE
ASD01910757
  56   59    0    0    0
SMALL
NO_CHARGES


@<TRIPOS>ATOM
   1 C1            -0.5277     0.8551    -2.3227 C.ar    
   2 C2             0.2037     1.4483    -1.3101 C.ar    
   3 C3             1.4311     0.9294    -0.9476 C.ar    
   4 C4             1.9308    -0.1898    -1.6014 C.ar    
   5 C5             1.1934    -0.7833    -2.6181 C.ar    
   6 C6            -0.0333    -0.2591    -2.9757 C.ar    
   7 N7             3.1720    -0.7170    -1.2376 N.3     
   8 C8             4.1848    -0.4351    -2.2635 C.3     
   9 C9             5.5622    -0.8668    -1.7490 C.3     
  10 N10            5.4825    -2.2724    -1.3235 N.am    
  11 C11            4.4052    -2.6600    -0.4002 C.3     
  12 C12            3.0734    -2.1577    -0.9678 C.3     
  13 C13            6.3727    -3.1814    -1.7682 C.2     
  14 C14            6.2162    -4.6070    -1.4084 C.ar    
  15 O15            7.3042    -2.8292    -2.4652 O.2     
  16 C16            6.3782    -5.5961    -2.3810 C.ar    
  17 C17            6.2330    -6.9285    -2.0474 C.ar    
  18 C18            5.9271    -7.2930    -0.7518 C.ar    
  19 C19            5.7621    -6.3135     0.2325 C.ar    
  20 C20            5.9126    -4.9666    -0.0971 C.ar    
  21 C21            5.4443    -6.6925     1.5764 C.1     
  22 C22            5.1838    -7.0033     2.6782 C.1     
  23 C23            4.8661    -7.3824     4.0220 C.ar    
  24 C24            4.7008    -6.4048     5.0068 C.ar    
  25 C25            4.3944    -6.7774     6.2989 C.ar    
  26 C26            4.2510    -8.1155     6.6212 C.ar    
  27 C27            4.4136    -9.0891     5.6514 C.ar    
  28 C28            4.7140    -8.7312     4.3537 C.ar    
  29 C29            1.7316    -1.9973    -3.3305 C.3     
  30 C30            2.2278     1.5768     0.1557 C.3     
  31 H31           -1.4893     1.2603    -2.6012 H       
  32 H32           -0.1851     2.3187    -0.8025 H       
  33 H33           -0.6073    -0.7202    -3.7658 H       
  34 H34            3.9462    -0.9882    -3.1719 H       
  35 H35            4.1958     0.6332    -2.4799 H       
  36 H36            6.2987    -0.7668    -2.5462 H       
  37 H37            5.8485    -0.2435    -0.9019 H       
  38 H38            4.3768    -3.7455    -0.3056 H       
  39 H39            4.5803    -2.2090     0.5766 H       
  40 H40            2.2783    -2.3387    -0.2445 H       
  41 H41            2.8502    -2.6868    -1.8943 H       
  42 H42            6.6172    -5.3183    -3.3970 H       
  43 H43            6.3591    -7.6888    -2.8040 H       
  44 H44            5.8147    -8.3366    -0.4979 H       
  45 H45            5.7864    -4.2057     0.6588 H       
  46 H46            4.8132    -5.3602     4.7568 H       
  47 H47            4.2664    -6.0230     7.0610 H       
  48 H48            4.0113    -8.4014     7.6347 H       
  49 H49            4.3009   -10.1315     5.9103 H       
  50 H50            4.8407    -9.4922     3.5978 H       
  51 H51            1.4073    -2.8980    -2.8092 H       
  52 H52            1.3559    -2.0145    -4.3536 H       
  53 H53            2.8208    -1.9575    -3.3440 H       
  54 H54            1.9003     1.1847     1.1185 H       
  55 H55            3.2865     1.3585     0.0156 H       
  56 H56            2.0728     2.6554     0.1309 H       
@<TRIPOS>BOND
   1    1    2 ar
   2    1    6 ar
   3    1   31 1
   4    2    3 ar
   5    2   32 1
   6    3    4 ar
   7    3   30 1
   8    4    5 ar
   9    4    7 1
  10    5    6 ar
  11    5   29 1
  12    6   33 1
  13    7    8 1
  14    7   12 1
  15    8    9 1
  16    8   34 1
  17    8   35 1
  18    9   10 1
  19    9   36 1
  20    9   37 1
  21   10   11 1
  22   10   13 am
  23   11   12 1
  24   11   38 1
  25   11   39 1
  26   12   40 1
  27   12   41 1
  28   13   14 1
  29   13   15 2
  30   14   16 ar
  31   14   20 ar
  32   16   17 ar
  33   16   42 1
  34   17   18 ar
  35   17   43 1
  36   18   19 ar
  37   18   44 1
  38   19   20 ar
  39   19   21 1
  40   20   45 1
  41   21   22 3
  42   22   23 1
  43   23   24 ar
  44   23   28 ar
  45   24   25 ar
  46   24   46 1
  47   25   26 ar
  48   25   47 1
  49   26   27 ar
  50   26   48 1
  51   27   28 ar
  52   27   49 1
  53   28   50 1
  54   29   51 1
  55   29   52 1
  56   29   53 1
  57   30   54 1
  58   30   55 1
  59   30   56 1

#	End of record

