#	Name: ASD02508035
#	Creating user name:	WinNT
#	Creation time:	15. 06. 2019 20:23

#	Modifying user name:	WinNT
#	Modification time:	15. 06. 2019 20:23

#	Program:	/corina/corina34_cracker 3.40 0067  02.08.2006

@<TRIPOS>MOLECULE
ASD02508035
  53   55    0    0    0
SMALL
NO_CHARGES


@<TRIPOS>ATOM
   1 S1             0.2250     1.6619    -0.0395 S.o2    
   2 N2             0.0215     0.1457     0.5947 N.am    
   3 C3             0.0329    -0.0643     2.0492 C.3     
   4 C4            -0.1799    -1.0129    -0.2867 C.3     
   5 C5            -1.4788    -1.7191     0.1213 C.3     
   6 N6            -1.4618    -1.9300     1.5756 N.am    
   7 C7            -1.2664    -0.7726     2.4523 C.3     
   8 S8            -1.6664    -3.4460     2.2099 S.o2    
   9 O9            -2.1461    -3.2651     3.5352 O.2     
  10 O10           -2.3624    -4.2013     1.2278 O.2     
  11 C11           -0.2859    -0.5414    -1.7384 C.3     
  12 C12           -2.6779    -0.8475    -0.2572 C.3     
  13 C13            1.9181     1.8097    -0.5046 C.ar    
  14 O14           -0.5268     1.6969    -1.2449 O.2     
  15 O15            0.0215     2.5749     1.0301 O.2     
  16 C16            2.2724     1.7856    -1.8429 C.ar    
  17 C17            3.6017     1.9016    -2.2095 C.ar    
  18 C18            4.5793     2.0421    -1.2357 C.ar    
  19 C19            4.2230     2.0661     0.1046 C.ar    
  20 C20            2.8924     1.9556     0.4682 C.ar    
  21 F21            1.3199     1.6483    -2.7911 F       
  22 F22            2.5449     1.9794     1.7736 F       
  23 O23            5.8852     2.1556    -1.5944 O.3     
  24 C24            6.8379     2.2973    -0.5388 C.3     
  25 C25           -0.0671    -4.1713     2.3542 C.2     
  26 C26            0.7950    -3.7498     3.3847 C.2     
  27 C27            2.1623    -4.3913     3.4838 C.3     
  28 C28            2.5158    -5.4502     2.4629 C.2     
  29 C29            1.6163    -5.7695     1.5289 C.2     
  30 C30            0.3115    -5.1274     1.4778 C.2     
  31 S31            0.3092    -2.5422     4.4968 S.2     
  32 H32            0.8871    -0.6837     2.3227 H       
  33 H33            0.0979     0.8978     2.5573 H       
  34 H34            0.6588    -1.7013    -0.1834 H       
  35 H35           -1.5475    -2.6809    -0.3870 H       
  36 H36           -1.1898    -1.1062     3.4871 H       
  37 H37           -2.1082    -0.0880     2.3474 H       
  38 H38            0.5447     0.1270    -1.9649 H       
  39 H39           -0.2503    -1.4039    -2.4040 H       
  40 H40           -1.2278    -0.0116    -1.8805 H       
  41 H41           -2.6798    -0.6800    -1.3342 H       
  42 H42           -3.5996    -1.3515     0.0337 H       
  43 H43           -2.6087     0.1098     0.2593 H       
  44 H44            3.8778     1.8824    -3.2535 H       
  45 H45            4.9833     2.1751     0.8639 H       
  46 H46            6.6128     3.1959     0.0356 H       
  47 H47            6.7884     1.4264     0.1147 H       
  48 H48            7.8393     2.3778    -0.9617 H       
  49 H49            2.9080    -3.5993     3.4148 H       
  50 H50            2.2492    -4.8400     4.4734 H       
  51 H51            3.4786    -5.9389     2.4887 H       
  52 H52            1.8618    -6.5242     0.7965 H       
  53 H53           -0.3818    -5.4249     0.7050 H       
@<TRIPOS>BOND
   1    1    2 am
   2    1   13 1
   3    1   14 2
   4    1   15 2
   5    2    3 1
   6    2    4 1
   7    3    7 1
   8    3   32 1
   9    3   33 1
  10    4    5 1
  11    4   11 1
  12    4   34 1
  13    5    6 1
  14    5   12 1
  15    5   35 1
  16    6    7 1
  17    6    8 am
  18    7   36 1
  19    7   37 1
  20    8    9 2
  21    8   10 2
  22    8   25 1
  23   11   38 1
  24   11   39 1
  25   11   40 1
  26   12   41 1
  27   12   42 1
  28   12   43 1
  29   13   16 ar
  30   13   20 ar
  31   16   17 ar
  32   16   21 1
  33   17   18 ar
  34   17   44 1
  35   18   19 ar
  36   18   23 1
  37   19   20 ar
  38   19   45 1
  39   20   22 1
  40   23   24 1
  41   24   46 1
  42   24   47 1
  43   24   48 1
  44   25   26 1
  45   25   30 2
  46   26   27 1
  47   26   31 2
  48   27   28 1
  49   27   49 1
  50   27   50 1
  51   28   29 2
  52   28   51 1
  53   29   30 1
  54   29   52 1
  55   30   53 1

#	End of record

