#	Name: ASD01810370
#	Creating user name:	WinNT
#	Creation time:	15. 06. 2019 19:24

#	Modifying user name:	WinNT
#	Modification time:	15. 06. 2019 19:24

#	Program:	/corina/corina34_cracker 3.40 0067  02.08.2006

@<TRIPOS>MOLECULE
ASD01810370
  35   35    0    0    0
SMALL
NO_CHARGES


@<TRIPOS>ATOM
   1 C1             1.0932     0.9644     0.4759 C.ar    
   2 N2             0.9698    -0.1933    -0.1430 N.ar    
   3 C3             2.0209    -0.9154    -0.4794 C.ar    
   4 C4             3.2999    -0.4788    -0.1912 C.ar    
   5 C5             3.4695     0.7342     0.4590 C.ar    
   6 C6             2.3410     1.4654     0.7963 C.ar    
   7 C7             4.8476     1.2452     0.7915 C.3     
   8 C8             4.4954    -1.3107    -0.5783 C.3     
   9 C9             4.7574     2.7090     1.2276 C.3     
  10 C10            4.0344    -2.7177    -0.9640 C.3     
  11 C11            5.4407     0.4101     1.9281 C.3     
  12 C12            5.7441     1.1353    -0.4435 C.3     
  13 C13            5.2042    -0.6620    -1.7690 C.3     
  14 C14            5.4614    -1.3970     0.6051 C.3     
  15 H15            0.2093     1.5299     0.7314 H       
  16 H16            1.8804    -1.8590    -0.9856 H       
  17 H17            2.4357     2.4144     1.3029 H       
  18 H18            4.1187     2.7872     2.1074 H       
  19 H19            5.7542     3.0786     1.4681 H       
  20 H20            4.3349     3.3039     0.4179 H       
  21 H21            3.3462    -2.6562    -1.8070 H       
  22 H22            4.8991    -3.3194    -1.2439 H       
  23 H23            3.5295    -3.1799    -0.1157 H       
  24 H24            5.0912    -0.6189     1.8435 H       
  25 H25            6.5287     0.4307     1.8646 H       
  26 H26            5.1248     0.8236     2.8859 H       
  27 H27            5.4035     1.8386    -1.2034 H       
  28 H28            6.7726     1.3682    -0.1678 H       
  29 H29            5.6947     0.1209    -0.8392 H       
  30 H30            5.1927     0.4217    -1.6523 H       
  31 H31            6.2357    -1.0118    -1.8124 H       
  32 H32            4.6893    -0.9337    -2.6904 H       
  33 H33            4.9238    -1.7414     1.4885 H       
  34 H34            6.2618    -2.0987     0.3703 H       
  35 H35            5.8868    -0.4124     0.7994 H       
@<TRIPOS>BOND
   1    1    2 ar
   2    1    6 ar
   3    1   15 1
   4    2    3 ar
   5    3    4 ar
   6    3   16 1
   7    4    5 ar
   8    4    8 1
   9    5    6 ar
  10    5    7 1
  11    6   17 1
  12    7    9 1
  13    7   11 1
  14    7   12 1
  15    8   10 1
  16    8   13 1
  17    8   14 1
  18    9   18 1
  19    9   19 1
  20    9   20 1
  21   10   21 1
  22   10   22 1
  23   10   23 1
  24   11   24 1
  25   11   25 1
  26   11   26 1
  27   12   27 1
  28   12   28 1
  29   12   29 1
  30   13   30 1
  31   13   31 1
  32   13   32 1
  33   14   33 1
  34   14   34 1
  35   14   35 1

#	End of record

