#	Name: ASD03731632
#	Creating user name:	WinNT
#	Creation time:	15. 06. 2019 20:46

#	Modifying user name:	WinNT
#	Modification time:	15. 06. 2019 20:46

#	Program:	/corina/corina34_cracker 3.40 0067  02.08.2006

@<TRIPOS>MOLECULE
ASD03731632
  42   43    0    0    0
SMALL
NO_CHARGES


@<TRIPOS>ATOM
   1 C1            -0.0251     1.4695    -0.1124 C.2     
   2 C2            -0.0030    -0.0046    -0.0887 C.ar    
   3 C3             0.0529    -0.6864     1.1326 C.ar    
   4 C4             0.0734    -2.0666     1.1494 C.ar    
   5 C5             0.0386    -2.7779    -0.0424 C.ar    
   6 C6            -0.0171    -2.1033    -1.2594 C.ar    
   7 C7            -0.0437    -0.7258    -1.2859 C.ar    
   8 O8             0.0054     2.0948     0.9301 O.2     
   9 N9            -0.0733     2.1239    -1.2896 N.am    
  10 S10           -0.0980     3.7795    -1.3162 S.o2    
  11 O11           -0.1741     4.1068    -2.6969 O.2     
  12 O12           -1.1456     4.1288    -0.4217 O.2     
  13 C13            1.5105     4.2673    -0.6340 C.3     
  14 O14            0.0593    -4.1350    -0.0213 O.3     
  15 C15            1.2617    -4.7565    -0.1411 C.ar    
  16 C16            1.3409    -6.1394    -0.0558 C.ar    
  17 C17            2.5642    -6.7688    -0.1784 C.ar    
  18 C18            3.7096    -6.0220    -0.3856 C.ar    
  19 C19            3.6335    -4.6443    -0.4710 C.ar    
  20 C20            2.4115    -4.0102    -0.3547 C.ar    
  21 C21            0.0932    -6.9537     0.1709 C.3     
  22 C22           -0.1047    -7.9200    -0.9987 C.3     
  23 C23            0.2321    -7.7483     1.4710 C.3     
  24 F24           -0.0503    -2.8008    -2.4160 F       
  25 F25            0.0872     0.0051     2.2927 F       
  26 H26            0.1169    -2.5938     2.0910 H       
  27 H27           -0.0918    -0.2040    -2.2302 H       
  28 H28           -0.0936     1.6252    -2.1213 H       
  29 H29            2.3075     3.8622    -1.2575 H       
  30 H30            1.5820     5.3547    -0.6140 H       
  31 H31            1.6085     3.8780     0.3794 H       
  32 H32            2.6263    -7.8449    -0.1121 H       
  33 H33            4.6653    -6.5160    -0.4805 H       
  34 H34            4.5296    -4.0634    -0.6325 H       
  35 H35            2.3520    -2.9342    -0.4260 H       
  36 H36           -0.7671    -6.2882     0.2420 H       
  37 H37           -0.2036    -7.3539    -1.9249 H       
  38 H38            0.7556    -8.5855    -1.0698 H       
  39 H39           -1.0071    -8.5090    -0.8347 H       
  40 H40            0.3731    -7.0599     2.3043 H       
  41 H41           -0.6703    -8.3373     1.6350 H       
  42 H42            1.0924    -8.4138     1.4000 H       
@<TRIPOS>BOND
   1    1    2 1
   2    1    8 2
   3    1    9 am
   4    2    3 ar
   5    2    7 ar
   6    3    4 ar
   7    3   25 1
   8    4    5 ar
   9    4   26 1
  10    5    6 ar
  11    5   14 1
  12    6    7 ar
  13    6   24 1
  14    7   27 1
  15    9   10 am
  16    9   28 1
  17   10   11 2
  18   10   12 2
  19   10   13 1
  20   13   29 1
  21   13   30 1
  22   13   31 1
  23   14   15 1
  24   15   16 ar
  25   15   20 ar
  26   16   17 ar
  27   16   21 1
  28   17   18 ar
  29   17   32 1
  30   18   19 ar
  31   18   33 1
  32   19   20 ar
  33   19   34 1
  34   20   35 1
  35   21   22 1
  36   21   23 1
  37   21   36 1
  38   22   37 1
  39   22   38 1
  40   22   39 1
  41   23   40 1
  42   23   41 1
  43   23   42 1

#	End of record

