#	Name: ASD01940561
#	Creating user name:	WinNT
#	Creation time:	15. 06. 2019 20:12

#	Modifying user name:	WinNT
#	Modification time:	15. 06. 2019 20:12

#	Program:	/corina/corina34_cracker 3.40 0067  02.08.2006

@<TRIPOS>MOLECULE
ASD01940561
  85   88    0    0    0
SMALL
NO_CHARGES


@<TRIPOS>ATOM
   1 C1            -0.7804    -0.2294     1.0458 C.2     
   2 N2            -0.1171    -0.4340    -0.1095 N.am    
   3 O3            -0.2393    -0.4790     2.1141 O.co2   
   4 O4            -1.9216     0.2106     1.0262 O.co2   
   5 C5             1.1903    -0.9318    -0.0869 C.ar    
   6 C6             1.4143    -2.2904    -0.1214 C.ar    
   7 C7             2.7088    -2.8006    -0.0990 C.ar    
   8 C8             3.7976    -1.9608    -0.0418 C.ar    
   9 C9             3.6027    -0.5654    -0.0057 C.ar    
  10 C10            4.6919     0.3196     0.0530 C.ar    
  11 C11            4.4685     1.6620     0.0866 C.ar    
  12 C12            3.1726     2.1738     0.0636 C.ar    
  13 C13            2.0936     1.3457     0.0070 C.ar    
  14 C14            2.2856    -0.0448    -0.0344 C.ar    
  15 O15            5.0554    -2.4749    -0.0197 O.3     
  16 C16            5.6014    -2.4779     3.4821 C.ar    
  17 N17            5.0323    -2.2863     2.3012 N.ar    
  18 C18            5.6409    -2.6722     1.1862 C.ar    
  19 C19            6.8912    -3.2838     1.2737 C.ar    
  20 C20            7.4506    -3.4652     2.5244 C.ar    
  21 N21            6.7879    -3.0560     3.5958 N.ar    
  22 N22            4.9421    -2.0583     4.6257 N.pl3   
  23 C23            5.4745    -2.3483     5.8862 C.ar    
  24 C24            5.2986    -1.4560     6.9341 C.ar    
  25 C25            5.8278    -1.7423     8.1925 C.ar    
  26 C26            6.5339    -2.9260     8.3969 C.ar    
  27 C27            6.7090    -3.8202     7.3427 C.ar    
  28 C28            6.1724    -3.5302     6.0874 C.ar    
  29 C29            7.4577    -5.0777     7.5551 C.2     
  30 N30            7.9712    -5.3594     8.7690 N.am    
  31 O31            7.6100    -5.8572     6.6350 O.2     
  32 C32            8.7129    -6.6051     8.9794 C.3     
  33 C33            9.1841    -6.6788    10.4332 C.3     
  34 O34            8.0495    -6.7636    11.2979 O.3     
  35 C35            8.3809    -6.8373    12.6860 C.3     
  36 C36            7.0966    -6.9242    13.5130 C.3     
  37 O37            6.4231    -8.1499    13.2195 O.3     
  38 C38            5.2044    -8.3312    13.9434 C.3     
  39 C39            4.5729    -9.6688    13.5520 C.3     
  40 O40            5.4239   -10.7378    13.9706 O.3     
  41 C41            4.9236   -12.0378    13.6515 C.3     
  42 C42            5.6461    -0.8205     9.2732 C.1     
  43 C43            5.4971    -0.0647    10.1591 C.1     
  44 C44           -0.7650    -0.1351    -1.3890 C.3     
  45 C45           -1.1411     1.3472    -1.4362 C.3     
  46 C46            0.1975    -0.4538    -2.5348 C.3     
  47 C47           -2.0281    -0.9866    -1.5322 C.3     
  48 H48            0.5747    -2.9683    -0.1661 H       
  49 H49            2.8609    -3.8694    -0.1266 H       
  50 H50            5.7017    -0.0632     0.0718 H       
  51 H51            5.3078     2.3401     0.1321 H       
  52 H52            3.0221     3.2429     0.0916 H       
  53 H53            1.0948     1.7563    -0.0099 H       
  54 H54            7.4105    -3.6087     0.3842 H       
  55 H55            8.4173    -3.9358     2.6271 H       
  56 H56            4.1112    -1.5632     4.5525 H       
  57 H57            4.7515    -0.5384     6.7751 H       
  58 H58            6.9450    -3.1498     9.3702 H       
  59 H59            6.3041    -4.2246     5.2708 H       
  60 H60            7.8497    -4.7373     9.5033 H       
  61 H61            8.0648    -7.4547     8.7640 H       
  62 H62            9.5772    -6.6300     8.3157 H       
  63 H63            9.8103    -7.5607    10.5680 H       
  64 H64            9.7588    -5.7846    10.6746 H       
  65 H65            8.9905    -7.7225    12.8675 H       
  66 H66            8.9390    -5.9465    12.9741 H       
  67 H67            7.3447    -6.8910    14.5739 H       
  68 H68            6.4474    -6.0845    13.2652 H       
  69 H69            5.4132    -8.3271    15.0132 H       
  70 H70            4.5159    -7.5207    13.7045 H       
  71 H71            3.6012    -9.7671    14.0359 H       
  72 H72            4.4458    -9.7078    12.4702 H       
  73 H73            5.6265   -12.7936    14.0020 H       
  74 H74            3.9592   -12.1853    14.1374 H       
  75 H75            4.8038   -12.1260    12.5717 H       
  76 H76            5.3638     0.6112    10.9515 H       
  77 H77           -0.2413     1.9538    -1.3342 H       
  78 H78           -1.6232     1.5696    -2.3882 H       
  79 H79           -1.8268     1.5742    -0.6199 H       
  80 H80            0.4654    -1.5098    -2.5012 H       
  81 H81           -0.2846    -0.2314    -3.4868 H       
  82 H82            1.0973     0.1528    -2.4328 H       
  83 H83           -2.7138    -0.7595    -0.7159 H       
  84 H84           -2.5102    -0.7642    -2.4841 H       
  85 H85           -1.7602    -2.0426    -1.4985 H       
@<TRIPOS>BOND
   1    1    2 am
   2    1    3 ar
   3    1    4 ar
   4    2    5 1
   5    2   44 1
   6    5    6 ar
   7    5   14 ar
   8    6    7 ar
   9    6   48 1
  10    7    8 ar
  11    7   49 1
  12    8    9 ar
  13    8   15 1
  14    9   10 ar
  15    9   14 ar
  16   10   11 ar
  17   10   50 1
  18   11   12 ar
  19   11   51 1
  20   12   13 ar
  21   12   52 1
  22   13   14 ar
  23   13   53 1
  24   15   18 1
  25   16   17 ar
  26   16   21 ar
  27   16   22 1
  28   17   18 ar
  29   18   19 ar
  30   19   20 ar
  31   19   54 1
  32   20   21 ar
  33   20   55 1
  34   22   23 1
  35   22   56 1
  36   23   24 ar
  37   23   28 ar
  38   24   25 ar
  39   24   57 1
  40   25   26 ar
  41   25   42 1
  42   26   27 ar
  43   26   58 1
  44   27   28 ar
  45   27   29 1
  46   28   59 1
  47   29   30 am
  48   29   31 2
  49   30   32 1
  50   30   60 1
  51   32   33 1
  52   32   61 1
  53   32   62 1
  54   33   34 1
  55   33   63 1
  56   33   64 1
  57   34   35 1
  58   35   36 1
  59   35   65 1
  60   35   66 1
  61   36   37 1
  62   36   67 1
  63   36   68 1
  64   37   38 1
  65   38   39 1
  66   38   69 1
  67   38   70 1
  68   39   40 1
  69   39   71 1
  70   39   72 1
  71   40   41 1
  72   41   73 1
  73   41   74 1
  74   41   75 1
  75   42   43 3
  76   43   76 1
  77   44   45 1
  78   44   47 1
  79   44   46 1
  80   45   77 1
  81   45   78 1
  82   45   79 1
  83   46   80 1
  84   46   81 1
  85   46   82 1
  86   47   83 1
  87   47   84 1
  88   47   85 1

#	End of record

