#	Name: ASD02320071
#	Creating user name:	WinNT
#	Creation time:	15. 06. 2019 20:20

#	Modifying user name:	WinNT
#	Modification time:	15. 06. 2019 20:20

#	Program:	/corina/corina34_cracker 3.40 0067  02.08.2006

@<TRIPOS>MOLECULE
ASD02320071
  94   92    0    0    0
SMALL
NO_CHARGES


@<TRIPOS>ATOM
   1 C1            -0.0164     1.3560     0.0095 C.2     
   2 C2             0.0021    -0.0041     0.0020 C.2     
   3 O3             1.1438    -0.7103    -0.0122 O.3     
   4 C4             2.3572    -0.1189    -0.0208 C.ar    
   5 C5             1.2051     2.0703     0.0017 C.2     
   6 C6            -1.2815    -0.7309     0.0104 C.ar    
   7 C7            -1.2955    -2.1285     0.0030 C.ar    
   8 C8            -2.4962    -2.8031     0.0113 C.ar    
   9 C9            -3.6926    -2.0962     0.0270 C.ar    
  10 C10           -3.6833    -0.7066     0.0344 C.ar    
  11 C11           -2.4871    -0.0240     0.0315 C.ar    
  12 C12            3.5166    -0.8781    -0.0361 C.ar    
  13 C13            4.7548    -0.2541    -0.0452 C.ar    
  14 C14            4.8494     1.1330    -0.0384 C.ar    
  15 C15            3.7038     1.9073    -0.0232 C.ar    
  16 C16            2.4501     1.2838    -0.0145 C.ar    
  17 O17           -4.8740    -2.7652     0.0347 O.3     
  18 S18           -5.3991    -3.0781     1.4285 S.o2    
  19 O19           -6.4411    -4.0806     1.2689 O.co2   
  20 O20           -4.2717    -3.5804     2.1985 O.co2   
  21 O21           -5.9187    -1.8322     1.9705 O.co2   
  22 O22            1.2260     3.2906     0.0081 O.2     
  23 O23            3.7939     3.2614    -0.0161 O.3     
  24 O24            5.8857    -1.0049    -0.0602 O.3     
  25 S25            6.3877    -1.3401    -1.4574 S.o2    
  26 O26            7.3559    -2.4154    -1.3085 O.co2   
  27 O27            5.2277    -1.7533    -2.2319 O.co2   
  28 O28            6.9943    -0.1287    -1.9870 O.co2   
  29 O29            3.4257     8.3153    -2.8923 O.3     
  30 C30            3.1885     8.9814    -4.0506 C.ar    
  31 C31            1.8755     9.1750    -4.4969 C.ar    
  32 C32            4.2416     9.4792    -4.7961 C.ar    
  33 C33            3.9963    10.1622    -5.9820 C.ar    
  34 C34            2.6989    10.3529    -6.4325 C.ar    
  35 C35            1.6304     9.8655    -5.6966 C.ar    
  36 C36           -0.5659     8.9075    -4.2585 C.2     
  37 C37            0.7249     8.6661    -3.7314 C.2     
  38 O38            0.3609    10.0460    -6.1187 O.3     
  39 C39           -0.6958     9.5864    -5.4300 C.2     
  40 C40           -2.0496     9.8278    -5.9636 C.ar    
  41 C41           -2.2159    10.5223    -7.1652 C.ar    
  42 C42           -3.4817    10.7450    -7.6600 C.ar    
  43 C43           -4.5928    10.2804    -6.9664 C.ar    
  44 C44           -4.4321     9.5895    -5.7714 C.ar    
  45 C45           -3.1697     9.3577    -5.2720 C.ar    
  46 O46            0.8786     8.0594    -2.6837 O.2     
  47 O47            5.0372    10.6476    -6.7058 O.3     
  48 O48           -5.8388    10.5026    -7.4575 O.3     
  49 S49           -6.3440     9.4054    -8.3835 S.o2    
  50 S50            5.5808     9.6717    -7.7396 S.o2    
  51 O51           -7.4939     9.9488    -9.0895 O.co2   
  52 O52           -5.2508     9.0830    -9.2873 O.co2   
  53 O53           -6.7050     8.2772    -7.5391 O.co2   
  54 O54            6.8766    10.1830    -8.1584 O.co2   
  55 O55            5.6909     8.3799    -7.0798 O.co2   
  56 O56            4.6242     9.6454    -8.8352 O.co2   
  57 C57            5.1074     3.8243    -0.0252 C.3     
  58 C58            4.7911     8.1629    -2.4994 C.3     
  59 C59            5.0096     5.3281    -0.0155 C.ar    
  60 C60            4.9477     6.0244    -1.2081 C.ar    
  61 C61            4.9760     6.0108     1.1860 C.ar    
  62 C62            4.8863     7.3902     1.1949 C.ar    
  63 C63            4.8307     8.0869     0.0022 C.ar    
  64 C64            4.8580     7.4038    -1.1992 C.ar    
  65 H65           -0.9568     1.8870     0.0168 H       
  66 H66           -0.3662    -2.6786    -0.0096 H       
  67 H67           -2.5080    -3.8831     0.0053 H       
  68 H68           -4.6153    -0.1611     0.0462 H       
  69 H69           -2.4806     1.0560     0.0418 H       
  70 H70            3.4555    -1.9563    -0.0408 H       
  71 H71            5.8199     1.6068    -0.0448 H       
  72 H72            5.2568     9.3374    -4.4562 H       
  73 H73            2.5206    10.8853    -7.3550 H       
  74 H74           -1.4419     8.5543    -3.7348 H       
  75 H75           -1.3530    10.8839    -7.7046 H       
  76 H76           -3.6111    11.2819    -8.5881 H       
  77 H77           -5.2983     9.2305    -5.2354 H       
  78 H78           -3.0455     8.8167    -4.3456 H       
  79 H79            5.6520     3.4899     0.8577 H       
  80 H80            5.6353     3.5003    -0.9221 H       
  81 H81            5.3316     7.6126    -3.2696 H       
  82 H82            5.2438     9.1459    -2.3698 H       
  83 H83            4.9699     5.4907    -2.1468 H       
  84 H84            5.0194     5.4665     2.1178 H       
  85 H85            4.8594     7.9236     2.1336 H       
  86 H86            4.7603     9.1646     0.0091 H       
  87 Na87          12.3559    16.2819     7.1985 Du      
  88 Na88          17.3559    21.2819    12.1985 Du      
  89 Na89          22.3559    26.2819    17.1985 Du      
  90 Na90          27.3559    31.2819    22.1985 Du      
  91 Na91          32.3559    36.2819    27.1985 Du      
  92 Na92          37.3559    41.2819    32.1985 Du      
  93 Na93          42.3559    46.2819    37.1985 Du      
  94 Na94          47.3559    51.2819    42.1985 Du      
@<TRIPOS>BOND
   1    1    2 2
   2    1    5 1
   3    1   65 1
   4    2    3 1
   5    2    6 1
   6    3    4 1
   7    4   12 ar
   8    4   16 ar
   9    5   22 2
  10    5   16 1
  11    6    7 ar
  12    6   11 ar
  13    7    8 ar
  14    7   66 1
  15    8    9 ar
  16    8   67 1
  17    9   10 ar
  18    9   17 1
  19   10   11 ar
  20   10   68 1
  21   11   69 1
  22   12   13 ar
  23   12   70 1
  24   13   14 ar
  25   13   24 1
  26   14   15 ar
  27   14   71 1
  28   15   16 ar
  29   15   23 1
  30   17   18 1
  31   18   19 ar
  32   18   20 ar
  33   18   21 ar
  34   23   57 1
  35   24   25 1
  36   25   26 ar
  37   25   27 ar
  38   25   28 ar
  39   29   30 1
  40   29   58 1
  41   30   32 ar
  42   30   31 ar
  43   31   35 ar
  44   31   37 1
  45   32   33 ar
  46   32   72 1
  47   33   34 ar
  48   33   47 1
  49   34   35 ar
  50   34   73 1
  51   35   38 1
  52   36   37 1
  53   36   39 2
  54   36   74 1
  55   37   46 2
  56   38   39 1
  57   39   40 1
  58   40   41 ar
  59   40   45 ar
  60   41   42 ar
  61   41   75 1
  62   42   43 ar
  63   42   76 1
  64   43   44 ar
  65   43   48 1
  66   44   45 ar
  67   44   77 1
  68   45   78 1
  69   47   50 1
  70   48   49 1
  71   49   51 ar
  72   49   52 ar
  73   49   53 ar
  74   50   54 ar
  75   50   55 ar
  76   50   56 ar
  77   57   59 1
  78   57   79 1
  79   57   80 1
  80   58   64 1
  81   58   81 1
  82   58   82 1
  83   59   61 ar
  84   59   60 ar
  85   60   64 ar
  86   60   83 1
  87   61   62 ar
  88   61   84 1
  89   62   63 ar
  90   62   85 1
  91   63   64 ar
  92   63   86 1

#	End of record

