#	Name: ASD01948347
#	Creating user name:	WinNT
#	Creation time:	15. 06. 2019 20:14

#	Modifying user name:	WinNT
#	Modification time:	15. 06. 2019 20:14

#	Program:	/corina/corina34_cracker 3.40 0067  02.08.2006

@<TRIPOS>MOLECULE
ASD01948347
  60   62    0    0    0
SMALL
NO_CHARGES


@<TRIPOS>ATOM
   1 C1             0.3009     0.9575     0.7063 C.2     
   2 N2             0.1940    -0.3998     0.7953 N.am    
   3 C3             1.2879    -1.1802     0.8660 C.2     
   4 C4             2.6874     0.7686     0.7592 C.2     
   5 C5             1.5143     1.5572     0.6867 C.2     
   6 C6             3.5337     2.1783    -1.4961 C.ar    
   7 C7             4.3361     2.1249    -0.3647 C.ar    
   8 N8             3.9394     1.3651     0.7409 N.pl3   
   9 C9             3.9282     2.9293    -2.5868 C.ar    
  10 C10            5.1212     3.6279    -2.5533 C.ar    
  11 C11            5.9246     3.5777    -1.4277 C.ar    
  12 C12            5.5360     2.8284    -0.3329 C.ar    
  13 N13            1.6088     2.9554     0.5942 N.am    
  14 S14            0.2338     3.8744     0.5096 S.o2    
  15 C15           -0.5750     3.6278     2.1145 C.3     
  16 O16            1.1658    -2.3937     0.9447 O.2     
  17 C17           -1.1341    -1.0179     0.8147 C.3     
  18 F18            6.3202     2.7794     0.7662 F       
  19 I19            5.7137     4.7646    -4.2103 I       
  20 O20            0.7102     5.2078     0.3909 O.2     
  21 O21           -0.5264     3.2728    -0.5295 O.2     
  22 C22            2.5652    -0.6078     0.8492 C.2     
  23 F23            3.6653    -1.3886     0.9205 F       
  24 C24           -1.8952     4.3610     2.3603 C.3     
  25 C25           -1.8915     2.8485     2.1299 C.3     
  26 C26            0.3664     3.4488     3.3072 C.3     
  27 C27            1.1433     4.7457     3.5430 C.3     
  28 O28            0.2341     5.7859     3.9083 O.3     
  29 O29           -1.6819    -1.0114    -0.5051 O.3     
  30 C30           -1.1410    -2.0175    -1.3638 C.3     
  31 C31           -1.8838    -1.9996    -2.7013 C.3     
  32 C32           -1.3047    -3.0768    -3.6207 C.3     
  33 C33            2.1569     4.5354     4.6695 C.3     
  34 O34            2.9613     5.7080     4.8116 O.3     
  35 H35           -0.5932     1.5603     0.6464 H       
  36 H36            2.6039     1.6298    -1.5255 H       
  37 H37            4.5400     1.2553     1.4946 H       
  38 H38            3.3039     2.9705    -3.4672 H       
  39 H39            6.8559     4.1241    -1.4046 H       
  40 H40            2.4794     3.3828     0.5800 H       
  41 H41           -1.0515    -2.0455     1.1688 H       
  42 H42           -1.7871    -0.4551     1.4819 H       
  43 H43           -2.0932     4.7155     3.3719 H       
  44 H44           -2.2777     4.9915     1.5577 H       
  45 H45           -2.2717     2.4839     1.1756 H       
  46 H46           -2.0871     2.2079     2.9898 H       
  47 H47           -0.2157     3.2072     4.1965 H       
  48 H48            1.0658     2.6390     3.0997 H       
  49 H49            1.6680     5.0260     2.6297 H       
  50 H50           -0.2686     5.6038     4.7141 H       
  51 H51           -0.0826    -1.8198    -1.5333 H       
  52 H52           -1.2577    -2.9952    -0.8964 H       
  53 H53           -2.9422    -2.1973    -2.5317 H       
  54 H54           -1.7671    -1.0219    -3.1687 H       
  55 H55           -0.2463    -2.8791    -3.7902 H       
  56 H56           -1.4214    -4.0545    -3.1533 H       
  57 H57           -1.8339    -3.0641    -4.5735 H       
  58 H58            1.6280     4.3424     5.6029 H       
  59 H59            2.7945     3.6843     4.4305 H       
  60 H60            3.6276     5.6457     5.5095 H       
@<TRIPOS>BOND
   1    1    2 1
   2    1    5 2
   3    1   35 1
   4    2    3 am
   5    2   17 1
   6    3   22 1
   7    3   16 2
   8    4    5 1
   9    4    8 1
  10    4   22 2
  11    5   13 1
  12    6    7 ar
  13    6    9 ar
  14    6   36 1
  15    7    8 1
  16    7   12 ar
  17    8   37 1
  18    9   10 ar
  19    9   38 1
  20   10   11 ar
  21   10   19 1
  22   11   12 ar
  23   11   39 1
  24   12   18 1
  25   13   14 am
  26   13   40 1
  27   14   15 1
  28   14   20 2
  29   14   21 2
  30   15   24 1
  31   15   26 1
  32   15   25 1
  33   17   29 1
  34   17   41 1
  35   17   42 1
  36   22   23 1
  37   24   25 1
  38   24   43 1
  39   24   44 1
  40   25   45 1
  41   25   46 1
  42   26   27 1
  43   26   47 1
  44   26   48 1
  45   27   28 1
  46   27   33 1
  47   27   49 1
  48   28   50 1
  49   29   30 1
  50   30   31 1
  51   30   51 1
  52   30   52 1
  53   31   32 1
  54   31   53 1
  55   31   54 1
  56   32   55 1
  57   32   56 1
  58   32   57 1
  59   33   34 1
  60   33   58 1
  61   33   59 1
  62   34   60 1

#	End of record

