#	Name: ASD05303052
#	Creating user name:	WinNT
#	Creation time:	15. 06. 2019 20:58

#	Modifying user name:	WinNT
#	Modification time:	15. 06. 2019 20:58

#	Program:	/corina/corina34_cracker 3.40 0067  02.08.2006

@<TRIPOS>MOLECULE
ASD05303052
  34   36    0    0    0
SMALL
NO_CHARGES


@<TRIPOS>ATOM
   1 C1             0.0539     1.4201    -0.2934 C.ar    
   2 C2             0.1030     0.0546    -0.5022 C.ar    
   3 C3             1.2974    -0.6266    -0.3529 C.ar    
   4 C4             2.4443     0.0622     0.0062 C.ar    
   5 C5             2.3982     1.4381     0.2146 C.ar    
   6 C6             1.1960     2.1125     0.0641 C.ar    
   7 O7             3.5178     2.1275     0.5588 O.3     
   8 N8             3.6596    -0.6266     0.1654 N.am    
   9 C9             3.6936    -1.9715     0.2463 C.2     
  10 O10            2.6651    -2.5963     0.4205 O.2     
  11 C11            4.6045     1.3925     1.1265 C.3     
  12 C12            4.8945     0.1729     0.2401 C.3     
  13 N13            4.8676    -2.6239     0.1343 N.am    
  14 C14            4.9903    -4.0360     0.5298 C.3     
  15 C15            5.6483    -4.8051    -0.6215 C.3     
  16 O16            6.8585    -4.1439    -0.9983 O.3     
  17 C17            6.6701    -2.8164    -1.4943 C.3     
  18 C18            6.0631    -1.9470    -0.3930 C.3     
  19 H19           -0.8798     1.9493    -0.4142 H       
  20 H20           -0.7922    -0.4809    -0.7820 H       
  21 H21            1.3357    -1.6936    -0.5156 H       
  22 H22            1.1518     3.1793     0.2262 H       
  23 H23            5.4891     2.0275     1.1750 H       
  24 H24            4.3360     1.0597     2.1292 H       
  25 H25            5.6945    -0.4224     0.6803 H       
  26 H26            5.1833     0.5016    -0.7582 H       
  27 H27            5.6083    -4.1143     1.4242 H       
  28 H28            4.0013    -4.4487     0.7291 H       
  29 H29            5.8740    -5.8213    -0.2983 H       
  30 H30            4.9695    -4.8357    -1.4738 H       
  31 H31            7.6310    -2.4018    -1.7990 H       
  32 H32            5.9950    -2.8397    -2.3498 H       
  33 H33            5.7860    -0.9757    -0.8028 H       
  34 H34            6.7873    -1.8138     0.4107 H       
@<TRIPOS>BOND
   1    1    2 ar
   2    1    6 ar
   3    1   19 1
   4    2    3 ar
   5    2   20 1
   6    3    4 ar
   7    3   21 1
   8    4    5 ar
   9    4    8 1
  10    5    6 ar
  11    5    7 1
  12    6   22 1
  13    7   11 1
  14    8    9 am
  15    8   12 1
  16    9   10 2
  17    9   13 am
  18   11   12 1
  19   11   23 1
  20   11   24 1
  21   12   25 1
  22   12   26 1
  23   13   14 1
  24   13   18 1
  25   14   15 1
  26   14   27 1
  27   14   28 1
  28   15   16 1
  29   15   29 1
  30   15   30 1
  31   16   17 1
  32   17   18 1
  33   17   31 1
  34   17   32 1
  35   18   33 1
  36   18   34 1

#	End of record

