#	Name: ASD01209036
#	Creating user name:	WinNT
#	Creation time:	15. 06. 2019 19:10

#	Modifying user name:	WinNT
#	Modification time:	15. 06. 2019 19:10

#	Program:	/corina/corina34_cracker 3.40 0067  02.08.2006

@<TRIPOS>MOLECULE
ASD01209036
  60   64    0    0    0
SMALL
NO_CHARGES


@<TRIPOS>ATOM
   1 C1            -2.2073     1.6116    -0.9277 C.3     
   2 C2            -2.1674     0.0890    -1.0902 C.3     
   3 C3            -1.4179    -0.2563    -2.3807 C.3     
   4 C4            -2.1043     0.4361    -3.5610 C.3     
   5 C5            -2.8632     2.2319    -2.1641 C.3     
   6 C6            -1.4431    -0.5344     0.1047 C.3     
   7 C7            -1.5300    -2.0593     0.0149 C.3     
   8 C8            -0.7065    -2.6752     1.1166 C.2     
   9 O9            -1.2489    -3.3085     1.9974 O.2     
  10 N10           -2.9267    -2.4780     0.1568 N.pl3   
  11 C11           -3.6572    -3.1768    -0.7718 C.ar    
  12 C12           -4.9405    -3.3603    -0.2186 C.ar    
  13 C13           -4.9288    -2.7468     1.0564 C.2     
  14 N14           -3.7478    -2.2407     1.2657 N.2     
  15 N15            0.6325    -2.5222     1.1230 N.am    
  16 C16           -3.3723    -3.6807    -2.0342 C.ar    
  17 C17           -4.3580    -4.3625    -2.7408 C.ar    
  18 C18           -5.6330    -4.5406    -2.1824 C.ar    
  19 C19           -5.9209    -4.0507    -0.9463 C.ar    
  20 S20           -7.5265    -4.2834    -0.2590 S.o2    
  21 O21           -7.9245    -2.9821     0.1502 O.2     
  22 O22           -8.2410    -4.9847    -1.2674 O.2     
  23 C23           -7.2515    -5.3481     1.1837 C.3     
  24 C24           -8.4846    -5.8384     1.9452 C.3     
  25 C25           -7.6860    -6.8110     1.0751 C.3     
  26 C26            1.4083    -3.1798     2.0875 C.2     
  27 C27            0.9244    -4.0235     3.1001 C.2     
  28 C28            1.9837    -4.4576     3.8199 C.2     
  29 N29            3.0976    -3.9124     3.2873 N.pl3   
  30 N30            2.7144    -3.1190     2.1984 N.2     
  31 O31           -2.1352     1.8463    -3.3319 O.3     
  32 C32            4.4683    -4.1190     3.7615 C.3     
  33 C33           -4.0705    -4.8840    -4.0431 C.1     
  34 N34           -3.8424    -5.2977    -5.0762 N.1     
  35 H35           -2.7865     1.8682    -0.0407 H       
  36 H36           -1.1917     1.9936    -0.8238 H       
  37 H37           -3.1846    -0.2988    -1.1444 H       
  38 H38           -0.3864     0.0879    -2.3061 H       
  39 H39           -1.4326    -1.3356    -2.5328 H       
  40 H40           -1.5502     0.2286    -4.4764 H       
  41 H41           -3.1231     0.0615    -3.6598 H       
  42 H42           -3.8919     1.8807    -2.2447 H       
  43 H43           -2.8557     3.3180    -2.0733 H       
  44 H44           -0.3968    -0.2289     0.0951 H       
  45 H45           -1.9115    -0.1977     1.0296 H       
  46 H46           -1.1483    -2.3887    -0.9515 H       
  47 H47           -5.7607    -2.7085     1.7439 H       
  48 H48            1.0593    -1.9570     0.4603 H       
  49 H49           -2.3914    -3.5439    -2.4650 H       
  50 H50           -6.3918    -5.0712    -2.7384 H       
  51 H51           -6.3549    -5.1308     1.7642 H       
  52 H52           -8.3991    -5.9440     3.0267 H       
  53 H53           -9.4611    -5.5212     1.5793 H       
  54 H54           -8.1372    -7.1338     0.1368 H       
  55 H55           -7.0752    -7.5566     1.5842 H       
  56 H56           -0.1102    -4.2802     3.2734 H       
  57 H57            1.9453    -5.1223     4.6703 H       
  58 H58            4.9036    -4.9783     3.2513 H       
  59 H59            5.0637    -3.2309     3.5498 H       
  60 H60            4.4574    -4.3016     4.8360 H       
@<TRIPOS>BOND
   1    1    2 1
   2    1    5 1
   3    1   35 1
   4    1   36 1
   5    2    3 1
   6    2    6 1
   7    2   37 1
   8    3    4 1
   9    3   38 1
  10    3   39 1
  11    4   31 1
  12    4   40 1
  13    4   41 1
  14    5   31 1
  15    5   42 1
  16    5   43 1
  17    6    7 1
  18    6   44 1
  19    6   45 1
  20    7    8 1
  21    7   10 1
  22    7   46 1
  23    8    9 2
  24    8   15 am
  25   10   11 1
  26   10   14 1
  27   11   12 ar
  28   11   16 ar
  29   12   13 1
  30   12   19 ar
  31   13   14 2
  32   13   47 1
  33   15   26 1
  34   15   48 1
  35   16   17 ar
  36   16   49 1
  37   17   18 ar
  38   17   33 1
  39   18   19 ar
  40   18   50 1
  41   19   20 1
  42   20   21 2
  43   20   22 2
  44   20   23 1
  45   23   24 1
  46   23   25 1
  47   23   51 1
  48   24   25 1
  49   24   52 1
  50   24   53 1
  51   25   54 1
  52   25   55 1
  53   26   27 1
  54   26   30 2
  55   27   28 2
  56   27   56 1
  57   28   29 1
  58   28   57 1
  59   29   30 1
  60   29   32 1
  61   32   58 1
  62   32   59 1
  63   32   60 1
  64   33   34 3

#	End of record

