#	Name: ASD01148582
#	Creating user name:	WinNT
#	Creation time:	15. 06. 2019 19:02

#	Modifying user name:	WinNT
#	Modification time:	15. 06. 2019 19:02

#	Program:	/corina/corina34_cracker 3.40 0067  02.08.2006

@<TRIPOS>MOLECULE
ASD01148582
  64   68    0    0    0
SMALL
NO_CHARGES


@<TRIPOS>ATOM
   1 C1            -0.0644     0.5057     0.5965 C.ar    
   2 C2            -0.3254    -0.8527     0.6109 C.ar    
   3 C3            -1.6225    -1.3086     0.4671 C.ar    
   4 C4            -2.6585    -0.4074     0.3089 C.ar    
   5 C5            -2.3983     0.9504     0.2944 C.ar    
   6 C6            -1.1027     1.4075     0.4433 C.ar    
   7 C7            -3.5284     1.9323     0.1219 C.3     
   8 O8            -4.7479     1.4218     0.6978 O.3     
   9 C9            -3.2892     3.2060     0.9672 C.3     
  10 C10           -4.0366     2.8956     2.2502 C.2     
  11 N11           -4.8231     1.8944     2.0282 N.2     
  12 C12           -3.8903     3.6114     3.5291 C.ar    
  13 C13           -4.6756     3.2060     4.6924 C.ar    
  14 C14           -3.0013     4.6718     3.6384 C.ar    
  15 C15           -2.8434     5.3615     4.8272 C.ar    
  16 C16           -3.5675     5.0227     5.9625 C.ar    
  17 C17           -4.5144     3.9113     5.9084 C.ar    
  18 C18           -3.3778     5.7751     7.2149 C.2     
  19 O19           -2.8494     5.2411     8.1707 O.2     
  20 N20           -3.7902     7.0554     7.3009 N.am    
  21 C21           -5.2655     3.5342     7.0287 C.ar    
  22 C22           -5.5801     2.1384     4.6294 C.ar    
  23 C23           -3.7249     2.2828    -1.3544 C.3     
  24 F24           -4.0084     1.1185    -2.0764 F       
  25 F25           -4.7891     3.1818    -1.4826 F       
  26 F26           -2.5568     2.8685    -1.8541 F       
  27 Cl27           1.5641     1.0790     0.7776 Cl      
  28 C28           -3.6881     7.7738     8.5735 C.3     
  29 C29           -2.3506     8.4635     8.6551 C.ar    
  30 N30           -1.2990     7.7967     9.0888 N.ar    
  31 C31           -4.2964     7.6746     6.2162 C.2     
  32 C32           -0.1093     8.3591     9.1770 C.ar    
  33 C33            0.0770     9.6795     8.8147 C.ar    
  34 C34           -1.0058    10.4130     8.3538 C.ar    
  35 C35           -2.2394     9.7861     8.2692 C.ar    
  36 O36           -4.2989     7.1103     5.1405 O.2     
  37 O37           -4.7994     8.9184     6.3248 O.3     
  38 C38           -5.3277     9.5237     5.1154 C.3     
  39 C39           -6.2925     1.7932     5.7393 C.ar    
  40 C40           -6.1376     2.4905     6.9344 C.ar    
  41 C41           -1.9069    -2.7884     0.4823 C.3     
  42 F42           -0.7097    -3.4917     0.6531 F       
  43 F43           -2.7767    -3.0853     1.5371 F       
  44 F44           -2.4985    -3.1621    -0.7292 F       
  45 H45            0.4841    -1.5569     0.7341 H       
  46 H46           -3.6717    -0.7641     0.1962 H       
  47 H47           -0.8995     2.4682     0.4319 H       
  48 H48           -2.2262     3.3465     1.1629 H       
  49 H49           -3.7123     4.0819     0.4753 H       
  50 H50           -2.4199     4.9646     2.7766 H       
  51 H51           -2.1414     6.1810     4.8733 H       
  52 H52           -5.1542     4.0667     7.9617 H       
  53 H53           -5.7126     1.5923     3.7071 H       
  54 H54           -4.4840     8.5159     8.6367 H       
  55 H55           -3.7835     7.0675     9.3982 H       
  56 H56            0.7290     7.7810     9.5369 H       
  57 H57            1.0536    10.1345     8.8899 H       
  58 H58           -0.8900    11.4469     8.0639 H       
  59 H59           -3.1043    10.3268     7.9143 H       
  60 H60           -5.7004    10.5227     5.3419 H       
  61 H61           -4.5373     9.5917     4.3678 H       
  62 H62           -6.1421     8.9113     4.7284 H       
  63 H63           -6.9897     0.9699     5.6897 H       
  64 H64           -6.7161     2.2002     7.7990 H       
@<TRIPOS>BOND
   1    1    2 ar
   2    1   27 1
   3    1    6 ar
   4    2    3 ar
   5    2   45 1
   6    3    4 ar
   7    3   41 1
   8    4    5 ar
   9    4   46 1
  10    5    6 ar
  11    5    7 1
  12    6   47 1
  13    7    8 1
  14    7    9 1
  15    7   23 1
  16    8   11 1
  17    9   10 1
  18    9   48 1
  19    9   49 1
  20   10   11 2
  21   10   12 1
  22   12   13 ar
  23   12   14 ar
  24   13   22 ar
  25   13   17 ar
  26   14   15 ar
  27   14   50 1
  28   15   16 ar
  29   15   51 1
  30   16   17 ar
  31   16   18 1
  32   17   21 ar
  33   18   19 2
  34   18   20 am
  35   20   28 1
  36   20   31 am
  37   21   40 ar
  38   21   52 1
  39   22   39 ar
  40   22   53 1
  41   23   24 1
  42   23   25 1
  43   23   26 1
  44   28   29 1
  45   28   54 1
  46   28   55 1
  47   29   30 ar
  48   29   35 ar
  49   30   32 ar
  50   31   36 2
  51   31   37 1
  52   32   33 ar
  53   32   56 1
  54   33   34 ar
  55   33   57 1
  56   34   35 ar
  57   34   58 1
  58   35   59 1
  59   37   38 1
  60   38   60 1
  61   38   61 1
  62   38   62 1
  63   39   40 ar
  64   39   63 1
  65   40   64 1
  66   41   42 1
  67   41   43 1
  68   41   44 1

#	End of record

