#	Name: ASD02690027
#	Creating user name:	WinNT
#	Creation time:	15. 06. 2019 20:26

#	Modifying user name:	WinNT
#	Modification time:	15. 06. 2019 20:26

#	Program:	/corina/corina34_cracker 3.40 0067  02.08.2006

@<TRIPOS>MOLECULE
ASD02690027
  54   57    0    0    0
SMALL
NO_CHARGES


@<TRIPOS>ATOM
   1 O1            -0.1483     1.5113    -0.0695 O.3     
   2 C2            -0.0361     0.0871    -0.0345 C.3     
   3 C3            -1.4344    -0.5401     0.0129 C.3     
   4 N4            -2.0515    -0.2751     1.3193 N.3     
   5 C5            -3.4659    -0.6700     1.3231 C.3     
   6 C6             0.6697    -0.4045    -1.2966 C.3     
   7 C7            -0.2031    -0.1962    -2.5065 C.ar    
   8 C8            -1.5590     0.0248    -2.4131 C.ar    
   9 C9            -4.1113    -0.2477     2.6449 C.3     
  10 C10            0.4034    -0.2328    -3.7553 C.ar    
  11 C11           -0.3420    -0.0528    -4.9023 C.ar    
  12 C12           -1.7038     0.1647    -4.8088 C.ar    
  13 C13           -2.3080     0.2028    -3.5689 C.ar    
  14 C14           -2.2813     0.0869    -1.0927 C.3     
  15 C15           -1.3107    -0.9437     2.3966 C.3     
  16 C16           -1.8918    -0.5296     3.7504 C.3     
  17 C17           -3.3717    -0.9185     3.8057 C.3     
  18 C18           -3.9646    -0.4596     5.1130 C.2     
  19 O19           -3.5261     0.5278     5.6643 O.2     
  20 C20           -5.0732    -1.2079     5.7193 C.ar    
  21 C21           -5.6259    -0.7835     6.9340 C.ar    
  22 C22           -5.5851    -2.3449     5.0819 C.ar    
  23 C23           -6.6203    -3.0400     5.6523 C.ar    
  24 C24           -7.1621    -2.6174     6.8615 C.ar    
  25 C25           -6.6609    -1.4858     7.4960 C.ar    
  26 O26           -8.1868    -3.3082     7.4212 O.3     
  27 C27           -8.6963    -2.8197     8.6638 C.3     
  28 H28            0.7013     1.9721    -0.1004 H       
  29 H29            0.5317    -0.2149     0.8456 H       
  30 H30           -1.3598    -1.6158    -0.1464 H       
  31 H31           -3.9812    -0.1828     0.4953 H       
  32 H32           -3.5413    -1.7516     1.2114 H       
  33 H33            1.6009     0.1472    -1.4258 H       
  34 H34            0.8931    -1.4664    -1.1931 H       
  35 H35           -4.0486     0.8354     2.7508 H       
  36 H36           -5.1571    -0.5548     2.6537 H       
  37 H37            1.4673    -0.4033    -3.8292 H       
  38 H38            0.1369    -0.0815    -5.8699 H       
  39 H39           -2.2928     0.3048    -5.7031 H       
  40 H40           -3.3721     0.3726    -3.4967 H       
  41 H41           -3.2246    -0.4534    -1.1733 H       
  42 H42           -2.4845     1.1282    -0.8428 H       
  43 H43           -1.3961    -2.0241     2.2799 H       
  44 H44           -0.2606    -0.6553     2.3485 H       
  45 H45           -1.3518    -1.0381     4.5491 H       
  46 H46           -1.7941     0.5490     3.8737 H       
  47 H47           -3.4672    -2.0010     3.7214 H       
  48 H48           -5.2375     0.0951     7.4275 H       
  49 H49           -5.1655    -2.6735     4.1426 H       
  50 H50           -7.0158    -3.9170     5.1616 H       
  51 H51           -7.0849    -1.1620     8.4350 H       
  52 H52           -7.9005    -2.8214     9.4086 H       
  53 H53           -9.0667    -1.8033     8.5302 H       
  54 H54           -9.5103    -3.4617     9.0003 H       
@<TRIPOS>BOND
   1    1    2 1
   2    1   28 1
   3    2    3 1
   4    2    6 1
   5    2   29 1
   6    3    4 1
   7    3   14 1
   8    3   30 1
   9    4    5 1
  10    4   15 1
  11    5    9 1
  12    5   31 1
  13    5   32 1
  14    6    7 1
  15    6   33 1
  16    6   34 1
  17    7   10 ar
  18    7    8 ar
  19    8   14 1
  20    8   13 ar
  21    9   17 1
  22    9   35 1
  23    9   36 1
  24   10   11 ar
  25   10   37 1
  26   11   12 ar
  27   11   38 1
  28   12   13 ar
  29   12   39 1
  30   13   40 1
  31   14   41 1
  32   14   42 1
  33   15   16 1
  34   15   43 1
  35   15   44 1
  36   16   17 1
  37   16   45 1
  38   16   46 1
  39   17   18 1
  40   17   47 1
  41   18   19 2
  42   18   20 1
  43   20   21 ar
  44   20   22 ar
  45   21   25 ar
  46   21   48 1
  47   22   23 ar
  48   22   49 1
  49   23   24 ar
  50   23   50 1
  51   24   25 ar
  52   24   26 1
  53   25   51 1
  54   26   27 1
  55   27   52 1
  56   27   53 1
  57   27   54 1

#	End of record

