#	Name: ASD01912310
#	Creating user name:	WinNT
#	Creation time:	15. 06. 2019 19:59

#	Modifying user name:	WinNT
#	Modification time:	15. 06. 2019 19:59

#	Program:	/corina/corina34_cracker 3.40 0067  02.08.2006

@<TRIPOS>MOLECULE
ASD01912310
  46   48    0    0    0
SMALL
NO_CHARGES


@<TRIPOS>ATOM
   1 C1             0.0923     1.6276     1.4087 C.ar    
   2 C2             0.1119     0.2550     1.5802 C.ar    
   3 C3             1.3255    -0.4187     1.5542 C.ar    
   4 C4             2.4830     0.3119     1.3559 C.ar    
   5 C5             2.3911     1.6964     1.1894 C.ar    
   6 N6             1.2074     2.3024     1.2213 N.ar    
   7 C7             3.5796     2.4682     0.9831 C.1     
   8 C8             4.5539     3.1009     0.8139 C.1     
   9 C9             5.7424     3.8726     0.6076 C.2     
  10 N10            5.4040     7.5488    -0.9500 N.am    
  11 C11            6.7044     6.8718    -1.0347 C.3     
  12 C12            6.9040     6.0258     0.2292 C.3     
  13 C13            5.6601     5.1928     0.4484 C.2     
  14 C14            4.3207     5.8954     0.4828 C.3     
  15 C15            4.1859     6.7447    -0.7875 C.3     
  16 C16            5.3297     8.8930    -1.0150 C.2     
  17 C17            4.0106     9.5592    -1.0598 C.ar    
  18 C18            3.7734    10.6970    -0.2870 C.ar    
  19 C19            2.5403    11.3138    -0.3335 C.ar    
  20 C20            1.5399    10.8069    -1.1438 C.ar    
  21 C21            1.7684     9.6791    -1.9120 C.ar    
  22 C22            2.9990     9.0564    -1.8795 C.ar    
  23 O23            6.3473     9.5575    -1.0367 O.2     
  24 N24            0.2193    11.4739    -1.1887 N.pl3   
  25 O25            0.0151    12.4666    -0.5132 O.2     
  26 O26           -0.6633    11.0299    -1.9011 O.2     
  27 C27           -1.2246     2.3601     1.4303 C.3     
  28 H28           -0.8091    -0.2878     1.7335 H       
  29 H29            1.3649    -1.4899     1.6863 H       
  30 H30            3.4440    -0.1804     1.3304 H       
  31 H31            6.7054     3.3845     0.5811 H       
  32 H32            6.7239     6.2266    -1.9131 H       
  33 H33            7.4990     7.6145    -1.1066 H       
  34 H34            7.7660     5.3713     0.1004 H       
  35 H35            7.0637     6.6794     1.0868 H       
  36 H36            3.5197     5.1570     0.5173 H       
  37 H37            4.2659     6.5382     1.3614 H       
  38 H38            3.3224     7.4036    -0.6966 H       
  39 H39            4.0608     6.0922    -1.6517 H       
  40 H40            4.5533    11.0934     0.3462 H       
  41 H41            2.3553    12.1941     0.2643 H       
  42 H42            0.9832     9.2883    -2.5422 H       
  43 H43            3.1777     8.1791    -2.4836 H       
  44 H44           -1.4540     2.6649     2.4514 H       
  45 H45           -1.1600     3.2424     0.7935 H       
  46 H46           -2.0121     1.7028     1.0618 H       
@<TRIPOS>BOND
   1    1    2 ar
   2    1    6 ar
   3    1   27 1
   4    2    3 ar
   5    2   28 1
   6    3    4 ar
   7    3   29 1
   8    4    5 ar
   9    4   30 1
  10    5    6 ar
  11    5    7 1
  12    7    8 3
  13    8    9 1
  14    9   13 2
  15    9   31 1
  16   10   11 1
  17   10   15 1
  18   10   16 am
  19   11   12 1
  20   11   32 1
  21   11   33 1
  22   12   13 1
  23   12   34 1
  24   12   35 1
  25   13   14 1
  26   14   15 1
  27   14   36 1
  28   14   37 1
  29   15   38 1
  30   15   39 1
  31   16   17 1
  32   16   23 2
  33   17   18 ar
  34   17   22 ar
  35   18   19 ar
  36   18   40 1
  37   19   20 ar
  38   19   41 1
  39   20   21 ar
  40   20   24 1
  41   21   22 ar
  42   21   42 1
  43   22   43 1
  44   24   25 2
  45   24   26 2
  46   27   44 1
  47   27   45 1
  48   27   46 1

#	End of record

