#	Name: ASD01811674
#	Creating user name:	WinNT
#	Creation time:	15. 06. 2019 19:27

#	Modifying user name:	WinNT
#	Modification time:	15. 06. 2019 19:27

#	Program:	/corina/corina34_cracker 3.40 0067  02.08.2006

@<TRIPOS>MOLECULE
ASD01811674
  54   58    0    0    0
SMALL
NO_CHARGES


@<TRIPOS>ATOM
   1 C1            -0.0167     1.3820     0.0096 C.ar    
   2 C2             0.0021    -0.0041     0.0020 C.ar    
   3 C3             1.2092    -0.6837    -0.0127 C.ar    
   4 C4             2.3994     0.0122    -0.0199 C.ar    
   5 C5             2.3881     1.4088    -0.0127 C.ar    
   6 C6             1.1653     2.0846     0.0021 C.ar    
   7 C7             3.4703     2.4108    -0.0169 C.2     
   8 N8             2.9562     3.6527    -0.0057 N.am    
   9 C9             1.4920     3.5571     0.0070 C.3     
  10 O10            4.6577     2.1507    -0.0287 O.2     
  11 C11            3.7301     4.8966    -0.0052 C.3     
  12 C12            4.6011     4.9559    -1.2616 C.3     
  13 C13            5.4094     6.2550    -1.2610 C.3     
  14 C14            6.3019     6.2998    -0.0191 C.3     
  15 C15            5.4308     6.2405     1.2373 C.3     
  16 C16            4.6226     4.9414     1.2367 C.3     
  17 O17            3.7675     4.9141    -2.4215 O.3     
  18 Cl18          -1.4906    -0.8904     0.0115 Cl      
  19 C19            1.2214    -2.1906    -0.0204 C.3     
  20 C20            0.9919    -2.7020     1.3785 C.ar    
  21 C21           -0.2952    -2.9447     1.8219 C.ar    
  22 C22           -0.5087    -3.4138     3.1033 C.ar    
  23 C23            0.5705    -3.6417     3.9464 C.ar    
  24 C24            1.8617    -3.3971     3.4984 C.ar    
  25 C25            2.0692    -2.9330     2.2141 C.ar    
  26 N26            0.3570    -4.1174     5.2476 N.pl3   
  27 N27           -0.8856    -4.4053     5.8267 N.2     
  28 C28           -0.6800    -4.8259     7.0488 C.2     
  29 C29            0.6986    -4.8197     7.2880 C.2     
  30 C30            1.3145    -4.3851     6.1642 C.2     
  31 H31           -0.9590     1.9097     0.0170 H       
  32 H32            3.3384    -0.5214    -0.0306 H       
  33 H33            1.0777     4.0356    -0.8804 H       
  34 H34            1.0938     4.0262     0.9067 H       
  35 H35            3.0495     5.7480     0.0056 H       
  36 H36            5.2817     4.1046    -1.2724 H       
  37 H37            6.0299     6.2973    -2.1562 H       
  38 H38            4.7288     7.1064    -1.2502 H       
  39 H39            6.9825     5.4485    -0.0299 H       
  40 H40            6.8777     7.2253    -0.0187 H       
  41 H41            6.0667     6.2724     2.1221 H       
  42 H42            4.7502     7.0919     1.2481 H       
  43 H43            4.0021     4.8992     2.1318 H       
  44 H44            5.3032     4.0901     1.2259 H       
  45 H45            4.2537     4.9480    -3.2567 H       
  46 H46            0.4310    -2.5570    -0.6755 H       
  47 H47            2.1867    -2.5443    -0.3827 H       
  48 H48           -1.1343    -2.7669     1.1657 H       
  49 H49           -1.5142    -3.6029     3.4491 H       
  50 H50            2.7031    -3.5731     4.1521 H       
  51 H51            3.0733    -2.7425     1.8650 H       
  52 H52           -1.4431    -5.1259     7.7518 H       
  53 H53            1.1854    -5.1138     8.2062 H       
  54 H54            2.3792    -4.2676     6.0262 H       
@<TRIPOS>BOND
   1    1    2 ar
   2    1    6 ar
   3    1   31 1
   4    2    3 ar
   5    2   18 1
   6    3    4 ar
   7    3   19 1
   8    4    5 ar
   9    4   32 1
  10    5    6 ar
  11    5    7 1
  12    6    9 1
  13    7    8 am
  14    7   10 2
  15    8    9 1
  16    8   11 1
  17    9   33 1
  18    9   34 1
  19   11   12 1
  20   11   16 1
  21   11   35 1
  22   12   13 1
  23   12   17 1
  24   12   36 1
  25   13   14 1
  26   13   37 1
  27   13   38 1
  28   14   15 1
  29   14   39 1
  30   14   40 1
  31   15   16 1
  32   15   41 1
  33   15   42 1
  34   16   43 1
  35   16   44 1
  36   17   45 1
  37   19   20 1
  38   19   46 1
  39   19   47 1
  40   20   21 ar
  41   20   25 ar
  42   21   22 ar
  43   21   48 1
  44   22   23 ar
  45   22   49 1
  46   23   24 ar
  47   23   26 1
  48   24   25 ar
  49   24   50 1
  50   25   51 1
  51   26   27 1
  52   26   30 1
  53   27   28 2
  54   28   29 1
  55   28   52 1
  56   29   30 2
  57   29   53 1
  58   30   54 1

#	End of record

