#	Name: ASD01918401
#	Creating user name:	WinNT
#	Creation time:	15. 06. 2019 20:11

#	Modifying user name:	WinNT
#	Modification time:	15. 06. 2019 20:11

#	Program:	/corina/corina34_cracker 3.40 0067  02.08.2006

@<TRIPOS>MOLECULE
ASD01918401
  57   61    0    0    0
SMALL
NO_CHARGES


@<TRIPOS>ATOM
   1 C1            -0.3352     1.9007     0.4027 C.3     
   2 C2            -0.2336     0.3844     0.2255 C.3     
   3 C3            -1.6163    -0.2149     0.2233 C.2     
   4 N4            -2.3411    -0.3943    -0.8259 N.2     
   5 C5            -3.5399    -0.9414    -0.6606 C.2     
   6 C6            -4.4907    -1.2450    -1.8182 C.3     
   7 C7            -4.6472    -2.7694    -1.8975 C.3     
   8 N8            -5.5231    -3.2378    -0.8358 N.am    
   9 C9            -5.1934    -3.2610     0.5817 C.3     
  10 C10           -5.1252    -1.8191     1.1130 C.3     
  11 C11           -3.8237    -1.2141     0.6122 C.2     
  12 S12           -2.4491    -0.7626     1.6126 S.3     
  13 C13           -6.7421    -3.6876    -1.1940 C.2     
  14 O14           -7.0685    -3.6900    -2.3620 O.2     
  15 C15           -7.6995    -4.1875    -0.1430 C.3     
  16 N16           -8.9456    -4.6172    -0.7824 N.pl3   
  17 N17          -10.0585    -3.8142    -1.0799 N.2     
  18 C18          -10.9526    -4.5944    -1.6480 C.2     
  19 N19          -10.4613    -5.8364    -1.7215 N.2     
  20 C20           -9.2494    -5.8654    -1.2084 C.2     
  21 C21           -8.3743    -7.0544    -1.1116 C.ar    
  22 C22           -8.9220    -8.3350    -1.1926 C.ar    
  23 C23           -8.1019    -9.4402    -1.1023 C.ar    
  24 C24           -6.7360    -9.2802    -0.9308 C.ar    
  25 F25           -5.9369   -10.3660    -0.8424 F       
  26 C26           -6.1870    -8.0103    -0.8501 C.ar    
  27 C27           -6.9979    -6.8987    -0.9447 C.ar    
  28 C28          -12.2898    -4.1662    -2.1285 C.ar    
  29 C29          -12.6858    -2.8365    -1.9991 C.ar    
  30 C30          -13.9298    -2.4425    -2.4476 C.ar    
  31 C31          -14.7845    -3.3669    -3.0260 C.ar    
  32 F32          -16.0015    -2.9768    -3.4643 F       
  33 C33          -14.3947    -4.6899    -3.1566 C.ar    
  34 C34          -13.1505    -5.0914    -2.7156 C.ar    
  35 H35            0.6649     2.3342     0.4043 H       
  36 H36           -0.9135     2.3245    -0.4183 H       
  37 H37           -0.8293     2.1237     1.3483 H       
  38 H38            0.2606     0.1615    -0.7201 H       
  39 H39            0.3448    -0.0394     1.0465 H       
  40 H40           -5.4600    -0.7824    -1.6323 H       
  41 H41           -4.0716    -0.8667    -2.7506 H       
  42 H42           -5.0740    -3.0391    -2.8636 H       
  43 H43           -3.6692    -3.2391    -1.7928 H       
  44 H44           -5.9608    -3.8127     1.1246 H       
  45 H45           -4.2277    -3.7465     0.7225 H       
  46 H46           -5.9709    -1.2443     0.7353 H       
  47 H47           -5.1365    -1.8245     2.2029 H       
  48 H48           -7.2524    -5.0301     0.3845 H       
  49 H49           -7.9119    -3.3867     0.5653 H       
  50 H50           -9.9864    -8.4607    -1.3255 H       
  51 H51           -8.5249   -10.4319    -1.1649 H       
  52 H52           -5.1220    -7.8909    -0.7165 H       
  53 H53           -6.5686    -5.9094    -0.8858 H       
  54 H54          -12.0203    -2.1154    -1.5480 H       
  55 H55          -14.2377    -1.4122    -2.3474 H       
  56 H56          -15.0641    -5.4072    -3.6081 H       
  57 H57          -12.8458    -6.1221    -2.8215 H       
@<TRIPOS>BOND
   1    1    2 1
   2    1   35 1
   3    1   36 1
   4    1   37 1
   5    2    3 1
   6    2   38 1
   7    2   39 1
   8    3   12 1
   9    3    4 2
  10    4    5 1
  11    5   11 2
  12    5    6 1
  13    6    7 1
  14    6   40 1
  15    6   41 1
  16    7    8 1
  17    7   42 1
  18    7   43 1
  19    8    9 1
  20    8   13 am
  21    9   10 1
  22    9   44 1
  23    9   45 1
  24   10   11 1
  25   10   46 1
  26   10   47 1
  27   11   12 1
  28   13   14 2
  29   13   15 1
  30   15   16 1
  31   15   48 1
  32   15   49 1
  33   16   20 1
  34   16   17 1
  35   17   18 2
  36   18   19 1
  37   18   28 1
  38   19   20 2
  39   20   21 1
  40   21   27 ar
  41   21   22 ar
  42   22   23 ar
  43   22   50 1
  44   23   24 ar
  45   23   51 1
  46   24   25 1
  47   24   26 ar
  48   26   27 ar
  49   26   52 1
  50   27   53 1
  51   28   34 ar
  52   28   29 ar
  53   29   30 ar
  54   29   54 1
  55   30   31 ar
  56   30   55 1
  57   31   32 1
  58   31   33 ar
  59   33   34 ar
  60   33   56 1
  61   34   57 1

#	End of record

