#	Name: ASD08830009
#	Creating user name:	WinNT
#	Creation time:	15. 06. 2019 21:19

#	Modifying user name:	WinNT
#	Modification time:	15. 06. 2019 21:19

#	Program:	/corina/corina34_cracker 3.40 0067  02.08.2006

@<TRIPOS>MOLECULE
ASD08830009
  46   48    0    0    0
SMALL
NO_CHARGES


@<TRIPOS>ATOM
   1 C1            -0.0137     1.2261    -0.9460 C.ar    
   2 C2             0.0186    -0.1550    -0.7340 C.ar    
   3 C3             1.1652     1.9586    -0.9486 C.ar    
   4 C4             2.3715     1.3269    -0.7423 C.ar    
   5 C5             2.4121    -0.0566    -0.5300 C.ar    
   6 C6             1.2226    -0.7963    -0.5268 C.ar    
   7 C7             3.6987    -0.7304    -0.3112 C.2     
   8 C8             4.9772     0.0673    -0.3151 C.3     
   9 C9             6.1624    -0.8678    -0.0661 C.3     
  10 N10            7.4165    -0.1138    -0.1954 N.3     
  11 C11            8.5815    -0.9616     0.1388 C.3     
  12 O12            3.7321    -1.9289    -0.1274 O.2     
  13 N13           -1.1844    -0.8765    -0.7343 N.am    
  14 C14           -2.2936    -0.2984    -1.2445 C.2     
  15 C15           -2.2110     1.0867    -1.8336 C.3     
  16 O16           -1.2068     1.8404    -1.1544 O.3     
  17 O17           -3.3516    -0.8915    -1.2289 O.2     
  18 C18            9.6250    -0.0506     0.8115 C.3     
  19 C19            8.9668     1.3473     0.8638 C.3     
  20 C20            7.4553     1.0226     0.7603 C.3     
  21 N21            9.2687     2.0167     2.1361 N.3     
  22 C22           10.7150     2.2200     2.2938 C.3     
  23 C23            8.5431     3.2892     2.2466 C.3     
  24 H24            1.1366     3.0256    -1.1128 H       
  25 H25            3.2874     1.8992    -0.7448 H       
  26 H26            1.2479    -1.8637    -0.3639 H       
  27 H27            5.0973     0.5566    -1.2816 H       
  28 H28            4.9376     0.8210     0.4713 H       
  29 H29            6.0912    -1.2851     0.9383 H       
  30 H30            6.1474    -1.6760    -0.7972 H       
  31 H31            8.2805    -1.7521     0.8262 H       
  32 H32            8.9982    -1.3951    -0.7703 H       
  33 H33           -1.2191    -1.7765    -0.3742 H       
  34 H34           -1.9549     1.0166    -2.8908 H       
  35 H35           -3.1748     1.5845    -1.7267 H       
  36 H36            9.8424    -0.4043     1.8193 H       
  37 H37           10.5376    -0.0170     0.2164 H       
  38 H38            9.2890     1.9572     0.0199 H       
  39 H39            6.9046     1.8763     0.3653 H       
  40 H40            7.0588     0.7231     1.7304 H       
  41 H41           11.0861     2.8386     1.4767 H       
  42 H42           10.9105     2.7173     3.2438 H       
  43 H43           11.2214     1.2549     2.2779 H       
  44 H44            7.4705     3.1015     2.1963 H       
  45 H45            8.7847     3.7639     3.1976 H       
  46 H46            8.8356     3.9465     1.4277 H       
@<TRIPOS>BOND
   1    1    2 ar
   2    1    3 ar
   3    1   16 1
   4    2   13 1
   5    2    6 ar
   6    3    4 ar
   7    3   24 1
   8    4    5 ar
   9    4   25 1
  10    5    6 ar
  11    5    7 1
  12    6   26 1
  13    7    8 1
  14    7   12 2
  15    8    9 1
  16    8   27 1
  17    8   28 1
  18    9   10 1
  19    9   29 1
  20    9   30 1
  21   10   11 1
  22   10   20 1
  23   11   18 1
  24   11   31 1
  25   11   32 1
  26   13   14 am
  27   13   33 1
  28   14   15 1
  29   14   17 2
  30   15   16 1
  31   15   34 1
  32   15   35 1
  33   18   19 1
  34   18   36 1
  35   18   37 1
  36   19   20 1
  37   19   21 1
  38   19   38 1
  39   20   39 1
  40   20   40 1
  41   21   22 1
  42   21   23 1
  43   22   41 1
  44   22   42 1
  45   22   43 1
  46   23   44 1
  47   23   45 1
  48   23   46 1

#	End of record

