#	Name: ASD01811707
#	Creating user name:	WinNT
#	Creation time:	15. 06. 2019 19:27

#	Modifying user name:	WinNT
#	Modification time:	15. 06. 2019 19:27

#	Program:	/corina/corina34_cracker 3.40 0067  02.08.2006

@<TRIPOS>MOLECULE
ASD01811707
  58   62    0    0    0
SMALL
NO_CHARGES


@<TRIPOS>ATOM
   1 C1            -0.0167     1.3805     0.0096 C.ar    
   2 C2             0.0021    -0.0041     0.0020 C.ar    
   3 C3            -1.1845    -0.7161     0.0090 C.ar    
   4 C4            -2.3942    -0.0535     0.0241 C.ar    
   5 C5            -2.4213     1.3425     0.0323 C.ar    
   6 C6            -1.2177     2.0512     0.0304 C.ar    
   7 C7             1.2777     2.1522     0.0014 C.3     
   8 C8             1.3184    -0.7376    -0.0144 C.3     
   9 C9            -1.1549    -2.2228    -0.0004 C.3     
  10 C10           -1.0078    -2.7311     1.4107 C.ar    
  11 C11           -2.1329    -2.9880     2.1724 C.ar    
  12 C12           -2.0013    -3.4544     3.4658 C.ar    
  13 C13           -0.7377    -3.6653     4.0009 C.ar    
  14 C14            0.3901    -3.4064     3.2337 C.ar    
  15 C15            0.2520    -2.9452     1.9391 C.ar    
  16 N16           -0.6008    -4.1381     5.3135 N.pl3   
  17 N17           -1.6473    -4.4391     6.1947 N.2     
  18 C18           -1.1268    -4.8520     7.3223 C.2     
  19 C19            0.2665    -4.8276     7.1964 C.2     
  20 C20            0.5648    -4.3901     5.9511 C.2     
  21 C21           -3.5309     2.3149     0.0477 C.2     
  22 N22           -3.0504     3.5703     0.0501 N.am    
  23 C23           -1.5841     3.5142     0.0402 C.3     
  24 O24           -4.7107     2.0226     0.0563 O.2     
  25 C25           -3.8575     4.7928     0.0640 C.3     
  26 C26           -4.7300     4.8158     1.3228 C.3     
  27 C27           -5.6250     6.0585     1.2877 C.3     
  28 C28           -6.4581     6.0417     0.0035 C.3     
  29 O29           -5.5864     5.9891    -1.1276 O.3     
  30 C30           -4.7589     4.8249    -1.1729 C.3     
  31 O31           -3.8957     4.8602     2.4821 O.3     
  32 H32           -3.3180    -0.6130     0.0291 H       
  33 H33            1.5800     2.3437    -1.0282 H       
  34 H34            1.1390     3.0999     0.5217 H       
  35 H35            2.0504     1.5710     0.5048 H       
  36 H36            1.6456    -0.9199     1.0092 H       
  37 H37            1.1977    -1.6891    -0.5323 H       
  38 H38            2.0641    -0.1342    -0.5322 H       
  39 H39           -2.0831    -2.6018    -0.4281 H       
  40 H40           -0.3118    -2.5659    -0.5999 H       
  41 H41           -3.1156    -2.8234     1.7557 H       
  42 H42           -2.8804    -3.6545     4.0603 H       
  43 H43            1.3744    -3.5692     3.6474 H       
  44 H44            1.1289    -2.7436     1.3418 H       
  45 H45           -1.6779    -5.1584     8.1991 H       
  46 H46            0.9782    -5.1117     7.9575 H       
  47 H47            1.5558    -4.2599     5.5420 H       
  48 H48           -1.1849     3.9949     0.9333 H       
  49 H49           -1.1966     4.0028    -0.8538 H       
  50 H50           -3.2017     5.6635     0.0595 H       
  51 H51           -5.3507     3.9203     1.3527 H       
  52 H52           -6.2885     6.0540     2.1525 H       
  53 H53           -5.0048     6.9547     1.3079 H       
  54 H54           -7.1075     5.1663     0.0029 H       
  55 H55           -7.0657     6.9452    -0.0475 H       
  56 H56           -4.1424     4.8519    -2.0714 H       
  57 H57           -5.3861     3.9336    -1.1889 H       
  58 H58           -4.3831     4.8767     3.3171 H       
@<TRIPOS>BOND
   1    1    2 ar
   2    1    7 1
   3    1    6 ar
   4    2    3 ar
   5    2    8 1
   6    3    4 ar
   7    3    9 1
   8    4    5 ar
   9    4   32 1
  10    5    6 ar
  11    5   21 1
  12    6   23 1
  13    7   33 1
  14    7   34 1
  15    7   35 1
  16    8   36 1
  17    8   37 1
  18    8   38 1
  19    9   10 1
  20    9   39 1
  21    9   40 1
  22   10   11 ar
  23   10   15 ar
  24   11   12 ar
  25   11   41 1
  26   12   13 ar
  27   12   42 1
  28   13   14 ar
  29   13   16 1
  30   14   15 ar
  31   14   43 1
  32   15   44 1
  33   16   17 1
  34   16   20 1
  35   17   18 2
  36   18   19 1
  37   18   45 1
  38   19   20 2
  39   19   46 1
  40   20   47 1
  41   21   22 am
  42   21   24 2
  43   22   23 1
  44   22   25 1
  45   23   48 1
  46   23   49 1
  47   25   26 1
  48   25   30 1
  49   25   50 1
  50   26   27 1
  51   26   31 1
  52   26   51 1
  53   27   28 1
  54   27   52 1
  55   27   53 1
  56   28   29 1
  57   28   54 1
  58   28   55 1
  59   29   30 1
  60   30   56 1
  61   30   57 1
  62   31   58 1

#	End of record

