#	Name: ASD09740296
#	Creating user name:	WinNT
#	Creation time:	15. 06. 2019 21:23

#	Modifying user name:	WinNT
#	Modification time:	15. 06. 2019 21:23

#	Program:	/corina/corina34_cracker 3.40 0067  02.08.2006

@<TRIPOS>MOLECULE
ASD09740296
  46   48    0    0    0
SMALL
NO_CHARGES


@<TRIPOS>ATOM
   1 N1            -0.0144     1.2085     0.0087 N.2     
   2 O2             0.0021    -0.0041     0.0020 O.3     
   3 C3             1.2060     1.6802    -0.0004 C.2     
   4 N4             2.0461     0.6245    -0.0141 N.2     
   5 C5             1.2702    -0.4440    -0.0125 C.2     
   6 C6             1.7128    -1.8529    -0.0233 C.ar    
   7 C7             1.5947     3.1130     0.0028 C.ar    
   8 C8             2.9411     3.4714    -0.0085 C.ar    
   9 C9             3.3015     4.8044    -0.0055 C.ar    
  10 C10            2.3301     5.7869     0.0089 C.ar    
  11 C11            0.9845     5.4386     0.0203 C.ar    
  12 C12            0.6148     4.1019     0.0115 C.ar    
  13 C13            3.0751    -2.1582    -0.0369 C.ar    
  14 C14            3.4868    -3.4742    -0.0466 C.ar    
  15 C15            2.5498    -4.4974    -0.0432 C.ar    
  16 C16            1.1882    -4.1996    -0.0296 C.ar    
  17 C17            0.7692    -2.8832    -0.0141 C.ar    
  18 O18            0.2722    -5.2049    -0.0264 O.3     
  19 C19           -1.9793    -6.0831    -0.0106 C.3     
  20 C20           -1.1058    -4.8269    -0.0123 C.3     
  21 O21            2.9604    -5.7925    -0.0537 O.3     
  22 C22            4.3701    -6.0261    -0.0678 C.3     
  23 C23            4.6374    -7.5325    -0.0780 C.3     
  24 N24            0.0050     6.4345     0.0347 N.pl3   
  25 C25           -0.8432     3.7209     0.0232 C.3     
  26 H26            3.7032     2.7062    -0.0194 H       
  27 H27            4.3457     5.0799    -0.0139 H       
  28 H28            2.6171     6.8281     0.0116 H       
  29 H29            3.8065    -1.3636    -0.0403 H       
  30 H30            4.5409    -3.7089    -0.0571 H       
  31 H31           -0.2855    -2.6510    -0.0032 H       
  32 H32           -1.7728    -6.6703    -0.9054 H       
  33 H33           -1.7569    -6.6790     0.8745 H       
  34 H34           -3.0304    -5.7947     0.0001 H       
  35 H35           -1.3123    -4.2396     0.8825 H       
  36 H36           -1.3282    -4.2309    -0.8974 H       
  37 H37            4.8044    -5.5740    -0.9595 H       
  38 H38            4.8207    -5.5831     0.8203 H       
  39 H39            4.2032    -7.9846     0.8137 H       
  40 H40            4.1868    -7.9755    -0.9662 H       
  41 H41            5.7127    -7.7107    -0.0888 H       
  42 H42            0.2638     7.3693     0.0368 H       
  43 H43           -0.9340     6.1912     0.0427 H       
  44 H44           -1.2056     3.6388    -1.0015 H       
  45 H45           -0.9644     2.7632     0.5293 H       
  46 H46           -1.4142     4.4852     0.5504 H       
@<TRIPOS>BOND
   1    1    2 1
   2    1    3 2
   3    2    5 1
   4    3    4 1
   5    3    7 1
   6    4    5 2
   7    5    6 1
   8    6   13 ar
   9    6   17 ar
  10    7    8 ar
  11    7   12 ar
  12    8    9 ar
  13    8   26 1
  14    9   10 ar
  15    9   27 1
  16   10   11 ar
  17   10   28 1
  18   11   12 ar
  19   11   24 1
  20   12   25 1
  21   13   14 ar
  22   13   29 1
  23   14   15 ar
  24   14   30 1
  25   15   16 ar
  26   15   21 1
  27   16   17 ar
  28   16   18 1
  29   17   31 1
  30   18   20 1
  31   19   20 1
  32   19   32 1
  33   19   33 1
  34   19   34 1
  35   20   35 1
  36   20   36 1
  37   21   22 1
  38   22   23 1
  39   22   37 1
  40   22   38 1
  41   23   39 1
  42   23   40 1
  43   23   41 1
  44   24   42 1
  45   24   43 1
  46   25   44 1
  47   25   45 1
  48   25   46 1

#	End of record

