#	Name: ASD05120002
#	Creating user name:	WinNT
#	Creation time:	15. 06. 2019 20:56

#	Modifying user name:	WinNT
#	Modification time:	15. 06. 2019 20:56

#	Program:	/corina/corina34_cracker 3.40 0067  02.08.2006

@<TRIPOS>MOLECULE
ASD05120002
  34   35    0    0    0
SMALL
NO_CHARGES


@<TRIPOS>ATOM
   1 N1             0.5525     1.8997    -1.6502 N.3     
   2 C2            -0.1756     0.6264    -1.7325 C.3     
   3 C3             0.7074    -0.4901    -1.2379 C.2     
   4 O4             1.6529    -0.2425    -0.5165 O.2     
   5 C5            -1.4350     0.7022    -0.8669 C.3     
   6 N6             0.4047    -3.6937    -2.7862 N.2     
   7 C7             0.8474    -2.4653    -2.7991 C.2     
   8 C8             0.4358    -1.8242    -1.6131 C.2     
   9 C9            -0.3006    -2.7753    -0.8724 C.2     
  10 N10           -0.3131    -3.9256    -1.6067 N.pl3   
  11 C11           -0.9584    -5.0285    -1.1361 C.2     
  12 C12           -1.5926    -5.0009     0.0583 C.2     
  13 C13           -1.5941    -3.8323     0.8306 C.2     
  14 C14           -0.9495    -2.7215     0.3659 C.2     
  15 C15            1.6638    -1.8372    -3.8991 C.3     
  16 C16            2.9686    -2.6168    -4.0745 C.3     
  17 C17            0.8697    -1.8713    -5.2065 C.3     
  18 H18            0.8249     2.0996    -0.6994 H       
  19 H19            1.3538     1.8982    -2.2632 H       
  20 H20           -0.4574     0.4353    -2.7679 H       
  21 H21           -2.0737     1.5098    -1.2247 H       
  22 H22           -1.9752    -0.2425    -0.9280 H       
  23 H23           -1.1532     0.8934     0.1685 H       
  24 H24           -0.9641    -5.9351    -1.7231 H       
  25 H25           -2.1003    -5.8836     0.4180 H       
  26 H26           -2.1005    -3.8097     1.7842 H       
  27 H27           -0.9402    -1.8120     0.9482 H       
  28 H28            1.8904    -0.8034    -3.6385 H       
  29 H29            2.7420    -3.6506    -4.3351 H       
  30 H30            3.5591    -2.1625    -4.8702 H       
  31 H31            3.5343    -2.5925    -3.1431 H       
  32 H32            0.6431    -2.9051    -5.4672 H       
  33 H33           -0.0598    -1.3159    -5.0816 H       
  34 H34            1.4602    -1.4171    -6.0022 H       
@<TRIPOS>BOND
   1    1    2 1
   2    1   18 1
   3    1   19 1
   4    2    3 1
   5    2    5 1
   6    2   20 1
   7    3    4 2
   8    3    8 1
   9    5   21 1
  10    5   22 1
  11    5   23 1
  12    6    7 2
  13    6   10 1
  14    7    8 1
  15    7   15 1
  16    8    9 2
  17    9   10 1
  18    9   14 1
  19   10   11 1
  20   11   12 2
  21   11   24 1
  22   12   13 1
  23   12   25 1
  24   13   14 2
  25   13   26 1
  26   14   27 1
  27   15   16 1
  28   15   17 1
  29   15   28 1
  30   16   29 1
  31   16   30 1
  32   16   31 1
  33   17   32 1
  34   17   33 1
  35   17   34 1

#	End of record

