#	Name: ASD00172003
#	Creating user name:	WinNT
#	Creation time:	15. 06. 2019 18:33

#	Modifying user name:	WinNT
#	Modification time:	15. 06. 2019 18:33

#	Program:	/corina/corina34_cracker 3.40 0067  02.08.2006

@<TRIPOS>MOLECULE
ASD00172003
  43   45    0    0    0
SMALL
NO_CHARGES


@<TRIPOS>ATOM
   1 C1            -0.0160     1.3307     0.0094 C.2     
   2 C2             0.0021    -0.0041     0.0020 C.2     
   3 C3            -1.3368    -0.5758     0.0005 C.2     
   4 C4            -2.3284     0.3646     0.0139 C.2     
   5 S5            -1.6685     1.9329     0.0207 S.3     
   6 N6            -3.6809     0.0808     0.0171 N.pl3   
   7 C7            -1.5957    -2.0171    -0.0140 C.2     
   8 N8            -1.7188    -2.6679    -1.1878 N.am    
   9 O9            -1.6997    -2.6274     1.0341 O.2     
  10 N10           -1.9664    -4.0467    -1.2017 N.pl3   
  11 C11            1.2104     2.2194     0.0024 C.3     
  12 C12            2.2113     1.7378     1.0514 C.3     
  13 C13            3.1560     0.7217     0.4157 C.3     
  14 C14            2.4110    -0.0856    -0.6451 C.3     
  15 C15            1.2633    -0.8508     0.0064 C.3     
  16 C16            3.0177     2.9288     1.5730 C.3     
  17 C17           -2.0940    -4.7212    -2.4181 C.ar    
  18 C18           -2.3395    -6.0883    -2.4337 C.ar    
  19 C19           -2.4651    -6.7521    -3.6382 C.ar    
  20 C20           -2.3467    -6.0573    -4.8280 C.ar    
  21 C21           -2.1018    -4.6963    -4.8161 C.ar    
  22 C22           -1.9813    -4.0253    -3.6151 C.ar    
  23 H23           -3.9831    -0.8409     0.0095 H       
  24 H24           -4.3281     0.8033     0.0269 H       
  25 H25           -1.6359    -2.1816    -2.0230 H       
  26 H26           -2.0493    -4.5330    -0.3665 H       
  27 H27            1.6753     2.1866    -0.9829 H       
  28 H28            0.9156     3.2444     0.2275 H       
  29 H29            1.6759     1.2699     1.8776 H       
  30 H30            3.9920     1.2452    -0.0483 H       
  31 H31            3.5339     0.0478     1.1846 H       
  32 H32            2.0132     0.5900    -1.4023 H       
  33 H33            3.0978    -0.7907    -1.1132 H       
  34 H34            1.5301    -1.0965     1.0343 H       
  35 H35            1.0822    -1.7718    -0.5479 H       
  36 H36            2.3419     3.6561     2.0230 H       
  37 H37            3.7315     2.5845     2.3214 H       
  38 H38            3.5542     3.3944     0.7463 H       
  39 H39           -2.4318    -6.6316    -1.5049 H       
  40 H40           -2.6557    -7.8150    -3.6511 H       
  41 H41           -2.4453    -6.5787    -5.7686 H       
  42 H42           -2.0095    -4.1567    -5.7471 H       
  43 H43           -1.7900    -2.9624    -3.6065 H       
@<TRIPOS>BOND
   1    1    2 2
   2    1   11 1
   3    1    5 1
   4    2    3 1
   5    2   15 1
   6    3    4 2
   7    3    7 1
   8    4    5 1
   9    4    6 1
  10    6   23 1
  11    6   24 1
  12    7    8 am
  13    7    9 2
  14    8   10 1
  15    8   25 1
  16   10   17 1
  17   10   26 1
  18   11   12 1
  19   11   27 1
  20   11   28 1
  21   12   13 1
  22   12   16 1
  23   12   29 1
  24   13   14 1
  25   13   30 1
  26   13   31 1
  27   14   15 1
  28   14   32 1
  29   14   33 1
  30   15   34 1
  31   15   35 1
  32   16   36 1
  33   16   37 1
  34   16   38 1
  35   17   18 ar
  36   17   22 ar
  37   18   19 ar
  38   18   39 1
  39   19   20 ar
  40   19   40 1
  41   20   21 ar
  42   20   41 1
  43   21   22 ar
  44   21   42 1
  45   22   43 1

#	End of record

