#	Name: ASD01911025
#	Creating user name:	WinNT
#	Creation time:	15. 06. 2019 19:57

#	Modifying user name:	WinNT
#	Modification time:	15. 06. 2019 19:57

#	Program:	/corina/corina34_cracker 3.40 0067  02.08.2006

@<TRIPOS>MOLECULE
ASD01911025
  67   71    0    0    0
SMALL
NO_CHARGES


@<TRIPOS>ATOM
   1 N1            -4.4833    -3.3051     1.1944 N.3     
   2 C2            -3.1118    -2.8181     1.3943 C.3     
   3 C3            -2.4423    -2.6131     0.0312 C.3     
   4 N4            -3.3000    -1.7393    -0.7839 N.am    
   5 C5            -4.7223    -2.0890    -0.9178 C.3     
   6 C6            -5.3020    -2.3146     0.4827 C.3     
   7 C7            -2.7957    -0.6475    -1.3923 C.2     
   8 C8            -3.6406     0.1427    -2.3095 C.ar    
   9 C9            -3.5696     1.5391    -2.2974 C.ar    
  10 C10           -4.3566     2.2817    -3.1512 C.ar    
  11 C11           -5.2249     1.6497    -4.0291 C.ar    
  12 C12           -5.3046     0.2477    -4.0507 C.ar    
  13 C13           -4.5055    -0.5035    -3.1922 C.ar    
  14 C14           -6.2006    -0.4072    -4.9557 C.1     
  15 O15           -1.6451    -0.3134    -1.1858 O.2     
  16 C16           -6.9351    -0.9441    -5.6976 C.1     
  17 C17           -7.8311    -1.5991    -6.6025 C.ar    
  18 C18           -7.9102    -2.9945    -6.6238 C.ar    
  19 C19           -8.7739    -3.6202    -7.4965 C.ar    
  20 C20           -9.5650    -2.8665    -8.3540 C.ar    
  21 C21           -9.4900    -1.4797    -8.3365 C.ar    
  22 C22           -8.6335    -0.8448    -7.4634 C.ar    
  23 C23           -5.0685    -3.6576     2.4057 C.ar    
  24 O24           -5.9974     2.3859    -4.8664 O.3     
  25 C25           -5.9241    -4.7540     2.4653 C.ar    
  26 C26           -6.4990    -5.0935     3.6778 C.ar    
  27 C27           -6.1978    -4.3227     4.7927 C.ar    
  28 C28           -5.3405    -3.2487     4.6608 C.ar    
  29 N29           -4.8026    -2.9509     3.4932 N.ar    
  30 C30           -5.8652     3.8067    -4.7901 C.3     
  31 Cl31          -6.2659    -5.6822     1.0387 Cl      
  32 O32          -10.4148    -3.4879    -9.2129 O.3     
  33 C33          -11.1993    -2.6530   -10.0670 C.3     
  34 C34          -12.0749    -3.5118   -10.9426 C.ar    
  35 C35          -13.3401    -3.8698   -10.5159 C.ar    
  36 C36          -14.1433    -4.6576   -11.3191 C.ar    
  37 C37          -13.6815    -5.0870   -12.5493 C.ar    
  38 C38          -12.4166    -4.7283   -12.9764 C.ar    
  39 C39          -11.6151    -3.9369   -12.1750 C.ar    
  40 H40           -3.1371    -1.8709     1.9332 H       
  41 H41           -2.5463    -3.5501     1.9709 H       
  42 H42           -1.4678    -2.1446     0.1687 H       
  43 H43           -2.3222    -3.5755    -0.4662 H       
  44 H44           -5.2551    -1.2740    -1.4077 H       
  45 H45           -4.8213    -3.0010    -1.5063 H       
  46 H46           -6.3249    -2.6815     0.3981 H       
  47 H47           -5.2968    -1.3745     1.0343 H       
  48 H48           -2.8960     2.0376    -1.6162 H       
  49 H49           -4.2971     3.3600    -3.1365 H       
  50 H50           -4.5617    -1.5819    -3.2041 H       
  51 H51           -7.2951    -3.5813    -5.9577 H       
  52 H52           -8.8354    -4.6983    -7.5139 H       
  53 H53          -10.1069    -0.8980    -9.0054 H       
  54 H54           -8.5759     0.2336    -7.4505 H       
  55 H55           -7.1671    -5.9386     3.7549 H       
  56 H56           -6.6300    -4.5608     5.7534 H       
  57 H57           -5.1039    -2.6465     5.5256 H       
  58 H58           -6.5370     4.2733    -5.5106 H       
  59 H59           -6.1209     4.1420    -3.7850 H       
  60 H60           -4.8370     4.0886    -5.0166 H       
  61 H61          -11.8238    -1.9973    -9.4602 H       
  62 H62          -10.5398    -2.0507   -10.6918 H       
  63 H63          -13.7009    -3.5343    -9.5549 H       
  64 H64          -15.1315    -4.9378   -10.9855 H       
  65 H65          -14.3087    -5.7031   -13.1765 H       
  66 H66          -12.0557    -5.0641   -13.9373 H       
  67 H67          -10.6269    -3.6566   -12.5087 H       
@<TRIPOS>BOND
   1    1    2 1
   2    1   23 1
   3    1    6 1
   4    2    3 1
   5    2   40 1
   6    2   41 1
   7    3    4 1
   8    3   42 1
   9    3   43 1
  10    4    5 1
  11    4    7 am
  12    5    6 1
  13    5   44 1
  14    5   45 1
  15    6   46 1
  16    6   47 1
  17    7    8 1
  18    7   15 2
  19    8    9 ar
  20    8   13 ar
  21    9   10 ar
  22    9   48 1
  23   10   11 ar
  24   10   49 1
  25   11   12 ar
  26   11   24 1
  27   12   13 ar
  28   12   14 1
  29   13   50 1
  30   14   16 3
  31   16   17 1
  32   17   18 ar
  33   17   22 ar
  34   18   19 ar
  35   18   51 1
  36   19   20 ar
  37   19   52 1
  38   20   21 ar
  39   20   32 1
  40   21   22 ar
  41   21   53 1
  42   22   54 1
  43   23   25 ar
  44   23   29 ar
  45   24   30 1
  46   25   26 ar
  47   25   31 1
  48   26   27 ar
  49   26   55 1
  50   27   28 ar
  51   27   56 1
  52   28   29 ar
  53   28   57 1
  54   30   58 1
  55   30   59 1
  56   30   60 1
  57   32   33 1
  58   33   34 1
  59   33   61 1
  60   33   62 1
  61   34   35 ar
  62   34   39 ar
  63   35   36 ar
  64   35   63 1
  65   36   37 ar
  66   36   64 1
  67   37   38 ar
  68   37   65 1
  69   38   39 ar
  70   38   66 1
  71   39   67 1

#	End of record

