#	Name: ASD01911458
#	Creating user name:	WinNT
#	Creation time:	15. 06. 2019 19:57

#	Modifying user name:	WinNT
#	Modification time:	15. 06. 2019 19:57

#	Program:	/corina/corina34_cracker 3.40 0067  02.08.2006

@<TRIPOS>MOLECULE
ASD01911458
  27   27    0    0    0
SMALL
NO_CHARGES


@<TRIPOS>ATOM
   1 C1            -0.0187     1.5258     0.0104 C.3     
   2 C2             0.0021    -0.0041     0.0020 C.3     
   3 N3             0.7900    -0.4755    -1.1395 N.pl3   
   4 N4             1.3595     2.0342     0.0000 N.3     
   5 C5             0.9523    -1.8391    -1.3565 C.ar    
   6 C6             0.3635    -2.7506    -0.4856 C.ar    
   7 C7             0.5329    -4.1041    -0.7131 C.ar    
   8 C8             1.2885    -4.5028    -1.8086 C.ar    
   9 C9             1.8441    -3.5436    -2.6318 C.ar    
  10 N10            1.6610    -2.2586    -2.3931 N.ar    
  11 I11            1.5827    -6.5384    -2.2070 I       
  12 C12           -0.7587     2.0326    -1.2291 C.3     
  13 C13           -0.7348     2.0192     1.2692 C.3     
  14 H14            0.4501    -0.3665     0.9272 H       
  15 H15           -1.0175    -0.3808    -0.0798 H       
  16 H16            1.1985     0.1638    -1.7440 H       
  17 H17            1.3729     3.0414    -0.0597 H       
  18 H18            1.8695     1.7131     0.8092 H       
  19 H19           -0.2175    -2.4057     0.3569 H       
  20 H20            0.0881    -4.8348    -0.0537 H       
  21 H21            2.4325    -3.8488    -3.4844 H       
  22 H22           -1.7813     1.6553    -1.2214 H       
  23 H23           -0.7734     3.1225    -1.2231 H       
  24 H24           -0.2485     1.6811    -2.1259 H       
  25 H25           -0.2076     1.6581     2.1523 H       
  26 H26           -0.7496     3.1091     1.2752 H       
  27 H27           -1.7574     1.6419     1.2770 H       
@<TRIPOS>BOND
   1    1    2 1
   2    1    4 1
   3    1   12 1
   4    1   13 1
   5    2    3 1
   6    2   14 1
   7    2   15 1
   8    3    5 1
   9    3   16 1
  10    4   17 1
  11    4   18 1
  12    5    6 ar
  13    5   10 ar
  14    6    7 ar
  15    6   19 1
  16    7    8 ar
  17    7   20 1
  18    8    9 ar
  19    8   11 1
  20    9   10 ar
  21    9   21 1
  22   12   22 1
  23   12   23 1
  24   12   24 1
  25   13   25 1
  26   13   26 1
  27   13   27 1

#	End of record

