#	Name: ASD04910376
#	Creating user name:	WinNT
#	Creation time:	15. 06. 2019 20:55

#	Modifying user name:	WinNT
#	Modification time:	15. 06. 2019 20:55

#	Program:	/corina/corina34_cracker 3.40 0067  02.08.2006

@<TRIPOS>MOLECULE
ASD04910376
  25   26    0    0    0
SMALL
NO_CHARGES


@<TRIPOS>ATOM
   1 N1            -0.0169     1.3949     0.0097 N.pl3   
   2 N2             0.0021    -0.0041     0.0020 N.2     
   3 C3             1.2405    -0.4124    -0.0120 C.2     
   4 C4             2.0781     0.7291    -0.0139 C.2     
   5 C5             1.2509     1.8399    -0.0000 C.2     
   6 C6             3.5444     0.7343    -0.0271 C.2     
   7 O7             4.1547    -0.3142    -0.0383 O.2     
   8 C8            -1.1664     2.1980     0.0197 C.ar    
   9 C9            -2.4244     1.6102     0.0232 C.ar    
  10 C10           -3.5557     2.4013     0.0336 C.ar    
  11 C11           -3.4359     3.7836     0.0400 C.ar    
  12 C12           -2.1791     4.3716     0.0360 C.ar    
  13 C13           -1.0471     3.5814     0.0319 C.ar    
  14 O14           -4.5502     4.5622     0.0497 O.3     
  15 C15           -4.3527     5.9774     0.0559 C.3     
  16 H16            1.5696    -1.4410    -0.0201 H       
  17 H17            1.5666     2.8728     0.0020 H       
  18 H18            4.0811     1.6715    -0.0269 H       
  19 H19           -2.5177     0.5342     0.0175 H       
  20 H20           -4.5342     1.9442     0.0363 H       
  21 H21           -2.0864     5.4476     0.0403 H       
  22 H22           -0.0689     4.0391     0.0337 H       
  23 H23           -3.7890     6.2618     0.9444 H       
  24 H24           -3.7982     6.2708    -0.8355 H       
  25 H25           -5.3203     6.4793     0.0635 H       
@<TRIPOS>BOND
   1    1    2 1
   2    1    5 1
   3    1    8 1
   4    2    3 2
   5    3    4 1
   6    3   16 1
   7    4    5 2
   8    4    6 1
   9    5   17 1
  10    6    7 2
  11    6   18 1
  12    8    9 ar
  13    8   13 ar
  14    9   10 ar
  15    9   19 1
  16   10   11 ar
  17   10   20 1
  18   11   12 ar
  19   11   14 1
  20   12   13 ar
  21   12   21 1
  22   13   22 1
  23   14   15 1
  24   15   23 1
  25   15   24 1
  26   15   25 1

#	End of record

