#	Name: ASD02908007
#	Creating user name:	WinNT
#	Creation time:	15. 06. 2019 20:26

#	Modifying user name:	WinNT
#	Modification time:	15. 06. 2019 20:26

#	Program:	/corina/corina34_cracker 3.40 0067  02.08.2006

@<TRIPOS>MOLECULE
ASD02908007
  38   39    0    0    0
SMALL
NO_CHARGES


@<TRIPOS>ATOM
   1 C1            -0.0184     1.5028     0.0103 C.2     
   2 N2             1.3897    -0.4735    -0.0138 N.am    
   3 C3             0.0021    -0.0041     0.0020 C.3     
   4 C4            -0.7002    -0.5305     1.2552 C.3     
   5 C5            -0.0517     0.0815     2.4985 C.3     
   6 C6            -2.1803    -0.1456     1.2101 C.3     
   7 O7             1.0197     2.1211     0.0037 O.2     
   8 O8            -1.1898     2.1580     0.0194 O.3     
   9 C9             2.0495    -0.5869    -1.1835 C.2     
  10 O10            1.4945    -0.3002    -2.2230 O.2     
  11 C11            3.4770    -1.0698    -1.1997 C.3     
  12 N12            4.5151    -1.8235    -4.6510 N.pl3   
  13 C13            3.9838    -2.1700    -3.4386 C.2     
  14 C14            3.9789    -1.1059    -2.6202 C.2     
  15 C15            4.5541     0.0135    -3.3698 C.ar    
  16 C16            4.8110     1.3527    -3.0695 C.ar    
  17 C17            5.3726     2.1641    -4.0144 C.ar    
  18 C18            5.6902     1.6678    -5.2715 C.ar    
  19 C19            5.4450     0.3500    -5.5890 C.ar    
  20 C20            4.8742    -0.4943    -4.6420 C.ar    
  21 H21            1.8336    -0.7028     0.8177 H       
  22 H22           -0.5153    -0.3696    -0.8850 H       
  23 H23           -0.6082    -1.6159     1.2944 H       
  24 H24           -0.5520    -0.2935     3.3912 H       
  25 H25            1.0027    -0.1927     2.5306 H       
  26 H26           -0.1438     1.1669     2.4592 H       
  27 H27           -2.6423    -0.5816     0.3244 H       
  28 H28           -2.6807    -0.5206     2.1029 H       
  29 H29           -2.2724     0.9398     1.1709 H       
  30 H30           -1.1523     3.1243     0.0245 H       
  31 H31            4.0965    -0.3920    -0.6125 H       
  32 H32            3.5267    -2.0708    -0.7712 H       
  33 H33            4.6261    -2.4256    -5.4033 H       
  34 H34            3.6217    -3.1537    -3.1787 H       
  35 H35            4.5662     1.7459    -2.0938 H       
  36 H36            5.5707     3.2000    -3.7817 H       
  37 H37            6.1338     2.3215    -6.0079 H       
  38 H38            5.6954    -0.0265    -6.5698 H       
@<TRIPOS>BOND
   1    1    3 1
   2    1    7 2
   3    1    8 1
   4    2    9 am
   5    2    3 1
   6    2   21 1
   7    3    4 1
   8    3   22 1
   9    4    5 1
  10    4    6 1
  11    4   23 1
  12    5   24 1
  13    5   25 1
  14    5   26 1
  15    6   27 1
  16    6   28 1
  17    6   29 1
  18    8   30 1
  19    9   10 2
  20    9   11 1
  21   11   14 1
  22   11   31 1
  23   11   32 1
  24   12   13 1
  25   12   20 1
  26   12   33 1
  27   13   14 2
  28   13   34 1
  29   14   15 1
  30   15   16 ar
  31   15   20 ar
  32   16   17 ar
  33   16   35 1
  34   17   18 ar
  35   17   36 1
  36   18   19 ar
  37   18   37 1
  38   19   20 ar
  39   19   38 1

#	End of record

