#	Name: ASD01911545
#	Creating user name:	WinNT
#	Creation time:	15. 06. 2019 19:58

#	Modifying user name:	WinNT
#	Modification time:	15. 06. 2019 19:58

#	Program:	/corina/corina34_cracker 3.40 0067  02.08.2006

@<TRIPOS>MOLECULE
ASD01911545
  35   37    0    0    0
SMALL
NO_CHARGES


@<TRIPOS>ATOM
   1 C1            -0.0144     1.2130     0.0087 C.2     
   2 O2            -0.0982     0.1771    -0.6250 O.2     
   3 S3             1.3217     3.7574    -0.1642 S.3     
   4 C4             3.0797     3.6545    -0.1418 C.2     
   5 N5             3.4414     2.3989    -0.0475 N.2     
   6 C6             2.4939     1.5063     0.0092 C.2     
   7 C7             1.2190     2.0024    -0.0377 C.2     
   8 C8             3.9748     4.7699    -0.2151 C.1     
   9 C9             4.7085     5.6844    -0.2752 C.1     
  10 C10            5.6035     6.7998    -0.3486 C.ar    
  11 C11            6.9863     6.5941    -0.3219 C.ar    
  12 C12            7.8417     7.6733    -0.3929 C.ar    
  13 C13            7.3348     8.9574    -0.4904 C.ar    
  14 C14            5.9674     9.1691    -0.5169 C.ar    
  15 C15            5.0992     8.0997    -0.4530 C.ar    
  16 N16           -1.0582     1.6366     0.7486 N.am    
  17 C17           -0.9394     2.8157     1.6210 C.3     
  18 C18           -2.1122     3.7571     1.3240 C.3     
  19 O19           -3.3370     3.0247     1.4098 O.3     
  20 C20           -3.4546     1.9671     0.4551 C.3     
  21 C21           -2.3522     0.9374     0.7033 C.3     
  22 H22            2.7001     0.4491     0.0873 H       
  23 H23            7.3833     5.5926    -0.2455 H       
  24 H24            8.9100     7.5161    -0.3721 H       
  25 H25            8.0098     9.7987    -0.5457 H       
  26 H26            5.5793    10.1742    -0.5924 H       
  27 H27            4.0324     8.2661    -0.4788 H       
  28 H28           -0.9735     2.5048     2.6651 H       
  29 H29            0.0019     3.3274     1.4204 H       
  30 H30           -2.1213     4.5683     2.0520 H       
  31 H31           -2.0036     4.1686     0.3205 H       
  32 H32           -4.4295     1.4906     0.5580 H       
  33 H33           -3.3510     2.3722    -0.5515 H       
  34 H34           -2.3461     0.2059    -0.1047 H       
  35 H35           -2.5310     0.4342     1.6535 H       
@<TRIPOS>BOND
   1    1    2 2
   2    1    7 1
   3    1   16 am
   4    3    4 1
   5    3    7 1
   6    4    5 2
   7    4    8 1
   8    5    6 1
   9    6    7 2
  10    6   22 1
  11    8    9 3
  12    9   10 1
  13   10   11 ar
  14   10   15 ar
  15   11   12 ar
  16   11   23 1
  17   12   13 ar
  18   12   24 1
  19   13   14 ar
  20   13   25 1
  21   14   15 ar
  22   14   26 1
  23   15   27 1
  24   16   17 1
  25   16   21 1
  26   17   18 1
  27   17   28 1
  28   17   29 1
  29   18   19 1
  30   18   30 1
  31   18   31 1
  32   19   20 1
  33   20   21 1
  34   20   32 1
  35   20   33 1
  36   21   34 1
  37   21   35 1

#	End of record

