#	Name: ASD01141014
#	Creating user name:	WinNT
#	Creation time:	15. 06. 2019 19:01

#	Modifying user name:	WinNT
#	Modification time:	15. 06. 2019 19:01

#	Program:	/corina/corina34_cracker 3.40 0067  02.08.2006

@<TRIPOS>MOLECULE
ASD01141014
  43   46    0    0    0
SMALL
NO_CHARGES


@<TRIPOS>ATOM
   1 C1            -0.0183     1.4973     0.0103 C.2     
   2 C2             0.0021    -0.0041     0.0020 C.3     
   3 C3             1.3499    -0.5166    -0.5104 C.3     
   4 C4             2.4691     0.2088     0.2510 C.3     
   5 N5             2.3294     1.6475    -0.0206 N.am    
   6 N6             1.0497     2.2176     0.0039 N.2     
   7 C7            -1.3765     3.5659     0.0278 C.ar    
   8 C8            -1.3246     2.1806     0.0201 C.ar    
   9 C9            -2.5096     1.4220     0.0210 C.ar    
  10 C10           -3.7239     2.0284     0.0294 C.ar    
  11 C11           -3.8097     3.4325     0.0378 C.ar    
  12 C12           -5.0555     4.0820     0.0461 C.ar    
  13 C13           -5.1074     5.4424     0.0538 C.ar    
  14 C14           -3.9413     6.2056     0.0531 C.ar    
  15 C15           -2.7165     5.6125     0.0448 C.ar    
  16 C16           -2.6227     4.2089     0.0376 C.ar    
  17 S17            3.6603     2.5767    -0.3489 S.o2    
  18 O18            3.3496     3.8919     0.0903 O.2     
  19 O19            4.7853     1.8461     0.1200 O.2     
  20 C20            3.8176     2.6616    -2.1018 C.ar    
  21 C21            3.1916     3.6747    -2.8037 C.ar    
  22 C22            3.3150     3.7413    -4.1789 C.ar    
  23 C23            4.0647     2.7950    -4.8522 C.ar    
  24 C24            4.6914     1.7824    -4.1502 C.ar    
  25 C25            4.5716     1.7183    -2.7746 C.ar    
  26 H26           -0.1623    -0.3724     1.0146 H       
  27 H27           -0.7935    -0.3719    -0.6460 H       
  28 H28            1.4241    -1.5899    -0.3354 H       
  29 H29            1.4389    -0.3096    -1.5769 H       
  30 H30            2.3699     0.0227     1.3204 H       
  31 H31            3.4408    -0.1410    -0.0977 H       
  32 H32           -0.4649     4.1450     0.0312 H       
  33 H33           -2.4523     0.3435     0.0145 H       
  34 H34           -4.6247     1.4326     0.0293 H       
  35 H35           -5.9681     3.5045     0.0460 H       
  36 H36           -6.0671     5.9378     0.0601 H       
  37 H37           -4.0106     7.2833     0.0590 H       
  38 H38           -1.8211     6.2163     0.0443 H       
  39 H39            2.6059     4.4141    -2.2776 H       
  40 H40            2.8254     4.5325    -4.7273 H       
  41 H41            4.1605     2.8466    -5.9267 H       
  42 H42            5.2769     1.0428    -4.6763 H       
  43 H43            5.0642     0.9293    -2.2258 H       
@<TRIPOS>BOND
   1    1    2 1
   2    1    6 2
   3    1    8 1
   4    2    3 1
   5    2   26 1
   6    2   27 1
   7    3    4 1
   8    3   28 1
   9    3   29 1
  10    4    5 1
  11    4   30 1
  12    4   31 1
  13    5    6 1
  14    5   17 am
  15    7    8 ar
  16    7   16 ar
  17    7   32 1
  18    8    9 ar
  19    9   10 ar
  20    9   33 1
  21   10   11 ar
  22   10   34 1
  23   11   12 ar
  24   11   16 ar
  25   12   13 ar
  26   12   35 1
  27   13   14 ar
  28   13   36 1
  29   14   15 ar
  30   14   37 1
  31   15   16 ar
  32   15   38 1
  33   17   18 2
  34   17   19 2
  35   17   20 1
  36   20   21 ar
  37   20   25 ar
  38   21   22 ar
  39   21   39 1
  40   22   23 ar
  41   22   40 1
  42   23   24 ar
  43   23   41 1
  44   24   25 ar
  45   24   42 1
  46   25   43 1

#	End of record

