#	Name: ASD06600007
#	Creating user name:	WinNT
#	Creation time:	15. 06. 2019 21:06

#	Modifying user name:	WinNT
#	Modification time:	15. 06. 2019 21:06

#	Program:	/corina/corina34_cracker 3.40 0067  02.08.2006

@<TRIPOS>MOLECULE
ASD06600007
 254  254    0    0    0
SMALL
NO_CHARGES


@<TRIPOS>ATOM
   1 C1             0.2015     1.2785    -2.5027 C.2     
   2 O2             0.2150     0.0705    -2.3955 O.2     
   3 N3             2.6128     1.0886    -2.6999 N.am    
   4 C4             1.4931     2.0332    -2.6852 C.3     
   5 C5             1.4539     2.7984    -4.0095 C.3     
   6 C6             2.7104     3.6621    -4.1369 C.3     
   7 C7             2.7326     4.3304    -5.5130 C.3     
   8 C8             2.7030     4.7369    -3.0480 C.3     
   9 C9            -3.3598     2.0143    -2.8746 C.2     
  10 O10           -3.1409     3.0938    -3.3823 O.2     
  11 N11           -0.9690     1.9454    -2.4642 N.am    
  12 C12           -2.2251     1.2111    -2.2929 C.3     
  13 C13           -2.4787     0.9752    -0.8026 C.3     
  14 C14           -1.3927     0.0563    -0.2397 C.3     
  15 C15           -1.6425    -0.1761     1.2282 C.2     
  16 O16           -2.5918     0.3403     1.7686 O.2     
  17 O17           -0.8104    -0.9568     1.9353 O.3     
  18 C18           -7.0111     1.9212    -2.7231 C.2     
  19 O19           -7.0092     1.0728    -1.8565 O.2     
  20 N20           -4.6180     1.5330    -2.8306 N.am    
  21 C21           -5.7211     2.3138    -3.3961 C.3     
  22 C22           -5.8244     2.0375    -4.8974 C.3     
  23 C23           -4.5647     2.5503    -5.5982 C.3     
  24 C24           -4.6679     2.2739    -7.0995 C.3     
  25 N25           -3.4617     2.7649    -7.7705 N.pl3   
  26 C26           -3.3276     2.6261    -9.1317 C.2     
  27 N27           -4.2736     2.0578    -9.8252 N.2     
  28 N28           -2.1957     3.0869    -9.7614 N.pl3   
  29 C29          -10.5771     2.4224    -3.3518 C.2     
  30 O30          -10.3737     2.9015    -4.4473 O.2     
  31 N31           -8.1668     2.5130    -3.0843 N.am    
  32 C32           -9.4209     2.1313    -2.4302 C.3     
  33 C33           -9.5856     2.9319    -1.1368 C.3     
  34 C34           -8.4975     2.5491    -0.1670 C.2     
  35 C35           -7.6349     3.3945     0.4286 C.2     
  36 N36           -6.8220     2.6345     1.2256 N.pl3   
  37 C37           -7.2164     1.3502     1.0892 C.2     
  38 N38           -8.2221     1.3073     0.2586 N.2     
  39 C39          -14.2130     2.6382    -3.0410 C.2     
  40 O40          -14.1704     2.5559    -1.8317 O.2     
  41 N41          -11.8372     2.1503    -2.9587 N.am    
  42 C42          -12.9612     2.4333    -3.8547 C.3     
  43 C43          -13.1611     1.2550    -4.8100 C.3     
  44 C44          -11.9395     1.1248    -5.7219 C.3     
  45 C45          -12.1393    -0.0535    -6.6772 C.3     
  46 N46          -10.9696    -0.1781    -7.5503 N.pl3   
  47 C47          -10.9218    -1.1733    -8.4976 C.2     
  48 N48           -9.8810    -1.2842    -9.2744 N.2     
  49 N49          -11.9717    -2.0516    -8.6255 N.pl3   
  50 C50          -17.8031     2.7948    -3.7117 C.2     
  51 O51          -17.6604     2.4376    -4.8619 O.2     
  52 N52          -15.3798     2.9128    -3.6571 N.am    
  53 C53          -16.5967     3.1120    -2.8661 C.3     
  54 C54          -16.6693     4.5674    -2.3996 C.3     
  55 C55          -15.5119     4.8539    -1.4409 C.3     
  56 C56          -15.5833     6.2874    -0.9814 C.2     
  57 O57          -16.4724     7.0088    -1.3814 O.2     
  58 N58          -14.6592     6.7677    -0.1260 N.am    
  59 C59          -21.4093     3.3478    -3.4815 C.2     
  60 O60          -21.2934     4.0675    -2.5122 O.2     
  61 N61          -19.0405     2.9082    -3.1898 N.am    
  62 C62          -20.2133     2.5998    -4.0119 C.3     
  63 C63          -20.4894     1.0957    -3.9626 C.3     
  64 C64          -19.2319     0.3323    -4.3830 C.3     
  65 O65          -20.8515     0.7212    -2.6320 O.3     
  66 C66          -25.0311     3.2168    -3.9590 C.2     
  67 O67          -24.9651     2.1921    -4.6044 O.2     
  68 N68          -22.6076     3.2168    -4.0842 N.am    
  69 C69          -23.7702     3.9439    -3.5686 C.3     
  70 C70          -23.7919     5.3553    -4.1588 C.3     
  71 C71          -22.5734     6.1351    -3.6608 C.3     
  72 C72          -22.5951     7.5466    -4.2510 C.3     
  73 N73          -21.4283     8.2932    -3.7742 N.pl3   
  74 C74          -21.2340     9.5940    -4.1746 C.2     
  75 N75          -22.0878    10.1629    -4.9785 N.2     
  76 N76          -20.1390    10.2947    -3.7272 N.pl3   
  77 C77          -28.6074     3.9719    -4.0104 C.2     
  78 O78          -28.4212     5.1411    -3.7476 O.2     
  79 N79          -26.2321     3.7051    -3.5910 N.am    
  80 C80          -27.4579     2.9982    -3.9705 C.3     
  81 C81          -27.7531     1.9023    -2.9445 C.3     
  82 O82          -28.0380     2.4997    -1.6780 O.3     
  83 C83          -32.2534     3.7494    -4.1531 C.2     
  84 O84          -32.2428     2.5492    -3.9786 O.2     
  85 N85          -29.8425     3.5433    -4.3380 N.am    
  86 C86          -30.9600     4.4898    -4.3768 C.3     
  87 C87          -30.9968     5.1799    -5.7418 C.3     
  88 O88          -31.2836     4.2147    -6.7559 O.3     
  89 C89          -35.8143     4.4739    -4.5507 C.2     
  90 O90          -35.6923     5.6607    -4.7685 O.2     
  91 N91          -33.4220     4.4209    -4.1471 N.am    
  92 C92          -34.6793     3.7011    -3.9297 C.3     
  93 C93          -34.9271     3.5497    -2.4275 C.3     
  94 C94          -33.7852     2.7472    -1.8006 C.3     
  95 O95          -34.9890     4.8427    -1.8222 O.3     
  96 C96          -38.8915     5.1675    -4.2068 C.2     
  97 O97          -38.5356     4.9416    -3.0745 O.2     
  98 N98          -36.9651     3.8461    -4.8641 N.am    
  99 C99          -38.1054     4.6153    -5.3680 C.3     
 100 C100         -39.0050     3.7043    -6.2056 C.3     
 101 C101         -38.2456     3.2432    -7.4513 C.3     
 102 C102         -39.1317     2.3458    -8.2763 C.2     
 103 O103         -40.2553     2.1002    -7.9060 O.2     
 104 O104         -38.6727     1.8193    -9.4225 O.3     
 105 O105         -39.9869     5.9102    -4.4305 O.3     
 106 C106           3.8471     1.5011    -2.3494 C.2     
 107 O107           4.0308     2.6543    -2.0218 O.2     
 108 C108          22.1353    -1.3506     0.5829 C.3     
 109 C109          20.9659    -0.3641     0.5982 C.3     
 110 C110          19.6872    -1.0821     0.1618 C.3     
 111 C111          18.5178    -0.0956     0.1772 C.3     
 112 C112          17.2392    -0.8135    -0.2593 C.3     
 113 C113          16.0698     0.1730    -0.2439 C.3     
 114 C114          14.7911    -0.5449    -0.6803 C.3     
 115 C115          13.6217     0.4416    -0.6649 C.3     
 116 C116          12.3431    -0.2763    -1.1014 C.3     
 117 C117          11.1737     0.7102    -1.0860 C.3     
 118 C118           9.8950    -0.0077    -1.5224 C.3     
 119 C119           8.7256     0.9788    -1.5070 C.3     
 120 C120           7.4469     0.2609    -1.9435 C.3     
 121 C121           6.2776     1.2474    -1.9281 C.3     
 122 C122           4.9989     0.5294    -2.3646 C.3     
 123 H123           2.4658     0.1663    -2.9619 H       
 124 H124           1.6221     2.7368    -1.8627 H       
 125 H125           1.4143     2.0903    -4.8372 H       
 126 H126           0.5705     3.4364    -4.0345 H       
 127 H127           3.5950     3.0355    -4.0229 H       
 128 H128           1.8480     4.9569    -5.6270 H       
 129 H129           3.6277     4.9457    -5.6038 H       
 130 H130           2.7378     3.5647    -6.2888 H       
 131 H131           2.6872     4.2608    -2.0676 H       
 132 H132           3.5982     5.3522    -3.1388 H       
 133 H133           1.8184     5.3634    -3.1620 H       
 134 H134          -0.9798     2.9115    -2.5499 H       
 135 H135          -2.1582     0.2520    -2.8064 H       
 136 H136          -2.4573     1.9288    -0.2750 H       
 137 H137          -3.4546     0.5083    -0.6696 H       
 138 H138          -1.4142    -0.8973    -0.7673 H       
 139 H139          -0.4168     0.5232    -0.3727 H       
 140 H140          -1.0116    -1.0762     2.8736 H       
 141 H141          -4.7931     0.6697    -2.4245 H       
 142 H142          -5.5352     3.3756    -3.2340 H       
 143 H143          -5.9214     0.9646    -5.0635 H       
 144 H144          -6.6984     2.5483    -5.3015 H       
 145 H145          -4.4676     3.6231    -5.4320 H       
 146 H146          -3.6906     2.0395    -5.1940 H       
 147 H147          -4.7650     1.2011    -7.2656 H       
 148 H148          -5.5420     2.7847    -7.5036 H       
 149 H149          -2.7577     3.1879    -7.2544 H       
 150 H150          -4.1790     1.9598   -10.7856 H       
 151 H151          -1.4917     3.5099    -9.2453 H       
 152 H152          -2.1010     2.9890   -10.7218 H       
 153 H153          -8.1684     3.1916    -3.7775 H       
 154 H154          -9.4003     1.0665    -2.1982 H       
 155 H155          -9.5173     3.9971    -1.3576 H       
 156 H156         -10.5584     2.7139    -0.6959 H       
 157 H157          -7.5924     4.4662     0.3016 H       
 158 H158          -6.0979     2.9580     1.7841 H       
 159 H159          -6.7752     0.4998     1.5879 H       
 160 H160         -12.0000     1.7672    -2.0826 H       
 161 H161         -12.7498     3.3351    -4.4293 H       
 162 H162         -13.2843     0.3375    -4.2345 H       
 163 H163         -14.0506     1.4257    -5.4164 H       
 164 H164         -11.8162     2.0423    -6.2974 H       
 165 H165         -11.0500     0.9541    -5.1154 H       
 166 H166         -12.2626    -0.9709    -6.1017 H       
 167 H167         -13.0288     0.1173    -7.2836 H       
 168 H168         -10.2288     0.4416    -7.4600 H       
 169 H169          -9.8473    -1.9864    -9.9428 H       
 170 H170         -12.7463    -1.9691    -8.0474 H       
 171 H171         -11.9380    -2.7538    -9.2939 H       
 172 H172         -15.4139     2.9786    -4.6243 H       
 173 H173         -16.5779     2.4528    -1.9982 H       
 174 H174         -16.5986     5.2294    -3.2626 H       
 175 H175         -17.6161     4.7379    -1.8873 H       
 176 H176         -15.5825     4.1918    -0.5779 H       
 177 H177         -14.5650     4.6833    -1.9531 H       
 178 H178         -13.9481     6.1907     0.1939 H       
 179 H179         -14.7051     7.6904     0.1697 H       
 180 H180         -19.1546     3.1939    -2.2699 H       
 181 H181         -20.0241     2.9009    -5.0422 H       
 182 H182         -21.3059     0.8538    -4.6431 H       
 183 H183         -18.4155     0.5743    -3.7026 H       
 184 H184         -19.4287    -0.7392    -4.3480 H       
 185 H185         -18.9558     0.6180    -5.3980 H       
 186 H186         -20.1702     0.9080    -1.9716 H       
 187 H187         -22.7003     2.6412    -4.8594 H       
 188 H188         -23.7078     4.0053    -2.4821 H       
 189 H189         -23.7647     5.2947    -5.2468 H       
 190 H190         -24.7027     5.8660    -3.8460 H       
 191 H191         -22.6006     6.1958    -2.5729 H       
 192 H192         -21.6626     5.6245    -3.9736 H       
 193 H193         -22.5678     7.4859    -5.3390 H       
 194 H194         -23.5058     8.0572    -3.9383 H       
 195 H195         -20.7928     7.8698    -3.1760 H       
 196 H196         -21.9507    11.0807    -5.2610 H       
 197 H197         -19.5036     9.8713    -3.1290 H       
 198 H198         -20.0019    11.2125    -4.0097 H       
 199 H199         -26.2850     4.5247    -3.0748 H       
 200 H200         -27.3281     2.5488    -4.9551 H       
 201 H201         -28.6135     1.3193    -3.2730 H       
 202 H202         -26.8857     1.2489    -2.8511 H       
 203 H203         -28.2349     1.8624    -0.9779 H       
 204 H204         -29.9915     2.6081    -4.5482 H       
 205 H205         -30.8298     5.2379    -3.5948 H       
 206 H206         -31.7716     5.9466    -5.7405 H       
 207 H207         -30.0297     5.6409    -5.9421 H       
 208 H208         -31.3224     4.5826    -7.6493 H       
 209 H209         -33.4305     5.3808    -4.2867 H       
 210 H210         -34.6173     2.7146    -4.3890 H       
 211 H211         -35.8700     3.0272    -2.2657 H       
 212 H212         -32.8596     3.3188    -1.8681 H       
 213 H213         -34.0135     2.5476    -0.7537 H       
 214 H214         -33.6691     1.8034    -2.3335 H       
 215 H215         -35.6918     5.4074    -2.1719 H       
 216 H216         -37.0382     2.8849    -4.7559 H       
 217 H217         -37.7445     5.4374    -5.9861 H       
 218 H218         -39.2941     2.8356    -5.6140 H       
 219 H219         -39.8979     4.2524    -6.5066 H       
 220 H220         -37.9566     4.1118    -8.0429 H       
 221 H221         -37.3528     2.6951    -7.1503 H       
 222 H222         -39.2776     1.2498    -9.9173 H       
 223 H223         -40.4581     6.2424    -3.6542 H       
 224 H224          23.0462    -0.8392     0.8938 H       
 225 H225          21.9272    -2.1715     1.2691 H       
 226 H226          22.2655    -1.7440    -0.4253 H       
 227 H227          20.8356     0.0293     1.6064 H       
 228 H228          21.1740     0.4567    -0.0880 H       
 229 H229          19.8175    -1.4755    -0.8464 H       
 230 H230          19.4791    -1.9029     0.8481 H       
 231 H231          18.3876     0.2978     1.1853 H       
 232 H232          18.7259     0.7253    -0.5091 H       
 233 H233          17.3694    -1.2069    -1.2674 H       
 234 H234          17.0311    -1.6344     0.4270 H       
 235 H235          15.9395     0.5664     0.7643 H       
 236 H236          16.2779     0.9939    -0.9301 H       
 237 H237          14.9213    -0.9383    -1.6885 H       
 238 H238          14.5830    -1.3658     0.0059 H       
 239 H239          13.4915     0.8350     0.3432 H       
 240 H240          13.8298     1.2625    -1.3512 H       
 241 H241          12.4733    -0.6697    -2.1095 H       
 242 H242          12.1350    -1.0972    -0.4151 H       
 243 H243          11.0434     1.1036    -0.0778 H       
 244 H244          11.3818     1.5311    -1.7723 H       
 245 H245          10.0252    -0.4011    -2.5306 H       
 246 H246           9.6869    -0.8286    -0.8362 H       
 247 H247           8.5954     1.3722    -0.4989 H       
 248 H248           8.9337     1.7997    -2.1933 H       
 249 H249           7.5772    -0.1325    -2.9516 H       
 250 H250           7.2388    -0.5600    -1.2572 H       
 251 H251           6.1473     1.6408    -0.9200 H       
 252 H252           6.4857     2.0682    -2.6144 H       
 253 H253           4.7908    -0.2914    -1.6783 H       
 254 H254           5.1291     0.1360    -3.3727 H       
@<TRIPOS>BOND
   1    1    2 2
   2    1    4 1
   3    1   11 am
   4    3  106 am
   5    3    4 1
   6    3  123 1
   7    4    5 1
   8    4  124 1
   9    5    6 1
  10    5  125 1
  11    5  126 1
  12    6    7 1
  13    6    8 1
  14    6  127 1
  15    7  128 1
  16    7  129 1
  17    7  130 1
  18    8  131 1
  19    8  132 1
  20    8  133 1
  21    9   10 2
  22    9   12 1
  23    9   20 am
  24   11   12 1
  25   11  134 1
  26   12   13 1
  27   12  135 1
  28   13   14 1
  29   13  136 1
  30   13  137 1
  31   14   15 1
  32   14  138 1
  33   14  139 1
  34   15   16 2
  35   15   17 1
  36   17  140 1
  37   18   19 2
  38   18   21 1
  39   18   31 am
  40   20   21 1
  41   20  141 1
  42   21   22 1
  43   21  142 1
  44   22   23 1
  45   22  143 1
  46   22  144 1
  47   23   24 1
  48   23  145 1
  49   23  146 1
  50   24   25 1
  51   24  147 1
  52   24  148 1
  53   25   26 1
  54   25  149 1
  55   26   27 2
  56   26   28 1
  57   27  150 1
  58   28  151 1
  59   28  152 1
  60   29   30 2
  61   29   32 1
  62   29   41 am
  63   31   32 1
  64   31  153 1
  65   32   33 1
  66   32  154 1
  67   33   34 1
  68   33  155 1
  69   33  156 1
  70   34   35 2
  71   34   38 1
  72   35   36 1
  73   35  157 1
  74   36   37 1
  75   36  158 1
  76   37   38 2
  77   37  159 1
  78   39   40 2
  79   39   42 1
  80   39   52 am
  81   41   42 1
  82   41  160 1
  83   42   43 1
  84   42  161 1
  85   43   44 1
  86   43  162 1
  87   43  163 1
  88   44   45 1
  89   44  164 1
  90   44  165 1
  91   45   46 1
  92   45  166 1
  93   45  167 1
  94   46   47 1
  95   46  168 1
  96   47   48 2
  97   47   49 1
  98   48  169 1
  99   49  170 1
 100   49  171 1
 101   50   51 2
 102   50   53 1
 103   50   61 am
 104   52   53 1
 105   52  172 1
 106   53   54 1
 107   53  173 1
 108   54   55 1
 109   54  174 1
 110   54  175 1
 111   55   56 1
 112   55  176 1
 113   55  177 1
 114   56   57 2
 115   56   58 am
 116   58  178 1
 117   58  179 1
 118   59   60 2
 119   59   62 1
 120   59   68 am
 121   61   62 1
 122   61  180 1
 123   62   63 1
 124   62  181 1
 125   63   64 1
 126   63   65 1
 127   63  182 1
 128   64  183 1
 129   64  184 1
 130   64  185 1
 131   65  186 1
 132   66   67 2
 133   66   69 1
 134   66   79 am
 135   68   69 1
 136   68  187 1
 137   69   70 1
 138   69  188 1
 139   70   71 1
 140   70  189 1
 141   70  190 1
 142   71   72 1
 143   71  191 1
 144   71  192 1
 145   72   73 1
 146   72  193 1
 147   72  194 1
 148   73   74 1
 149   73  195 1
 150   74   75 2
 151   74   76 1
 152   75  196 1
 153   76  197 1
 154   76  198 1
 155   77   78 2
 156   77   80 1
 157   77   85 am
 158   79   80 1
 159   79  199 1
 160   80   81 1
 161   80  200 1
 162   81   82 1
 163   81  201 1
 164   81  202 1
 165   82  203 1
 166   83   84 2
 167   83   86 1
 168   83   91 am
 169   85   86 1
 170   85  204 1
 171   86   87 1
 172   86  205 1
 173   87   88 1
 174   87  206 1
 175   87  207 1
 176   88  208 1
 177   89   90 2
 178   89   92 1
 179   89   98 am
 180   91   92 1
 181   91  209 1
 182   92   93 1
 183   92  210 1
 184   93   94 1
 185   93   95 1
 186   93  211 1
 187   94  212 1
 188   94  213 1
 189   94  214 1
 190   95  215 1
 191   96   97 2
 192   96   99 1
 193   96  105 1
 194   98   99 1
 195   98  216 1
 196   99  100 1
 197   99  217 1
 198  100  101 1
 199  100  218 1
 200  100  219 1
 201  101  102 1
 202  101  220 1
 203  101  221 1
 204  102  103 2
 205  102  104 1
 206  104  222 1
 207  105  223 1
 208  106  107 2
 209  106  122 1
 210  108  109 1
 211  108  224 1
 212  108  225 1
 213  108  226 1
 214  109  110 1
 215  109  227 1
 216  109  228 1
 217  110  111 1
 218  110  229 1
 219  110  230 1
 220  111  112 1
 221  111  231 1
 222  111  232 1
 223  112  113 1
 224  112  233 1
 225  112  234 1
 226  113  114 1
 227  113  235 1
 228  113  236 1
 229  114  115 1
 230  114  237 1
 231  114  238 1
 232  115  116 1
 233  115  239 1
 234  115  240 1
 235  116  117 1
 236  116  241 1
 237  116  242 1
 238  117  118 1
 239  117  243 1
 240  117  244 1
 241  118  119 1
 242  118  245 1
 243  118  246 1
 244  119  120 1
 245  119  247 1
 246  119  248 1
 247  120  121 1
 248  120  249 1
 249  120  250 1
 250  121  122 1
 251  121  251 1
 252  121  252 1
 253  122  253 1
 254  122  254 1

#	End of record

