#	Name: ASD01901287
#	Creating user name:	WinNT
#	Creation time:	15. 06. 2019 19:53

#	Modifying user name:	WinNT
#	Modification time:	15. 06. 2019 19:53

#	Program:	/corina/corina34_cracker 3.40 0067  02.08.2006

@<TRIPOS>MOLECULE
ASD01901287
  48   52    0    0    0
SMALL
NO_CHARGES


@<TRIPOS>ATOM
   1 C1             1.8894     1.3431    -0.0491 C.ar    
   2 C2             2.1597    -0.0093    -0.0490 C.ar    
   3 C3             3.4653    -0.4574     0.0492 C.ar    
   4 C4             4.5087     0.4462     0.1477 C.ar    
   5 C5             4.2538     1.8016     0.1484 C.ar    
   6 C6             2.9379     2.2617     0.0500 C.ar    
   7 C7             2.6653     3.6675     0.0501 C.1     
   8 C8             2.4418     4.8200     0.0503 C.1     
   9 C9             2.1692     6.2258     0.0504 C.ar    
  10 C10            0.5927     8.0393    -0.0419 C.ar    
  11 C11            0.8518     6.6839    -0.0428 C.ar    
  12 C12            3.2194     7.1431     0.1496 C.ar    
  13 C13            2.9530     8.4970     0.1499 C.ar    
  14 C14            1.6409     8.9496     0.0517 C.ar    
  15 N15            1.3741    10.3255     0.0518 N.am    
  16 N16            1.0831    12.3064    -1.1951 N.am    
  17 C17            1.3323    10.9880    -1.1147 C.2     
  18 C18            1.1584    10.9583     1.2255 C.2     
  19 C19            1.0537    12.9606    -2.5056 C.3     
  20 O20            1.1935    10.3498     2.2778 O.2     
  21 O21            1.5288    10.3692    -2.1427 O.2     
  22 C22            0.8530    13.0535    -0.0491 C.ar    
  23 C23            0.8800    12.4050     1.1979 C.ar    
  24 F24           -0.6802     8.4829    -0.1319 F       
  25 C25            0.5934    14.4142    -0.1088 C.ar    
  26 C26            0.6468    13.1286     2.3653 C.ar    
  27 C27            0.3903    14.4812     2.2860 C.ar    
  28 C28            0.3635    15.1197     1.0555 C.ar    
  29 F29            3.9673     9.3842     0.2462 F       
  30 C30            2.3172    12.7152    -3.3518 C.3     
  31 C31            0.3098    12.1541    -3.5868 C.3     
  32 O32            1.4053    12.5173    -4.4509 O.3     
  33 H33            0.8704     1.6915    -0.1300 H       
  34 H34            1.3504    -0.7204    -0.1255 H       
  35 H35            3.6709    -1.5177     0.0495 H       
  36 H36            5.5251     0.0892     0.2244 H       
  37 H37            5.0691     2.5057     0.2257 H       
  38 H38            0.0378     5.9779    -0.1158 H       
  39 H39            4.2380     6.7925     0.2262 H       
  40 H40            0.7562    14.0079    -2.4523 H       
  41 H41            0.5670    14.9195    -1.0629 H       
  42 H42            0.6664    12.6339     3.3251 H       
  43 H43            0.2089    15.0467     3.1880 H       
  44 H44            0.1614    16.1796     1.0074 H       
  45 H45            2.9534    13.5937    -3.4594 H       
  46 H46            2.8694    11.8187    -3.0701 H       
  47 H47            0.2490    11.0863    -3.3768 H       
  48 H48           -0.6461    12.5877    -3.8807 H       
@<TRIPOS>BOND
   1    1    2 ar
   2    1    6 ar
   3    1   33 1
   4    2    3 ar
   5    2   34 1
   6    3    4 ar
   7    3   35 1
   8    4    5 ar
   9    4   36 1
  10    5    6 ar
  11    5   37 1
  12    6    7 1
  13    7    8 3
  14    8    9 1
  15    9   12 ar
  16    9   11 ar
  17   10   11 ar
  18   10   14 ar
  19   10   24 1
  20   11   38 1
  21   12   13 ar
  22   12   39 1
  23   13   14 ar
  24   13   29 1
  25   14   15 1
  26   15   18 am
  27   15   17 am
  28   16   17 am
  29   16   22 1
  30   16   19 1
  31   17   21 2
  32   18   23 1
  33   18   20 2
  34   19   30 1
  35   19   31 1
  36   19   40 1
  37   22   23 ar
  38   22   25 ar
  39   23   26 ar
  40   25   28 ar
  41   25   41 1
  42   26   27 ar
  43   26   42 1
  44   27   28 ar
  45   27   43 1
  46   28   44 1
  47   30   32 1
  48   30   45 1
  49   30   46 1
  50   31   32 1
  51   31   47 1
  52   31   48 1

#	End of record

