#	Name: ASD04591095
#	Creating user name:	WinNT
#	Creation time:	15. 06. 2019 20:52

#	Modifying user name:	WinNT
#	Modification time:	15. 06. 2019 20:52

#	Program:	/corina/corina34_cracker 3.40 0067  02.08.2006

@<TRIPOS>MOLECULE
ASD04591095
  69   74    0    0    0
SMALL
NO_CHARGES


@<TRIPOS>ATOM
   1 N1            -2.3341    -2.6498     0.1814 N.ar    
   2 C2            -1.1718    -2.0097     0.1784 C.ar    
   3 N3            -0.0128    -2.6482     0.1727 N.ar    
   4 C4             0.0279    -3.9773     0.1701 C.ar    
   5 C5            -1.1901    -4.6866     0.1736 C.ar    
   6 C6            -2.3837    -3.9717     0.1792 C.ar    
   7 N7             1.0582    -4.8845     0.1644 N.pl3   
   8 C8             0.5641    -6.1775     0.1640 C.ar    
   9 C9            -0.8408    -6.1129     0.1696 C.ar    
  10 C10            1.1693    -7.4275     0.1593 C.ar    
  11 N11            0.4405    -8.5251     0.1602 N.ar    
  12 C12           -0.8805    -8.4989     0.1654 C.ar    
  13 C13           -1.5670    -7.3032     0.1707 C.ar    
  14 N14           -1.1717    -0.6247     0.1810 N.pl3   
  15 C15           -2.3741     0.0731     0.0676 C.ar    
  16 N16           -3.4978    -0.5912    -0.1486 N.ar    
  17 C17           -4.6580     0.0271    -0.2626 C.ar    
  18 C18           -4.7388     1.4076    -0.1590 C.ar    
  19 C19           -3.5754     2.1413     0.0687 C.ar    
  20 C20           -2.3790     1.4584     0.1887 C.ar    
  21 N21           -5.9732     2.0565    -0.2819 N.3     
  22 C22            2.4805    -4.5336     0.1590 C.3     
  23 C23           -6.2508     2.8871     0.8968 C.3     
  24 C24            2.8138    -3.7031    -1.0928 C.3     
  25 C25            3.3347    -2.3403    -0.5916 C.3     
  26 C26            3.8516    -2.6338     0.8387 C.3     
  27 C27            2.8106    -3.6465     1.3771 C.3     
  28 C28           -7.0541     1.0908    -0.5176 C.3     
  29 C29           -8.3596     1.8411    -0.7911 C.3     
  30 C30           -8.6948     2.7273     0.4118 C.3     
  31 C31           -7.5323     3.6910     0.6656 C.3     
  32 N32           -9.9160     3.4942     0.1314 N.3     
  33 C33          -11.1153     2.6795     0.3681 C.3     
  34 C34          -11.5502     2.8244     1.8279 C.3     
  35 C35          -12.2436     3.1542    -0.5497 C.3     
  36 H36           -3.3331    -4.4865     0.1816 H       
  37 H37            2.2468    -7.5005     0.1546 H       
  38 H38           -1.4309    -9.4282     0.1655 H       
  39 H39           -2.6469    -7.2889     0.1753 H       
  40 H40           -0.3354    -0.1399     0.2616 H       
  41 H41           -5.5546    -0.5484    -0.4389 H       
  42 H42           -3.6085     3.2175     0.1538 H       
  43 H43           -1.4585     1.9949     0.3658 H       
  44 H44            3.0881    -5.4383     0.1795 H       
  45 H45           -6.3760     2.2474     1.7705 H       
  46 H46           -5.4184     3.5706     1.0637 H       
  47 H47            3.5837    -4.2043    -1.6793 H       
  48 H48            1.9173    -3.5611    -1.6963 H       
  49 H49            4.1474    -1.9859    -1.2257 H       
  50 H50            2.5260    -1.6100    -0.5626 H       
  51 H51            4.8449    -3.0814     0.8062 H       
  52 H52            3.8553    -1.7260     1.4420 H       
  53 H53            1.9173    -3.1272     1.7241 H       
  54 H54            3.2408    -4.2454     2.1799 H       
  55 H55           -6.8051     0.4698    -1.3781 H       
  56 H56           -7.1755     0.4596     0.3627 H       
  57 H57           -8.2432     2.4621    -1.6793 H       
  58 H58           -9.1649     1.1241    -0.9505 H       
  59 H59           -8.8495     2.1033     1.2920 H       
  60 H60           -7.7466     4.2956     1.5468 H       
  61 H61           -7.4030     4.3410    -0.1998 H       
  62 H62           -9.9426     4.3435     0.6755 H       
  63 H63          -10.8914     1.6337     0.1578 H       
  64 H64          -11.8581     3.8531     2.0149 H       
  65 H65          -12.3858     2.1532     2.0263 H       
  66 H66          -10.7164     2.5700     2.4823 H       
  67 H67          -11.9338     3.0510    -1.5896 H       
  68 H68          -13.1335     2.5497    -0.3740 H       
  69 H69          -12.4674     4.2000    -0.3393 H       
@<TRIPOS>BOND
   1    1    2 ar
   2    1    6 ar
   3    2    3 ar
   4    2   14 1
   5    3    4 ar
   6    4    5 ar
   7    4    7 1
   8    5    6 ar
   9    5    9 1
  10    6   36 1
  11    7    8 1
  12    7   22 1
  13    8    9 ar
  14    8   10 ar
  15    9   13 ar
  16   10   11 ar
  17   10   37 1
  18   11   12 ar
  19   12   13 ar
  20   12   38 1
  21   13   39 1
  22   14   15 1
  23   14   40 1
  24   15   16 ar
  25   15   20 ar
  26   16   17 ar
  27   17   18 ar
  28   17   41 1
  29   18   19 ar
  30   18   21 1
  31   19   20 ar
  32   19   42 1
  33   20   43 1
  34   21   28 1
  35   21   23 1
  36   22   24 1
  37   22   27 1
  38   22   44 1
  39   23   31 1
  40   23   45 1
  41   23   46 1
  42   24   25 1
  43   24   47 1
  44   24   48 1
  45   25   26 1
  46   25   49 1
  47   25   50 1
  48   26   27 1
  49   26   51 1
  50   26   52 1
  51   27   53 1
  52   27   54 1
  53   28   29 1
  54   28   55 1
  55   28   56 1
  56   29   30 1
  57   29   57 1
  58   29   58 1
  59   30   31 1
  60   30   32 1
  61   30   59 1
  62   31   60 1
  63   31   61 1
  64   32   33 1
  65   32   62 1
  66   33   34 1
  67   33   35 1
  68   33   63 1
  69   34   64 1
  70   34   65 1
  71   34   66 1
  72   35   67 1
  73   35   68 1
  74   35   69 1

#	End of record

