#	Name: ASD01915143
#	Creating user name:	WinNT
#	Creation time:	15. 06. 2019 20:04

#	Modifying user name:	WinNT
#	Modification time:	15. 06. 2019 20:04

#	Program:	/corina/corina34_cracker 3.40 0067  02.08.2006

@<TRIPOS>MOLECULE
ASD01915143
  42   45    0    0    0
SMALL
NO_CHARGES


@<TRIPOS>ATOM
   1 C1            -0.0169     1.3925     0.0097 C.ar    
   2 C2             0.0021    -0.0041     0.0020 C.ar    
   3 N3            -1.1430    -0.6903     0.0099 N.ar    
   4 C4            -2.3135    -0.0965     0.0250 C.ar    
   5 C5            -2.4136     1.2864     0.0330 C.ar    
   6 C6            -1.2657     2.0480     0.0306 C.ar    
   7 C7             1.3286     1.9586    -0.0001 C.2     
   8 C8             2.3055     1.0553    -0.0143 C.2     
   9 S9             1.6662    -0.5764    -0.0169 S.3     
  10 C10            1.5853     3.4185     0.0048 C.ar    
  11 C11            1.2148     4.1895     1.1060 C.ar    
  12 S12            4.0228     1.4494    -0.0291 S.o2    
  13 O13            4.6880     0.3238    -0.5858 O.2     
  14 O14            4.1291     2.7599    -0.5679 O.2     
  15 C15            4.5477     1.5575     1.6495 C.ar    
  16 C16            5.0199     0.4346     2.2964 C.ar    
  17 C17            4.4904     2.7700     2.3139 C.ar    
  18 C18            4.9013     2.8640     3.6316 C.ar    
  19 C19            5.3713     1.7478     4.2923 C.ar    
  20 C20            5.4358     0.5222     3.6266 C.ar    
  21 C21            1.4551     5.5477     1.1072 C.ar    
  22 C22            2.0649     6.1472     0.0139 C.ar    
  23 C23            2.4350     5.3827    -1.0839 C.ar    
  24 C24            2.2029     4.0231    -1.0894 C.ar    
  25 C25            5.9222    -0.6406     4.3062 C.1     
  26 N26            6.3081    -1.5631     4.8453 N.1     
  27 O27            2.2998     7.4860     0.0182 O.3     
  28 C28            2.9308     8.0377    -1.1392 C.3     
  29 H29           -3.2129    -0.6945     0.0309 H       
  30 H30           -3.3830     1.7623     0.0446 H       
  31 H31           -1.3210     3.1265     0.0371 H       
  32 H32            0.7399     3.7237     1.9569 H       
  33 H33            5.0675    -0.5103     1.7755 H       
  34 H34            4.1237     3.6470     1.8014 H       
  35 H35            4.8543     3.8135     4.1441 H       
  36 H36            5.6925     1.8227     5.3207 H       
  37 H37            1.1680     6.1454     1.9597 H       
  38 H38            2.9093     5.8524    -1.9330 H       
  39 H39            2.4914     3.4288    -1.9438 H       
  40 H40            3.9052     7.5698    -1.2796 H       
  41 H41            2.3090     7.8522    -2.0151 H       
  42 H42            3.0593     9.1118    -1.0057 H       
@<TRIPOS>BOND
   1    1    2 ar
   2    1    7 1
   3    1    6 ar
   4    2    3 ar
   5    2    9 1
   6    3    4 ar
   7    4    5 ar
   8    4   29 1
   9    5    6 ar
  10    5   30 1
  11    6   31 1
  12    7    8 2
  13    7   10 1
  14    8    9 1
  15    8   12 1
  16   10   11 ar
  17   10   24 ar
  18   11   21 ar
  19   11   32 1
  20   12   13 2
  21   12   14 2
  22   12   15 1
  23   15   16 ar
  24   15   17 ar
  25   16   20 ar
  26   16   33 1
  27   17   18 ar
  28   17   34 1
  29   18   19 ar
  30   18   35 1
  31   19   20 ar
  32   19   36 1
  33   20   25 1
  34   21   22 ar
  35   21   37 1
  36   22   23 ar
  37   22   27 1
  38   23   24 ar
  39   23   38 1
  40   24   39 1
  41   25   26 3
  42   27   28 1
  43   28   40 1
  44   28   41 1
  45   28   42 1

#	End of record

