#	Name: ASD00170122
#	Creating user name:	WinNT
#	Creation time:	15. 06. 2019 18:31

#	Modifying user name:	WinNT
#	Modification time:	15. 06. 2019 18:31

#	Program:	/corina/corina34_cracker 3.40 0067  02.08.2006

@<TRIPOS>MOLECULE
ASD00170122
  42   46    0    0    0
SMALL
NO_CHARGES


@<TRIPOS>ATOM
   1 C1             1.3155     1.5981    -0.8431 C.2     
   2 C2             1.1607     0.1282    -0.6133 C.ar    
   3 C3             2.2571    -0.5444    -1.1431 C.ar    
   4 C4             3.1630     0.5025    -1.7396 C.3     
   5 C5             2.4720     1.8262    -1.4948 C.2     
   6 S6             2.6533     3.5588    -1.7656 S.3     
   7 C7             1.1171     3.8472    -0.9586 C.2     
   8 N8             0.6134     2.7222    -0.5781 N.2     
   9 C9             0.1411    -0.5922     0.0131 C.ar    
  10 C10            0.2255    -1.9637     0.1035 C.ar    
  11 C11            1.3268    -2.6347    -0.4286 C.ar    
  12 C12            2.3445    -1.9143    -1.0555 C.ar    
  13 N13            0.5357     5.0898    -0.7659 N.pl3   
  14 C14            1.4154    -4.1114    -0.3291 C.ar    
  15 C15            0.3984    -4.8317     0.2963 C.ar    
  16 C16            0.4835    -6.2050     0.3868 C.ar    
  17 C17            1.5805    -6.8707    -0.1441 C.ar    
  18 C18            2.5951    -6.1560    -0.7671 C.ar    
  19 C19            2.5130    -4.7831    -0.8658 C.ar    
  20 O20            1.6615    -8.2238    -0.0533 O.3     
  21 C21            2.2953    -8.7540     1.0254 C.ar    
  22 C22            2.7407    -7.9262     2.0461 C.ar    
  23 C23            3.3843    -8.4679     3.1418 C.ar    
  24 C24            3.5848    -9.8336     3.2220 C.ar    
  25 C25            3.1419   -10.6608     2.2063 C.ar    
  26 C26            2.4931   -10.1248     1.1109 C.ar    
  27 H27            4.1338     0.4871    -1.2443 H       
  28 H28            3.2824     0.3321    -2.8095 H       
  29 H29           -0.7119    -0.0744     0.4263 H       
  30 H30           -0.5626    -2.5212     0.5878 H       
  31 H31            3.1985    -2.4304    -1.4688 H       
  32 H32            0.9814     5.8890    -1.0877 H       
  33 H33           -0.3171     5.1607    -0.3091 H       
  34 H34           -0.4548    -4.3146     0.7096 H       
  35 H35           -0.3037    -6.7635     0.8714 H       
  36 H36            3.4474    -6.6765    -1.1784 H       
  37 H37            3.3024    -4.2279    -1.3505 H       
  38 H38            2.5847    -6.8594     1.9837 H       
  39 H39            3.7315    -7.8240     3.9363 H       
  40 H40            4.0885   -10.2551     4.0794 H       
  41 H41            3.3000   -11.7271     2.2712 H       
  42 H42            2.1473   -10.7712     0.3178 H       
@<TRIPOS>BOND
   1    1    2 1
   2    1    5 2
   3    1    8 1
   4    2    3 ar
   5    2    9 ar
   6    3    4 1
   7    3   12 ar
   8    4    5 1
   9    4   27 1
  10    4   28 1
  11    5    6 1
  12    6    7 1
  13    7    8 2
  14    7   13 1
  15    9   10 ar
  16    9   29 1
  17   10   11 ar
  18   10   30 1
  19   11   12 ar
  20   11   14 1
  21   12   31 1
  22   13   32 1
  23   13   33 1
  24   14   15 ar
  25   14   19 ar
  26   15   16 ar
  27   15   34 1
  28   16   17 ar
  29   16   35 1
  30   17   18 ar
  31   17   20 1
  32   18   19 ar
  33   18   36 1
  34   19   37 1
  35   20   21 1
  36   21   22 ar
  37   21   26 ar
  38   22   23 ar
  39   22   38 1
  40   23   24 ar
  41   23   39 1
  42   24   25 ar
  43   24   40 1
  44   25   26 ar
  45   25   41 1
  46   26   42 1

#	End of record

