#	Name: ASD01881294
#	Creating user name:	WinNT
#	Creation time:	15. 06. 2019 19:42

#	Modifying user name:	WinNT
#	Modification time:	15. 06. 2019 19:42

#	Program:	/corina/corina34_cracker 3.40 0067  02.08.2006

@<TRIPOS>MOLECULE
ASD01881294
  53   56    0    0    0
SMALL
NO_CHARGES


@<TRIPOS>ATOM
   1 C1             0.1667     0.7680     0.1655 C.2     
   2 N2             0.2723    -0.5719     0.1656 N.am    
   3 C3             1.6939    -0.9336     0.1302 C.3     
   4 C4             2.4585     0.3666     0.1081 C.ar    
   5 C5             3.7966     0.6689     0.0730 C.ar    
   6 C6             4.2077     2.0000     0.0594 C.ar    
   7 C7             3.2617     3.0216     0.0813 C.ar    
   8 C8             1.9193     2.7223     0.1165 C.ar    
   9 C9             1.5021     1.3874     0.1303 C.ar    
  10 O10           -0.8829     1.3816     0.1863 O.2     
  11 C11           -0.8476    -1.5159     0.1961 C.3     
  12 C12           -1.2737    -1.8479    -1.2354 C.3     
  13 F13           -0.1980    -2.4226    -1.9208 F       
  14 F14           -2.3432    -2.7494    -1.2063 F       
  15 F15           -1.6697    -0.6755    -1.8879 F       
  16 N16            5.5631     2.3086     0.0243 N.pl3   
  17 C17            5.9955     3.7082     0.0100 C.3     
  18 C18            8.2184     4.0560     1.1139 C.ar    
  19 C19            7.5009     3.7685    -0.0283 C.ar    
  20 C20            8.1879     3.5339    -1.2189 C.ar    
  21 C21            9.5811     3.6009    -1.2020 C.ar    
  22 C22           10.2233     3.8943    -0.0178 C.ar    
  23 N23            9.5369     4.1102     1.0889 N.ar    
  24 N24            7.5014     3.2401    -2.3934 N.3     
  25 C25            7.8120     1.8808    -2.8592 C.3     
  26 C26            6.9925     1.5783    -4.1165 C.3     
  27 O27            7.2709     2.5681    -5.1105 O.3     
  28 C28            6.9794     3.9038    -4.6905 C.3     
  29 C29            7.7987     4.2298    -3.4390 C.3     
  30 C30            0.8996     3.8317     0.1406 C.3     
  31 H31            1.9568    -1.5078     1.0186 H       
  32 H32            1.9113    -1.5115    -0.7681 H       
  33 H33            4.5300    -0.1238     0.0563 H       
  34 H34            3.5829     4.0526     0.0711 H       
  35 H35           -0.5391    -2.4293     0.7045 H       
  36 H36           -1.6857    -1.0682     0.7301 H       
  37 H37            6.2222     1.5971     0.0093 H       
  38 H38            5.5895     4.2050    -0.8712 H       
  39 H39            5.6346     4.2093     0.9082 H       
  40 H40            7.6946     4.2435     2.0395 H       
  41 H41           10.1488     3.4250    -2.1038 H       
  42 H42           11.3018     3.9479     0.0047 H       
  43 H43            8.8746     1.8095    -3.0915 H       
  44 H44            7.5603     1.1623    -2.0791 H       
  45 H45            7.2616     0.5934    -4.4982 H       
  46 H46            5.9304     1.5968    -3.8719 H       
  47 H47            7.2390     4.6007    -5.4873 H       
  48 H48            5.9169     3.9899    -4.4626 H       
  49 H49            7.5374     5.2260    -3.0822 H       
  50 H50            8.8611     4.1961    -3.6806 H       
  51 H51            0.6273     4.0971    -0.8809 H       
  52 H52            0.0121     3.4977     0.6782 H       
  53 H53            1.3219     4.7025     0.6421 H       
@<TRIPOS>BOND
   1    1    2 am
   2    1    9 1
   3    1   10 2
   4    2    3 1
   5    2   11 1
   6    3    4 1
   7    3   31 1
   8    3   32 1
   9    4    5 ar
  10    4    9 ar
  11    5    6 ar
  12    5   33 1
  13    6    7 ar
  14    6   16 1
  15    7    8 ar
  16    7   34 1
  17    8    9 ar
  18    8   30 1
  19   11   12 1
  20   11   35 1
  21   11   36 1
  22   12   13 1
  23   12   14 1
  24   12   15 1
  25   16   17 1
  26   16   37 1
  27   17   19 1
  28   17   38 1
  29   17   39 1
  30   18   19 ar
  31   18   23 ar
  32   18   40 1
  33   19   20 ar
  34   20   21 ar
  35   20   24 1
  36   21   22 ar
  37   21   41 1
  38   22   23 ar
  39   22   42 1
  40   24   25 1
  41   24   29 1
  42   25   26 1
  43   25   43 1
  44   25   44 1
  45   26   27 1
  46   26   45 1
  47   26   46 1
  48   27   28 1
  49   28   29 1
  50   28   47 1
  51   28   48 1
  52   29   49 1
  53   29   50 1
  54   30   51 1
  55   30   52 1
  56   30   53 1

#	End of record

