#	Name: ASD01148202
#	Creating user name:	WinNT
#	Creation time:	15. 06. 2019 19:02

#	Modifying user name:	WinNT
#	Modification time:	15. 06. 2019 19:02

#	Program:	/corina/corina34_cracker 3.40 0067  02.08.2006

@<TRIPOS>MOLECULE
ASD01148202
  55   58    0    0    0
SMALL
NO_CHARGES


@<TRIPOS>ATOM
   1 C1            -0.0167     1.3779     0.0096 C.ar    
   2 C2             0.0021    -0.0041     0.0020 C.ar    
   3 C3             1.2086    -0.6790    -0.0132 C.ar    
   4 C4             2.3961     0.0283    -0.0212 C.ar    
   5 C5             2.3773     1.4107    -0.0145 C.ar    
   6 C6             1.1711     2.0854     0.0021 C.ar    
   7 C7             3.6720     2.1819    -0.0223 C.3     
   8 O8             4.6970     1.4625    -0.7374 O.3     
   9 C9             3.5436     3.4712    -0.8682 C.3     
  10 C10            4.0476     3.0252    -2.2276 C.2     
  11 N11            4.6725     1.9053    -2.0799 N.2     
  12 C12            3.8561     3.7474    -3.5006 C.ar    
  13 C13            4.3751     3.2222    -4.6868 C.ar    
  14 C14            3.1508     4.9534    -3.5204 C.ar    
  15 C15            2.9719     5.6265    -4.7078 C.ar    
  16 C16            3.4953     5.1040    -5.8928 C.ar    
  17 C17            4.1959     3.8956    -5.8739 C.ar    
  18 C18            3.3027     5.8266    -7.1676 C.2     
  19 O19            2.6887     6.8756    -7.1848 O.2     
  20 N20            3.8077     5.3225    -8.3109 N.am    
  21 C21            4.1227     2.5042     1.4038 C.3     
  22 F22            4.2968     1.3140     2.1181 F       
  23 F23            5.3329     3.2050     1.3633 F       
  24 F24            3.1506     3.2884     2.0341 F       
  25 N25            3.6251     6.0075    -9.5193 N.pl3   
  26 C26            4.4063     7.2140    -9.8027 C.3     
  27 C27            2.6983     5.5401   -10.4539 C.ar    
  28 C28            2.5160     6.2181   -11.6525 C.ar    
  29 C29            1.5990     5.7530   -12.5746 C.ar    
  30 C30            0.8628     4.6137   -12.3057 C.ar    
  31 C31            1.0415     3.9366   -11.1132 C.ar    
  32 C32            1.9609     4.3930   -10.1893 C.ar    
  33 C33            1.2291    -2.1858    -0.0205 C.3     
  34 F34           -0.0834    -2.6701    -0.0097 F       
  35 F35            1.8834    -2.6378    -1.1715 F       
  36 F36            1.9062    -2.6485     1.1130 F       
  37 H37           -0.9592     1.9051     0.0170 H       
  38 H38           -0.9258    -0.5567     0.0083 H       
  39 H39            3.3386    -0.4989    -0.0324 H       
  40 H40            1.1565     3.1653     0.0077 H       
  41 H41            2.5039     3.7931    -0.9275 H       
  42 H42            4.1727     4.2639    -0.4632 H       
  43 H43            4.9170     2.2882    -4.6722 H       
  44 H44            2.7458     5.3572    -2.6043 H       
  45 H45            2.4264     6.5585    -4.7232 H       
  46 H46            4.6006     3.4918    -6.7902 H       
  47 H47            4.2977     4.4854    -8.2972 H       
  48 H48            5.3307     6.9375   -10.3098 H       
  49 H49            3.8268     7.8804   -10.4416 H       
  50 H50            4.6427     7.7218    -8.8676 H       
  51 H51            3.0904     7.1081   -11.8630 H       
  52 H52            1.4565     6.2798   -13.5065 H       
  53 H53            0.1464     4.2521   -13.0285 H       
  54 H54            0.4646     3.0473   -10.9062 H       
  55 H55            2.0999     3.8638    -9.2581 H       
@<TRIPOS>BOND
   1    1    2 ar
   2    1    6 ar
   3    1   37 1
   4    2    3 ar
   5    2   38 1
   6    3    4 ar
   7    3   33 1
   8    4    5 ar
   9    4   39 1
  10    5    6 ar
  11    5    7 1
  12    6   40 1
  13    7    8 1
  14    7    9 1
  15    7   21 1
  16    8   11 1
  17    9   10 1
  18    9   41 1
  19    9   42 1
  20   10   11 2
  21   10   12 1
  22   12   13 ar
  23   12   14 ar
  24   13   17 ar
  25   13   43 1
  26   14   15 ar
  27   14   44 1
  28   15   16 ar
  29   15   45 1
  30   16   17 ar
  31   16   18 1
  32   17   46 1
  33   18   19 2
  34   18   20 am
  35   20   25 1
  36   20   47 1
  37   21   22 1
  38   21   23 1
  39   21   24 1
  40   25   26 1
  41   25   27 1
  42   26   48 1
  43   26   49 1
  44   26   50 1
  45   27   28 ar
  46   27   32 ar
  47   28   29 ar
  48   28   51 1
  49   29   30 ar
  50   29   52 1
  51   30   31 ar
  52   30   53 1
  53   31   32 ar
  54   31   54 1
  55   32   55 1
  56   33   34 1
  57   33   35 1
  58   33   36 1

#	End of record

