#	Name: ASD01230055
#	Creating user name:	WinNT
#	Creation time:	15. 06. 2019 19:11

#	Modifying user name:	WinNT
#	Modification time:	15. 06. 2019 19:11

#	Program:	/corina/corina34_cracker 3.40 0067  02.08.2006

@<TRIPOS>MOLECULE
ASD01230055
  27   29    0    0    0
SMALL
NO_CHARGES


@<TRIPOS>ATOM
   1 C1            -0.0167     1.3808     0.0096 C.ar    
   2 C2             0.0021    -0.0041     0.0020 C.ar    
   3 C3            -1.1911    -0.7031    -0.0032 C.ar    
   4 C4            -2.3918    -0.0245    -0.0015 C.ar    
   5 C5            -2.4281     1.3620     0.0329 C.ar    
   6 C6            -1.2174     2.0605     0.0305 C.ar    
   7 S7            -3.9064    -0.9368    -0.0759 S.o2    
   8 N8            -5.0871     0.2280     0.1277 N.am    
   9 C9            -4.7870     1.5298    -0.5048 C.3     
  10 N10           -3.5984     2.1033     0.1129 N.3     
  11 C11           -3.3806     3.4821    -0.3445 C.3     
  12 O12           -4.0309    -1.4236    -1.4051 O.2     
  13 O13           -3.9444    -1.7695     1.0749 O.2     
  14 F14            1.1457     2.0691     0.0022 F       
  15 C15           -3.1505     3.7020    -1.8410 C.3     
  16 C16           -4.4745     4.1236    -1.2005 C.3     
  17 H17            0.9427    -0.5347    -0.0002 H       
  18 H18           -1.1827    -1.7831    -0.0091 H       
  19 H19           -1.2218     3.1405     0.0365 H       
  20 H20           -5.9050     0.0629     0.6225 H       
  21 H21           -4.6091     1.3842    -1.5702 H       
  22 H22           -5.6312     2.2052    -0.3654 H       
  23 H23           -2.8398     4.1272     0.3480 H       
  24 H24           -2.4586     4.4920    -2.1331 H       
  25 H25           -3.1608     2.8235    -2.4862 H       
  26 H26           -5.3558     3.5225    -1.4243 H       
  27 H27           -4.6537     5.1910    -1.0713 H       
@<TRIPOS>BOND
   1    1    2 ar
   2    1   14 1
   3    1    6 ar
   4    2    3 ar
   5    2   17 1
   6    3    4 ar
   7    3   18 1
   8    4    5 ar
   9    4    7 1
  10    5    6 ar
  11    5   10 1
  12    6   19 1
  13    7    8 am
  14    7   12 2
  15    7   13 2
  16    8    9 1
  17    8   20 1
  18    9   10 1
  19    9   21 1
  20    9   22 1
  21   10   11 1
  22   11   15 1
  23   11   16 1
  24   11   23 1
  25   15   16 1
  26   15   24 1
  27   15   25 1
  28   16   26 1
  29   16   27 1

#	End of record

