#	Name: ASD01148072
#	Creating user name:	WinNT
#	Creation time:	15. 06. 2019 19:01

#	Modifying user name:	WinNT
#	Modification time:	15. 06. 2019 19:01

#	Program:	/corina/corina34_cracker 3.40 0067  02.08.2006

@<TRIPOS>MOLECULE
ASD01148072
  36   36    0    0    0
SMALL
NO_CHARGES


@<TRIPOS>ATOM
   1 C1            -0.0184     1.5028     0.0103 C.2     
   2 C2             0.0021    -0.0041     0.0020 C.3     
   3 C3            -0.2279    -0.5251     1.4221 C.3     
   4 O4             1.0236     2.1234     0.0037 O.2     
   5 N5            -1.1946     2.1607     0.0195 N.am    
   6 O6            -0.3247    -1.9505     1.3966 O.3     
   7 C7            -0.5409    -2.5414     2.6797 C.3     
   8 F8             0.5221    -2.2149     3.5286 F       
   9 F9            -1.7361    -2.0561     3.2211 F       
  10 C10           -1.2145     3.6256     0.0275 C.3     
  11 C11           -2.6419     4.1085     0.0369 C.ar    
  12 N12            1.3019    -0.4721    -0.4853 N.am    
  13 C13            2.4293    -0.1348     0.1718 C.2     
  14 C14            3.7664    -0.6163    -0.3296 C.3     
  15 C15           -3.2907     4.3235     1.2386 C.ar    
  16 C16           -4.5999     4.7664     1.2478 C.ar    
  17 C17           -5.2611     4.9947     0.0541 C.ar    
  18 C18           -4.6113     4.7794    -1.1481 C.ar    
  19 C19           -3.3002     4.3419    -1.1561 C.ar    
  20 Cl20          -6.9057     5.5505     0.0650 Cl      
  21 O21            2.3676     0.5562     1.1666 O.2     
  22 H22           -0.7864    -0.3745    -0.6531 H       
  23 H23            0.6068    -0.2288     2.0574 H       
  24 H24           -1.1526    -0.1051     1.8179 H       
  25 H25           -2.0280     1.6644     0.0207 H       
  26 H26           -0.6028    -3.6246     2.5751 H       
  27 H27           -0.7014     3.9910     0.9171 H       
  28 H28           -0.7098     4.0007    -0.8628 H       
  29 H29            1.3512    -1.0248    -1.2810 H       
  30 H30            4.1748     0.1111    -1.0311 H       
  31 H31            4.4494    -0.7328     0.5119 H       
  32 H32            3.6420    -1.5756    -0.8321 H       
  33 H33           -2.7746     4.1449     2.1703 H       
  34 H34           -5.1068     4.9339     2.1866 H       
  35 H35           -5.1269     4.9575    -2.0802 H       
  36 H36           -2.7929     4.1738    -2.0945 H       
@<TRIPOS>BOND
   1    1    2 1
   2    1    4 2
   3    1    5 am
   4    2    3 1
   5    2   12 1
   6    2   22 1
   7    3    6 1
   8    3   23 1
   9    3   24 1
  10    5   10 1
  11    5   25 1
  12    6    7 1
  13    7    8 1
  14    7    9 1
  15    7   26 1
  16   10   11 1
  17   10   27 1
  18   10   28 1
  19   11   15 ar
  20   11   19 ar
  21   12   13 am
  22   12   29 1
  23   13   14 1
  24   13   21 2
  25   14   30 1
  26   14   31 1
  27   14   32 1
  28   15   16 ar
  29   15   33 1
  30   16   17 ar
  31   16   34 1
  32   17   18 ar
  33   17   20 1
  34   18   19 ar
  35   18   35 1
  36   19   36 1

#	End of record

