#	Name: ASD01148024
#	Creating user name:	WinNT
#	Creation time:	15. 06. 2019 19:01

#	Modifying user name:	WinNT
#	Modification time:	15. 06. 2019 19:01

#	Program:	/corina/corina34_cracker 3.40 0067  02.08.2006

@<TRIPOS>MOLECULE
ASD01148024
  46   46    0    0    0
SMALL
NO_CHARGES


@<TRIPOS>ATOM
   1 C1            -0.0162     1.3436     0.0094 C.2     
   2 N2             0.0021    -0.0041     0.0020 N.am    
   3 O3             1.0277     1.9654     0.0028 O.2     
   4 O4            -1.1912     2.0008     0.0186 O.3     
   5 C5             1.2806    -0.7192    -0.0140 C.3     
   6 C6             1.0960    -2.0915     0.5809 C.2     
   7 O7             0.0041    -2.4380     0.9790 O.2     
   8 C8             1.7733    -0.8507    -1.4565 C.3     
   9 O9             0.8696    -1.6752    -2.1953 O.3     
  10 C10            1.2399    -1.8633    -3.5626 C.3     
  11 F11            1.2881    -0.6228    -4.2075 F       
  12 F12            2.4985    -2.4708    -3.6256 F       
  13 N13            2.1444    -2.9337     0.6704 N.am    
  14 C14            1.9651    -4.2677     1.2487 C.3     
  15 C15            3.2802    -5.0034     1.2322 C.ar    
  16 C16            4.1406    -4.9049     2.3097 C.ar    
  17 C17            5.3478    -5.5803     2.2944 C.ar    
  18 C18            5.6933    -6.3540     1.2004 C.ar    
  19 C19            4.8323    -6.4516     0.1239 C.ar    
  20 C20            3.6233    -5.7809     0.1422 C.ar    
  21 Cl21           6.4291    -5.4567     3.6468 Cl      
  22 C22           -1.1349     3.4517     0.0262 C.3     
  23 C23           -0.4003     3.9401    -1.2239 C.3     
  24 C24           -2.5565     4.0172     0.0360 C.3     
  25 C25           -0.3885     3.9266     1.2745 C.3     
  26 H26           -0.8313    -0.5005     0.0073 H       
  27 H27            2.0142    -0.1651     0.5714 H       
  28 H28            1.8219     0.1368    -1.9153 H       
  29 H29            2.7650    -1.3031    -1.4619 H       
  30 H30            0.5041    -2.4999    -4.0540 H       
  31 H31            3.0178    -2.6565     0.3520 H       
  32 H32            1.6140    -4.1740     2.2764 H       
  33 H33            1.2314    -4.8219     0.6633 H       
  34 H34            3.8706    -4.3006     3.1631 H       
  35 H35            6.6358    -6.8812     1.1877 H       
  36 H36            5.1018    -7.0554    -0.7300 H       
  37 H37            2.9487    -5.8613    -0.6973 H       
  38 H38           -0.9321     3.6018    -2.1132 H       
  39 H39           -0.3581     5.0293    -1.2182 H       
  40 H40            0.6125     3.5373    -1.2309 H       
  41 H41           -3.0798     3.6692     0.9266 H       
  42 H42           -2.5142     5.1064     0.0417 H       
  43 H43           -3.0883     3.6789    -0.8533 H       
  44 H44            0.6243     3.5237     1.2675 H       
  45 H45           -0.3462     5.0157     1.2802 H       
  46 H46           -0.9118     3.5786     2.1651 H       
@<TRIPOS>BOND
   1    1    2 am
   2    1    3 2
   3    1    4 1
   4    2    5 1
   5    2   26 1
   6    4   22 1
   7    5    6 1
   8    5    8 1
   9    5   27 1
  10    6    7 2
  11    6   13 am
  12    8    9 1
  13    8   28 1
  14    8   29 1
  15    9   10 1
  16   10   11 1
  17   10   12 1
  18   10   30 1
  19   13   14 1
  20   13   31 1
  21   14   15 1
  22   14   32 1
  23   14   33 1
  24   15   16 ar
  25   15   20 ar
  26   16   17 ar
  27   16   34 1
  28   17   18 ar
  29   17   21 1
  30   18   19 ar
  31   18   35 1
  32   19   20 ar
  33   19   36 1
  34   20   37 1
  35   22   23 1
  36   22   25 1
  37   22   24 1
  38   23   38 1
  39   23   39 1
  40   23   40 1
  41   24   41 1
  42   24   42 1
  43   24   43 1
  44   25   44 1
  45   25   45 1
  46   25   46 1

#	End of record

