#	Name: ASD05790072
#	Creating user name:	WinNT
#	Creation time:	15. 06. 2019 21:03

#	Modifying user name:	WinNT
#	Modification time:	15. 06. 2019 21:03

#	Program:	/corina/corina34_cracker 3.40 0067  02.08.2006

@<TRIPOS>MOLECULE
ASD05790072
 100  106    0    0    0
SMALL
NO_CHARGES


@<TRIPOS>ATOM
   1 C1             2.8478     1.1933    -1.1317 C.3     
   2 C2             3.1693    -0.2683    -1.3531 C.2     
   3 C3             3.8682    -0.6606    -2.6331 C.3     
   4 C4             5.1213     0.2092    -2.7967 C.3     
   5 C5             4.7164     1.6920    -2.7196 C.3     
   6 C6             4.1264     2.0078    -1.3497 C.3     
   7 C7             5.7481    -0.0933    -4.1609 C.3     
   8 C8             4.7655     0.2510    -5.2949 C.3     
   9 C9             4.4359     1.7253    -5.1770 C.3     
  10 C10            3.7139     1.9453    -3.8220 C.3     
  11 C11            3.3923     2.2640    -6.1638 C.3     
  12 C12            2.8305     3.5009    -5.4664 C.2     
  13 C13            3.1748     3.3622    -3.9772 C.3     
  14 C14            4.0774     2.6416    -7.4640 C.3     
  15 C15            3.1554     3.1753    -8.5052 C.3     
  16 C16            2.7727     4.6275    -8.3576 C.3     
  17 C17            1.6831     4.8236    -7.3182 C.3     
  18 C18            2.1517     4.4548    -5.9571 C.2     
  19 C19            2.2647     5.1647    -9.7234 C.3     
  20 C20            3.2444     6.3009   -10.0433 C.3     
  21 C21            4.4912     5.8331    -9.2416 C.3     
  22 O22            3.9380     5.4123    -8.0019 O.3     
  23 N23            3.6597     6.3908   -11.4389 N.3     
  24 C24            4.6633     7.4611   -11.5783 C.3     
  25 C25            5.8889     7.2231   -10.7011 C.3     
  26 C26            5.4790     6.9800    -9.2368 C.3     
  27 C27            5.9490     2.5673    -2.9551 C.3     
  28 C28            1.7178     5.4489    -4.9109 C.3     
  29 C29            6.8025     8.4484   -10.7706 C.3     
  30 C30            2.3368     4.0731   -10.7931 C.3     
  31 C31            2.5069     6.6325   -12.3168 C.3     
  32 O32            2.8752    -1.0994    -0.5278 O.2     
  33 C33            3.0006     6.9875   -13.7207 C.3     
  34 N34            1.8509     7.2286   -14.5962 N.am    
  35 C35            2.0454     7.5589   -15.8883 C.2     
  36 C36            0.8627     7.8068   -16.7888 C.3     
  37 O37            3.1721     7.6565   -16.3263 O.2     
  38 C38            1.3564     8.1619   -18.1928 C.3     
  39 C39            0.1738     8.4098   -19.0934 C.ar    
  40 C40           -0.3530     9.6827   -19.2077 C.ar    
  41 C41           -1.4378     9.9102   -20.0337 C.ar    
  42 C42           -1.9956     8.8648   -20.7457 C.ar    
  43 C43           -1.4683     7.5920   -20.6321 C.ar    
  44 C44           -0.3807     7.3654   -19.8094 C.ar    
  45 H45            2.0838     1.5126    -1.8406 H       
  46 H46            2.4884     1.3400    -0.1132 H       
  47 H47            4.1560    -1.7108    -2.5853 H       
  48 H48            3.1993    -0.5007    -3.4787 H       
  49 H49            5.8309    -0.0181    -2.0012 H       
  50 H50            3.8926     3.0709    -1.2926 H       
  51 H51            4.8521     1.7562    -0.5763 H       
  52 H52            6.6554     0.4990    -4.2791 H       
  53 H53            6.0012    -1.1522    -4.2135 H       
  54 H54            5.2296     0.0512    -6.2607 H       
  55 H55            3.8565    -0.3413    -5.1900 H       
  56 H56            5.3488     2.3194    -5.2196 H       
  57 H57            2.8826     1.2462    -3.7307 H       
  58 H58            2.6059     1.5277    -6.3301 H       
  59 H59            2.2804     3.4952    -3.3684 H       
  60 H60            3.9363     4.0895    -3.6958 H       
  61 H61            4.8340     3.3968    -7.2508 H       
  62 H62            4.5765     1.7583    -7.8624 H       
  63 H63            3.6278     3.0442    -9.4788 H       
  64 H64            2.2432     2.5789    -8.4912 H       
  65 H65            1.3762     5.8696    -7.3175 H       
  66 H66            0.8260     4.2030    -7.5797 H       
  67 H67            1.2474     5.5453    -9.6324 H       
  68 H68            2.8716     7.2562    -9.6737 H       
  69 H69            4.9471     4.9804    -9.7446 H       
  70 H70            4.9795     7.5155   -12.6200 H       
  71 H71            4.2079     8.4111   -11.2990 H       
  72 H72            6.4303     6.3523   -11.0708 H       
  73 H73            5.0089     7.8746    -8.8284 H       
  74 H74            6.3546     6.7147    -8.6442 H       
  75 H75            6.4426     2.2593    -3.8769 H       
  76 H76            5.6436     3.6104    -3.0376 H       
  77 H77            6.6390     2.4558    -2.1187 H       
  78 H78            1.1405     6.2441    -5.3826 H       
  79 H79            1.1019     4.9461    -4.1652 H       
  80 H80            2.5970     5.8755    -4.4282 H       
  81 H81            6.2620     9.3253   -10.4141 H       
  82 H82            7.6799     8.2834   -10.1454 H       
  83 H83            7.1164     8.6096   -11.8020 H       
  84 H84            1.9155     3.1488   -10.3978 H       
  85 H85            1.7693     4.3854   -11.6697 H       
  86 H86            3.3769     3.9075   -11.0737 H       
  87 H87            1.8918     5.7339   -12.3644 H       
  88 H88            1.9150     7.4575   -11.9203 H       
  89 H89            3.6157     7.8861   -13.6732 H       
  90 H90            3.5925     6.1626   -14.1172 H       
  91 H91            0.9498     7.1505   -14.2459 H       
  92 H92            0.2476     6.9082   -16.8364 H       
  93 H93            0.2708     8.6318   -16.3924 H       
  94 H94            1.9715     9.0604   -18.1452 H       
  95 H95            1.9483     7.3369   -18.5893 H       
  96 H96            0.0828    10.4995   -18.6515 H       
  97 H97           -1.8498    10.9046   -20.1226 H       
  98 H98           -2.8436     9.0423   -21.3905 H       
  99 H99           -1.9043     6.7752   -21.1881 H       
 100 H100           0.0313     6.3711   -19.7206 H       
@<TRIPOS>BOND
   1    1    2 1
   2    1    6 1
   3    1   45 1
   4    1   46 1
   5    2    3 1
   6    2   32 2
   7    3    4 1
   8    3   47 1
   9    3   48 1
  10    4    5 1
  11    4    7 1
  12    4   49 1
  13    5    6 1
  14    5   27 1
  15    5   10 1
  16    6   50 1
  17    6   51 1
  18    7    8 1
  19    7   52 1
  20    7   53 1
  21    8    9 1
  22    8   54 1
  23    8   55 1
  24    9   10 1
  25    9   11 1
  26    9   56 1
  27   10   13 1
  28   10   57 1
  29   11   12 1
  30   11   14 1
  31   11   58 1
  32   12   13 1
  33   12   18 2
  34   13   59 1
  35   13   60 1
  36   14   15 1
  37   14   61 1
  38   14   62 1
  39   15   16 1
  40   15   63 1
  41   15   64 1
  42   16   17 1
  43   16   22 1
  44   16   19 1
  45   17   18 1
  46   17   65 1
  47   17   66 1
  48   18   28 1
  49   19   30 1
  50   19   20 1
  51   19   67 1
  52   20   21 1
  53   20   23 1
  54   20   68 1
  55   21   22 1
  56   21   26 1
  57   21   69 1
  58   23   24 1
  59   23   31 1
  60   24   25 1
  61   24   70 1
  62   24   71 1
  63   25   26 1
  64   25   29 1
  65   25   72 1
  66   26   73 1
  67   26   74 1
  68   27   75 1
  69   27   76 1
  70   27   77 1
  71   28   78 1
  72   28   79 1
  73   28   80 1
  74   29   81 1
  75   29   82 1
  76   29   83 1
  77   30   84 1
  78   30   85 1
  79   30   86 1
  80   31   33 1
  81   31   87 1
  82   31   88 1
  83   33   34 1
  84   33   89 1
  85   33   90 1
  86   34   35 am
  87   34   91 1
  88   35   36 1
  89   35   37 2
  90   36   38 1
  91   36   92 1
  92   36   93 1
  93   38   39 1
  94   38   94 1
  95   38   95 1
  96   39   40 ar
  97   39   44 ar
  98   40   41 ar
  99   40   96 1
 100   41   42 ar
 101   41   97 1
 102   42   43 ar
 103   42   98 1
 104   43   44 ar
 105   43   99 1
 106   44  100 1

#	End of record

