#	Name: ASD03430287
#	Creating user name:	WinNT
#	Creation time:	15. 06. 2019 20:40

#	Modifying user name:	WinNT
#	Modification time:	15. 06. 2019 20:40

#	Program:	/corina/corina34_cracker 3.40 0067  02.08.2006

@<TRIPOS>MOLECULE
ASD03430287
  56   61    0    0    0
SMALL
NO_CHARGES


@<TRIPOS>ATOM
   1 C1            -0.0167     1.3777     0.0096 C.ar    
   2 C2             0.0021    -0.0041     0.0020 C.ar    
   3 C3             1.2022    -0.6817    -0.0141 C.ar    
   4 C4             2.4101     0.0125    -0.0120 C.ar    
   5 C5             2.3884     1.4026    -0.0087 C.ar    
   6 C6             1.1804     2.0827     0.0020 C.ar    
   7 O7             3.4709    -0.8429    -0.0007 O.3     
   8 C8             1.5501    -2.1458    -0.0494 C.3     
   9 C9             3.0359    -2.1458    -0.4348 C.3     
  10 C10            0.4233    -3.8594     1.0067 C.ar    
  11 C11            1.3141    -2.8211     1.2689 C.ar    
  12 C12            0.7156    -2.9050    -1.0405 C.2     
  13 N13            0.0931    -3.8814    -0.3505 N.am    
  14 O14            0.6199    -2.6827    -2.2290 O.2     
  15 C15            1.7815    -2.6050     2.5456 C.ar    
  16 C16            1.3676    -3.4220     3.5830 C.ar    
  17 C17            0.4831    -4.4552     3.3345 C.ar    
  18 C18            0.0115    -4.6758     2.0567 C.ar    
  19 C19           -0.8224    -4.8531    -0.9538 C.3     
  20 C20           -2.2286    -4.3133    -0.9091 C.2     
  21 C21           -2.8148    -3.5653    -1.8611 C.2     
  22 C22           -4.1249    -3.2824    -1.4110 C.2     
  23 C23           -4.2609    -3.8744    -0.2109 C.2     
  24 O24           -3.1112    -4.5022     0.0855 O.3     
  25 N25            1.1669     3.4793     0.0051 N.pl3   
  26 C26           -0.1088     4.1995     0.0164 C.3     
  27 C27            0.0644     5.6058    -0.5933 C.3     
  28 C28           -0.3093     6.5837     0.5413 C.3     
  29 N29           -0.0843     5.8115     1.7903 N.3     
  30 C30           -0.5726     4.4459     1.4681 C.3     
  31 C31           -5.4959    -3.8433     0.6522 C.3     
  32 F32           -6.3179    -4.9284     0.3294 F       
  33 F33           -5.1258    -3.9231     1.9990 F       
  34 F34           -6.1906    -2.6496     0.4295 F       
  35 H35           -0.9579     1.9073     0.0170 H       
  36 H36           -0.9269    -0.5549     0.0091 H       
  37 H37            3.3164     1.9550    -0.0145 H       
  38 H38            3.1561    -2.2547    -1.5127 H       
  39 H39            3.5737    -2.9306     0.0970 H       
  40 H40            2.4720    -1.7971     2.7377 H       
  41 H41            1.7350    -3.2532     4.5845 H       
  42 H42            0.1602    -5.0928     4.1442 H       
  43 H43           -0.6795    -5.4846     1.8704 H       
  44 H44           -0.5337    -5.0296    -1.9899 H       
  45 H45           -0.7750    -5.7900    -0.3988 H       
  46 H46           -2.3698    -3.2423    -2.7906 H       
  47 H47           -4.8727    -2.7020    -1.9309 H       
  48 H48            2.0022     3.9725    -0.0003 H       
  49 H49           -0.8643     3.6386    -0.5340 H       
  50 H50            1.0986     5.7603    -0.9010 H       
  51 H51           -0.6073     5.7360    -1.4418 H       
  52 H52            0.3369     7.4611     0.5152 H       
  53 H53           -1.3555     6.8785     0.4599 H       
  54 H54            0.8944     5.7971     2.0352 H       
  55 H55           -1.6600     4.4062     1.5317 H       
  56 H56           -0.1246     3.7136     2.1398 H       
@<TRIPOS>BOND
   1    1    2 ar
   2    1    6 ar
   3    1   35 1
   4    2    3 ar
   5    2   36 1
   6    3    4 ar
   7    3    8 1
   8    4    5 ar
   9    4    7 1
  10    5    6 ar
  11    5   37 1
  12    6   25 1
  13    7    9 1
  14    8    9 1
  15    8   11 1
  16    8   12 1
  17    9   38 1
  18    9   39 1
  19   10   11 ar
  20   10   13 1
  21   10   18 ar
  22   11   15 ar
  23   12   13 am
  24   12   14 2
  25   13   19 1
  26   15   16 ar
  27   15   40 1
  28   16   17 ar
  29   16   41 1
  30   17   18 ar
  31   17   42 1
  32   18   43 1
  33   19   20 1
  34   19   44 1
  35   19   45 1
  36   20   21 2
  37   20   24 1
  38   21   22 1
  39   21   46 1
  40   22   23 2
  41   22   47 1
  42   23   24 1
  43   23   31 1
  44   25   26 1
  45   25   48 1
  46   26   27 1
  47   26   30 1
  48   26   49 1
  49   27   28 1
  50   27   50 1
  51   27   51 1
  52   28   29 1
  53   28   52 1
  54   28   53 1
  55   29   30 1
  56   29   54 1
  57   30   55 1
  58   30   56 1
  59   31   32 1
  60   31   33 1
  61   31   34 1

#	End of record

