#	Name: ASD03240720
#	Creating user name:	WinNT
#	Creation time:	15. 06. 2019 20:35

#	Modifying user name:	WinNT
#	Modification time:	15. 06. 2019 20:35

#	Program:	/corina/corina34_cracker 3.40 0067  02.08.2006

@<TRIPOS>MOLECULE
ASD03240720
  74   80    0    0    0
SMALL
NO_CHARGES


@<TRIPOS>ATOM
   1 C1            -0.8896     2.9005    -0.9907 C.2     
   2 N2            -1.0858     1.5708    -1.0333 N.2     
   3 C3            -0.0941     0.7206    -0.9652 C.2     
   4 C4             1.2700     1.2294    -0.8390 C.ar    
   5 C5             1.4693     2.6260    -0.7949 C.ar    
   6 N6             0.3601     3.4460    -0.8736 N.pl3   
   7 C7             2.3712     0.3706    -0.7612 C.ar    
   8 C8             3.6348     0.9406    -0.6420 C.ar    
   9 C9             3.7542     2.3433    -0.6046 C.ar    
  10 N10            2.6875     3.1252    -0.6809 N.ar    
  11 N11            0.2206     4.8391    -0.8585 N.2     
  12 C12           -1.0523     5.1375    -0.9612 C.2     
  13 C13           -1.7853     3.9601    -1.0408 C.2     
  14 C14            5.0966     2.9554    -0.4773 C.ar    
  15 C15            5.3822     4.1578    -1.1242 C.ar    
  16 C16            6.6348     4.7232    -1.0018 C.ar    
  17 C17            7.6066     4.1000    -0.2394 C.ar    
  18 C18            7.3295     2.9073     0.4046 C.ar    
  19 C19            6.0789     2.3349     0.2946 C.ar    
  20 C20            8.9729     4.7227    -0.1103 C.3     
  21 N21            8.9916     5.6268     1.0474 N.3     
  22 C22           10.3594     6.0684     1.3482 C.3     
  23 C23           10.3597     6.8876     2.6409 C.3     
  24 C24            9.4378     8.0985     2.4723 C.3     
  25 C25            8.0311     7.6128     2.1120 C.3     
  26 C26            8.0983     6.7727     0.8346 C.3     
  27 C27            9.3872     8.8763     3.7620 C.2     
  28 N28            8.6328     9.9899     3.8482 N.am    
  29 O29           10.0252     8.5002     4.7225 O.2     
  30 C30            8.5079    10.6573     5.0717 C.ar    
  31 C31            9.5856    10.7160     5.9455 C.ar    
  32 C32            9.4591    11.3759     7.1522 C.ar    
  33 C33            8.2609    11.9775     7.4907 C.ar    
  34 C34            7.1859    11.9208     6.6227 C.ar    
  35 C35            7.3076    11.2673     5.4121 C.ar    
  36 C36            4.8403     0.0821    -0.5548 C.ar    
  37 C37            4.8841    -0.9722     0.3561 C.ar    
  38 C38            6.0087    -1.7683     0.4325 C.ar    
  39 C39            7.0913    -1.5218    -0.3927 C.ar    
  40 C40            7.0535    -0.4770    -1.2985 C.ar    
  41 C41            5.9322     0.3225    -1.3875 C.ar    
  42 C42           -1.6268     6.5305    -0.9832 C.3     
  43 H43           -0.2808    -0.3425    -1.0013 H       
  44 H44            2.2446    -0.7015    -0.7924 H       
  45 H45           -2.8590     3.8829    -1.1281 H       
  46 H46            4.6245     4.6451    -1.7199 H       
  47 H47            6.8573     5.6539    -1.5024 H       
  48 H48            8.0923     2.4256     0.9983 H       
  49 H49            5.8622     1.4064     0.8017 H       
  50 H50            9.7177     3.9390     0.0287 H       
  51 H51            9.2025     5.2858    -1.0149 H       
  52 H52           11.0037     5.1977     1.4698 H       
  53 H53           10.7310     6.6833     0.5285 H       
  54 H54           10.0012     6.2691     3.4637 H       
  55 H55           11.3725     7.2284     2.8555 H       
  56 H56            9.8179     8.7374     1.6752 H       
  57 H57            7.6359     7.0058     2.9265 H       
  58 H58            7.3802     8.4718     1.9488 H       
  59 H59            8.4805     7.3843     0.0174 H       
  60 H60            7.1003     6.4135     0.5833 H       
  61 H61            8.1766    10.3286     3.0621 H       
  62 H62           10.5214    10.2458     5.6820 H       
  63 H63           10.2969    11.4219     7.8322 H       
  64 H64            8.1643    12.4923     8.4352 H       
  65 H65            6.2514    12.3916     6.8900 H       
  66 H66            6.4690    11.2269     4.7328 H       
  67 H67            4.0396    -1.1654     1.0011 H       
  68 H68            6.0439    -2.5852     1.1381 H       
  69 H69            7.9695    -2.1472    -0.3292 H       
  70 H70            7.9018    -0.2890    -1.9400 H       
  71 H71            5.9022     1.1353    -2.0979 H       
  72 H72           -1.6784     6.8860    -2.0123 H       
  73 H73           -2.6281     6.5175    -0.5527 H       
  74 H74           -0.9894     7.1956    -0.4006 H       
@<TRIPOS>BOND
   1    1    2 1
   2    1    6 1
   3    1   13 2
   4    2    3 2
   5    3    4 1
   6    3   43 1
   7    4    5 ar
   8    4    7 ar
   9    5    6 1
  10    5   10 ar
  11    6   11 1
  12    7    8 ar
  13    7   44 1
  14    8    9 ar
  15    8   36 1
  16    9   10 ar
  17    9   14 1
  18   11   12 2
  19   12   13 1
  20   12   42 1
  21   13   45 1
  22   14   15 ar
  23   14   19 ar
  24   15   16 ar
  25   15   46 1
  26   16   17 ar
  27   16   47 1
  28   17   18 ar
  29   17   20 1
  30   18   19 ar
  31   18   48 1
  32   19   49 1
  33   20   21 1
  34   20   50 1
  35   20   51 1
  36   21   22 1
  37   21   26 1
  38   22   23 1
  39   22   52 1
  40   22   53 1
  41   23   24 1
  42   23   54 1
  43   23   55 1
  44   24   25 1
  45   24   27 1
  46   24   56 1
  47   25   26 1
  48   25   57 1
  49   25   58 1
  50   26   59 1
  51   26   60 1
  52   27   28 am
  53   27   29 2
  54   28   30 1
  55   28   61 1
  56   30   31 ar
  57   30   35 ar
  58   31   32 ar
  59   31   62 1
  60   32   33 ar
  61   32   63 1
  62   33   34 ar
  63   33   64 1
  64   34   35 ar
  65   34   65 1
  66   35   66 1
  67   36   37 ar
  68   36   41 ar
  69   37   38 ar
  70   37   67 1
  71   38   39 ar
  72   38   68 1
  73   39   40 ar
  74   39   69 1
  75   40   41 ar
  76   40   70 1
  77   41   71 1
  78   42   72 1
  79   42   73 1
  80   42   74 1

#	End of record

