#	Name: ASD01917868
#	Creating user name:	WinNT
#	Creation time:	15. 06. 2019 20:10

#	Modifying user name:	WinNT
#	Modification time:	15. 06. 2019 20:10

#	Program:	/corina/corina34_cracker 3.40 0067  02.08.2006

@<TRIPOS>MOLECULE
ASD01917868
  43   46    0    0    0
SMALL
NO_CHARGES


@<TRIPOS>ATOM
   1 C1             0.0065     1.2801    -0.0875 C.2     
   2 C2            -0.0050    -0.0659    -0.0771 C.2     
   3 C3            -1.2872    -0.8824    -0.0271 C.3     
   4 C4            -2.4271     0.0047     0.4791 C.3     
   5 N5            -2.3948     1.2871    -0.2401 N.am    
   6 C6            -1.2232     2.1577    -0.0398 C.3     
   7 C7            -3.4039     1.6536    -1.0549 C.2     
   8 O8            -4.3087     0.8748    -1.2913 O.2     
   9 S9             1.6754     1.8285    -0.1573 S.3     
  10 C10            2.2156     0.2068    -0.1619 C.2     
  11 N11            1.2104    -0.5949    -0.1163 N.2     
  12 C12            3.6595    -0.2216    -0.2126 C.3     
  13 O13            4.0649    -0.3697    -1.5749 O.3     
  14 C14            5.3491    -0.7544    -1.7981 C.ar    
  15 C15            5.8098    -0.9175    -3.0964 C.ar    
  16 C16            7.1156    -1.3087    -3.3207 C.ar    
  17 C17            7.9631    -1.5376    -2.2525 C.ar    
  18 C18            7.5062    -1.3761    -0.9575 C.ar    
  19 C19            6.2030    -0.9791    -0.7281 C.ar    
  20 C20           -3.4116     2.9910    -1.6567 C.2     
  21 O21           -2.5447     3.9881    -1.3839 O.3     
  22 C22           -2.8563     5.0622    -2.1208 C.2     
  23 C23           -3.9338     4.7694    -2.8820 C.2     
  24 C24           -4.2938     3.4433    -2.5957 C.2     
  25 C25           -5.4349     2.6696    -3.2043 C.3     
  26 H26           -1.5258    -1.2476    -1.0260 H       
  27 H27           -1.1552    -1.7272     0.6489 H       
  28 H28           -3.3815    -0.4902     0.2991 H       
  29 H29           -2.3034     0.1827     1.5473 H       
  30 H30           -1.2902     2.6516     0.9296 H       
  31 H31           -1.1756     2.9031    -0.8336 H       
  32 H32            4.2796     0.5331     0.2711 H       
  33 H33            3.7745    -1.1733     0.3062 H       
  34 H34            5.1481    -0.7392    -3.9311 H       
  35 H35            7.4747    -1.4361    -4.3312 H       
  36 H36            8.9836    -1.8433    -2.4298 H       
  37 H37            8.1699    -1.5562    -0.1248 H       
  38 H38            5.8466    -0.8531     0.2836 H       
  39 H39           -2.3328     6.0067    -2.1086 H       
  40 H40           -4.4236     5.4303    -3.5818 H       
  41 H41           -6.3335     2.8158    -2.6049 H       
  42 H42           -5.6136     3.0240    -4.2194 H       
  43 H43           -5.1829     1.6094    -3.2286 H       
@<TRIPOS>BOND
   1    1    2 2
   2    1    9 1
   3    1    6 1
   4    2    3 1
   5    2   11 1
   6    3    4 1
   7    3   26 1
   8    3   27 1
   9    4    5 1
  10    4   28 1
  11    4   29 1
  12    5    6 1
  13    5    7 am
  14    6   30 1
  15    6   31 1
  16    7    8 2
  17    7   20 1
  18    9   10 1
  19   10   11 2
  20   10   12 1
  21   12   13 1
  22   12   32 1
  23   12   33 1
  24   13   14 1
  25   14   15 ar
  26   14   19 ar
  27   15   16 ar
  28   15   34 1
  29   16   17 ar
  30   16   35 1
  31   17   18 ar
  32   17   36 1
  33   18   19 ar
  34   18   37 1
  35   19   38 1
  36   20   21 1
  37   20   24 2
  38   21   22 1
  39   22   23 2
  40   22   39 1
  41   23   24 1
  42   23   40 1
  43   24   25 1
  44   25   41 1
  45   25   42 1
  46   25   43 1

#	End of record

