#	Name: ASD01350059
#	Creating user name:	WinNT
#	Creation time:	15. 06. 2019 19:16

#	Modifying user name:	WinNT
#	Modification time:	15. 06. 2019 19:16

#	Program:	/corina/corina34_cracker 3.40 0067  02.08.2006

@<TRIPOS>MOLECULE
ASD01350059
  91   92    0    0    0
SMALL
NO_CHARGES


@<TRIPOS>ATOM
   1 C1             3.5451     2.4367     1.9667 C.3     
   2 C2             3.1843     0.9662     1.7471 C.3     
   3 C3             1.6624     0.8155     1.7039 C.3     
   4 C4             1.3015    -0.6551     1.4844 C.3     
   5 C5            -0.2204    -0.8058     1.4412 C.3     
   6 C6            -0.5812    -2.2764     1.2216 C.3     
   7 C7            -2.1032    -2.4271     1.1784 C.3     
   8 C8            -2.4640    -3.8976     0.9589 C.3     
   9 C9            -3.9859    -4.0484     0.9157 C.3     
  10 C10           -4.3413    -5.4968     0.6994 C.2     
  11 O11           -3.4637    -6.3268     0.5905 O.2     
  12 N12           -5.6344    -5.8699     0.6270 N.am    
  13 C13           -5.9799    -7.2779     0.4168 C.3     
  14 C14           -6.1179    -7.9659     1.7505 C.ar    
  15 C15           -7.3471    -7.9981     2.3855 C.ar    
  16 C16           -7.4843    -8.6264     3.6088 C.ar    
  17 C17           -6.3890    -9.2289     4.2065 C.ar    
  18 C18           -5.1448    -9.1985     3.5668 C.ar    
  19 C19           -5.0194    -8.5661     2.3312 C.ar    
  20 C20           -3.9676    -9.8398     4.1976 C.ar    
  21 C21           -3.1752   -10.7212     3.4605 C.ar    
  22 C22           -2.0818   -11.3178     4.0455 C.ar    
  23 C23           -1.7646   -11.0404     5.3784 C.ar    
  24 C24           -2.5587   -10.1571     6.1155 C.ar    
  25 C25           -3.6485    -9.5577     5.5268 C.ar    
  26 C26           -0.5928   -11.6799     6.0069 C.2     
  27 O27            0.0968   -12.4478     5.3659 O.2     
  28 O28           -0.2875   -11.4121     7.2917 O.3     
  29 C29            0.8790   -12.0770     7.8444 C.3     
  30 C30            1.0651   -11.6523     9.3024 C.3     
  31 N31           -0.0689   -12.1353    10.1016 N.3     
  32 C32            0.0439   -13.5774    10.3576 C.3     
  33 C33           -0.1842   -11.3849    11.3592 C.3     
  34 O34           -6.5224    -9.8462     5.4087 O.3     
  35 C35           -7.8223    -9.8369     6.0021 C.3     
  36 C36           -6.6945    -4.8673     0.7585 C.3     
  37 C37           -7.0437    -4.3100    -0.6229 C.3     
  38 N38           -8.1066    -3.3047    -0.4910 N.3     
  39 C39           -8.3046    -2.5792    -1.7530 C.3     
  40 C40           -9.3601    -3.9206    -0.0356 C.3     
  41 H41            4.6294     2.5441     1.9974 H       
  42 H42            3.1438     3.0354     1.1489 H       
  43 H43            3.1193     2.7784     2.9101 H       
  44 H44            3.6102     0.6246     0.8037 H       
  45 H45            3.5857     0.3676     2.5648 H       
  46 H46            1.2365     1.1571     2.6473 H       
  47 H47            1.2610     1.4141     0.8862 H       
  48 H48            1.7274    -0.9967     0.5409 H       
  49 H49            1.7029    -1.2537     2.3021 H       
  50 H50           -0.6463    -0.4642     2.3846 H       
  51 H51           -0.6218    -0.2072     0.6234 H       
  52 H52           -0.1554    -2.6180     0.2782 H       
  53 H53           -0.1799    -2.8750     2.0393 H       
  54 H54           -2.5290    -2.0855     2.1219 H       
  55 H55           -2.5045    -1.8285     0.3607 H       
  56 H56           -2.0381    -4.2393     0.0155 H       
  57 H57           -2.0626    -4.4962     1.7766 H       
  58 H58           -4.4118    -3.7067     1.8591 H       
  59 H59           -4.3873    -3.4498     0.0980 H       
  60 H60           -6.9233    -7.3435    -0.1253 H       
  61 H61           -5.1937    -7.7624    -0.1623 H       
  62 H62           -8.2033    -7.5297     1.9230 H       
  63 H63           -8.4461    -8.6475     4.0995 H       
  64 H64           -4.0619    -8.5392     1.8323 H       
  65 H65           -3.4205   -10.9353     2.4308 H       
  66 H66           -1.4692   -12.0004     3.4751 H       
  67 H67           -2.3146    -9.9420     7.1453 H       
  68 H68           -4.2620    -8.8749     6.0959 H       
  69 H69            0.7390   -13.1568     7.7955 H       
  70 H70            1.7622   -11.7988     7.2694 H       
  71 H71            1.9904   -12.0786     9.6898 H       
  72 H72            1.1137   -10.5649     9.3607 H       
  73 H73            0.9663   -13.7788    10.9023 H       
  74 H74           -0.8082   -13.9088    10.9511 H       
  75 H75            0.0572   -14.1148     9.4094 H       
  76 H76           -0.3243   -10.3265    11.1392 H       
  77 H77           -1.0389   -11.7544    11.9258 H       
  78 H78            0.7250   -11.5168    11.9457 H       
  79 H79           -7.7898   -10.3622     6.9566 H       
  80 H80           -8.1400    -8.8070     6.1649 H       
  81 H81           -8.5287   -10.3343     5.3375 H       
  82 H82           -7.5786    -5.3289     1.1982 H       
  83 H83           -6.3503    -4.0567     1.4009 H       
  84 H84           -6.1595    -3.8484    -1.0626 H       
  85 H85           -7.3878    -5.1206    -1.2653 H       
  86 H86           -8.5846    -3.2832    -2.5367 H       
  87 H87           -9.0970    -1.8413    -1.6274 H       
  88 H88           -7.3792    -2.0750    -2.0312 H       
  89 H89           -9.2020    -4.3914     0.9347 H       
  90 H90          -10.1301    -3.1542     0.0536 H       
  91 H91           -9.6783    -4.6731    -0.7571 H       
@<TRIPOS>BOND
   1    1    2 1
   2    1   41 1
   3    1   42 1
   4    1   43 1
   5    2    3 1
   6    2   44 1
   7    2   45 1
   8    3    4 1
   9    3   46 1
  10    3   47 1
  11    4    5 1
  12    4   48 1
  13    4   49 1
  14    5    6 1
  15    5   50 1
  16    5   51 1
  17    6    7 1
  18    6   52 1
  19    6   53 1
  20    7    8 1
  21    7   54 1
  22    7   55 1
  23    8    9 1
  24    8   56 1
  25    8   57 1
  26    9   10 1
  27    9   58 1
  28    9   59 1
  29   10   11 2
  30   10   12 am
  31   12   13 1
  32   12   36 1
  33   13   14 1
  34   13   60 1
  35   13   61 1
  36   14   15 ar
  37   14   19 ar
  38   15   16 ar
  39   15   62 1
  40   16   17 ar
  41   16   63 1
  42   17   18 ar
  43   17   34 1
  44   18   19 ar
  45   18   20 1
  46   19   64 1
  47   20   21 ar
  48   20   25 ar
  49   21   22 ar
  50   21   65 1
  51   22   23 ar
  52   22   66 1
  53   23   24 ar
  54   23   26 1
  55   24   25 ar
  56   24   67 1
  57   25   68 1
  58   26   27 2
  59   26   28 1
  60   28   29 1
  61   29   30 1
  62   29   69 1
  63   29   70 1
  64   30   31 1
  65   30   71 1
  66   30   72 1
  67   31   32 1
  68   31   33 1
  69   32   73 1
  70   32   74 1
  71   32   75 1
  72   33   76 1
  73   33   77 1
  74   33   78 1
  75   34   35 1
  76   35   79 1
  77   35   80 1
  78   35   81 1
  79   36   37 1
  80   36   82 1
  81   36   83 1
  82   37   38 1
  83   37   84 1
  84   37   85 1
  85   38   39 1
  86   38   40 1
  87   39   86 1
  88   39   87 1
  89   39   88 1
  90   40   89 1
  91   40   90 1
  92   40   91 1

#	End of record

