#	Name: ASD01208440
#	Creating user name:	WinNT
#	Creation time:	15. 06. 2019 19:09

#	Modifying user name:	WinNT
#	Modification time:	15. 06. 2019 19:09

#	Program:	/corina/corina34_cracker 3.40 0067  02.08.2006

@<TRIPOS>MOLECULE
ASD01208440
  36   37    0    0    0
SMALL
NO_CHARGES


@<TRIPOS>ATOM
   1 N1            -0.1092     1.2166    -0.0368 N.am    
   2 C2             0.1228    -0.1412     0.0198 C.2     
   3 C3             1.4706    -0.3323     0.0440 C.2     
   4 C4             2.0774     0.9350     0.0013 C.2     
   5 C5             1.0979     1.8613    -0.0474 C.2     
   6 C6            -1.3193     1.8083    -0.0801 C.2     
   7 O7            -2.3222     1.1323    -0.1890 O.2     
   8 O8            -1.4162     3.1482    -0.0028 O.3     
   9 C9            -0.9065    -1.1992     0.0497 C.ar    
  10 C10           -0.5334    -2.5442    -0.0302 C.ar    
  11 N11           -2.1939    -0.8766     0.1583 N.ar    
  12 N12           -1.4580    -3.4843    -0.0029 N.ar    
  13 C13           -2.7355    -3.1565     0.0996 C.ar    
  14 C14           -3.1101    -1.8272     0.1845 C.ar    
  15 C15           -3.7869    -4.2357     0.1302 C.3     
  16 C16           -2.7513     3.7167    -0.0560 C.3     
  17 C17           -3.5824     3.1765     1.1095 C.3     
  18 C18           -2.6610     5.2407     0.0453 C.3     
  19 C19           -3.4171     3.3320    -1.3787 C.3     
  20 H20            1.9802    -1.2835     0.0882 H       
  21 H21            3.1393     1.1320     0.0066 H       
  22 H22            1.2420     2.9309    -0.0879 H       
  23 H23            0.5093    -2.8126    -0.1143 H       
  24 H24           -4.1544    -1.5665     0.2729 H       
  25 H25           -3.9687    -4.5367     1.1619 H       
  26 H26           -4.7108    -3.8552    -0.3054 H       
  27 H27           -3.4417    -5.0956    -0.4438 H       
  28 H28           -3.1080     3.4506     2.0518 H       
  29 H29           -4.5846     3.6033     1.0696 H       
  30 H30           -3.6467     2.0908     1.0374 H       
  31 H31           -2.0689     5.6255    -0.7850 H       
  32 H32           -3.6632     5.6675     0.0054 H       
  33 H33           -2.1866     5.5147     0.9876 H       
  34 H34           -3.4814     2.2463    -1.4508 H       
  35 H35           -4.4193     3.7588    -1.4185 H       
  36 H36           -2.8250     3.7168    -2.2090 H       
@<TRIPOS>BOND
   1    1    2 1
   2    1    5 1
   3    1    6 am
   4    2    3 2
   5    2    9 1
   6    3    4 1
   7    3   20 1
   8    4    5 2
   9    4   21 1
  10    5   22 1
  11    6    7 2
  12    6    8 1
  13    8   16 1
  14    9   10 ar
  15    9   11 ar
  16   10   12 ar
  17   10   23 1
  18   11   14 ar
  19   12   13 ar
  20   13   14 ar
  21   13   15 1
  22   14   24 1
  23   15   25 1
  24   15   26 1
  25   15   27 1
  26   16   17 1
  27   16   19 1
  28   16   18 1
  29   17   28 1
  30   17   29 1
  31   17   30 1
  32   18   31 1
  33   18   32 1
  34   18   33 1
  35   19   34 1
  36   19   35 1
  37   19   36 1

#	End of record

