#	Name: ASD03090858
#	Creating user name:	WinNT
#	Creation time:	15. 06. 2019 20:29

#	Modifying user name:	WinNT
#	Modification time:	15. 06. 2019 20:29

#	Program:	/corina/corina34_cracker 3.40 0067  02.08.2006

@<TRIPOS>MOLECULE
ASD03090858
  45   47    0    0    0
SMALL
NO_CHARGES


@<TRIPOS>ATOM
   1 N1            -0.0149     1.3421     0.1053 N.am    
   2 C2             0.0030    -0.0051     0.0723 C.2     
   3 O3            -1.0442    -0.6288     0.0752 O.2     
   4 N4             1.1687    -0.6570     0.0363 N.2     
   5 C5             1.2438     2.0918     0.1019 C.3     
   6 S6            -0.1729    -3.0447     0.0008 S.3     
   7 C7             1.1864    -1.9875     0.0037 C.2     
   8 N8             2.2793    -2.7909    -0.0347 N.pl3   
   9 C9             2.0560    -4.1338    -0.0639 C.2     
  10 C10            0.7906    -4.5309    -0.0521 C.2     
  11 C11            0.2795    -5.9484    -0.0787 C.3     
  12 O12            7.4851    -0.9543    -0.0528 O.3     
  13 C13            8.1209    -2.2099    -0.3569 C.3     
  14 O14            7.1778    -3.1928     0.1096 O.3     
  15 C15            5.9555    -2.5894     0.0355 C.ar    
  16 C16            6.1440    -1.2125    -0.0645 C.ar    
  17 C17            4.6733    -3.1114     0.0455 C.ar    
  18 C18            3.5781    -2.2627    -0.0443 C.ar    
  19 C19            3.7690    -0.8915    -0.1440 C.ar    
  20 C20            5.0485    -0.3694    -0.1545 C.ar    
  21 F21            8.3226    -2.3376    -1.7353 F       
  22 F22            9.3332    -2.3264     0.3315 F       
  23 C23           -1.2932     2.0571     0.1387 C.3     
  24 C24           -1.7202     2.2708     1.5922 C.3     
  25 C25           -3.0552     3.0175     1.6270 C.3     
  26 C26           -3.4823     3.2312     3.0806 C.3     
  27 H27            1.5382     2.3026    -0.9262 H       
  28 H28            1.1096     3.0295     0.6410 H       
  29 H29            2.0199     1.5008     0.5882 H       
  30 H30            2.8708    -4.8420    -0.0952 H       
  31 H31           -0.8103    -5.9421    -0.0608 H       
  32 H32            0.6251    -6.4422    -0.9869 H       
  33 H33            0.6541    -6.4861     0.7923 H       
  34 H34            4.5250    -4.1784     0.1226 H       
  35 H35            2.9166    -0.2319    -0.2138 H       
  36 H36            5.1947     0.6979    -0.2316 H       
  37 H37           -1.1819     3.0234    -0.3532 H       
  38 H38           -2.0513     1.4704    -0.3802 H       
  39 H39           -1.8315     1.3045     2.0841 H       
  40 H40           -0.9622     2.8575     2.1111 H       
  41 H41           -2.9440     3.9838     1.1352 H       
  42 H42           -3.8133     2.4308     1.1082 H       
  43 H43           -3.5935     2.2649     3.5725 H       
  44 H44           -2.7242     3.8179     3.5995 H       
  45 H45           -4.4333     3.7632     3.1054 H       
@<TRIPOS>BOND
   1    1    2 am
   2    1    5 1
   3    1   23 1
   4    2    3 2
   5    2    4 1
   6    4    7 2
   7    5   27 1
   8    5   28 1
   9    5   29 1
  10    6    7 1
  11    6   10 1
  12    7    8 1
  13    8    9 1
  14    8   18 1
  15    9   10 2
  16    9   30 1
  17   10   11 1
  18   11   31 1
  19   11   32 1
  20   11   33 1
  21   12   13 1
  22   12   16 1
  23   13   14 1
  24   13   21 1
  25   13   22 1
  26   14   15 1
  27   15   16 ar
  28   15   17 ar
  29   16   20 ar
  30   17   18 ar
  31   17   34 1
  32   18   19 ar
  33   19   20 ar
  34   19   35 1
  35   20   36 1
  36   23   24 1
  37   23   37 1
  38   23   38 1
  39   24   25 1
  40   24   39 1
  41   24   40 1
  42   25   26 1
  43   25   41 1
  44   25   42 1
  45   26   43 1
  46   26   44 1
  47   26   45 1

#	End of record

