#	Name: ASD05060022
#	Creating user name:	WinNT
#	Creation time:	15. 06. 2019 20:56

#	Modifying user name:	WinNT
#	Modification time:	15. 06. 2019 20:56

#	Program:	/corina/corina34_cracker 3.40 0067  02.08.2006

@<TRIPOS>MOLECULE
ASD05060022
  61   64    0    0    0
SMALL
NO_CHARGES


@<TRIPOS>ATOM
   1 C1            -0.0167     1.3789     0.0096 C.ar    
   2 C2             0.0021    -0.0041     0.0020 C.ar    
   3 C3             1.2144    -0.6896    -0.0169 C.ar    
   4 C4             2.4121     0.0242    -0.0283 C.ar    
   5 C5             2.3882     1.4032    -0.0190 C.ar    
   6 C6             1.1732     2.0867     0.0021 C.ar    
   7 O7             1.1971     3.4459     0.0212 O.3     
   8 C8            -0.0008     4.1398    -0.3295 C.3     
   9 C9            -1.1621     3.5350     0.4697 C.3     
  10 C10           -1.3498     2.0837     0.0199 C.3     
  11 F11            3.5483     2.0954    -0.0303 F       
  12 C12           -1.2944    -0.7723     0.0147 C.3     
  13 C13            1.2312    -2.1718    -0.0243 C.2     
  14 C14            1.5560    -2.8595     1.0977 C.2     
  15 C15            0.8896    -2.9137    -1.2475 C.ar    
  16 C16            0.9194    -4.3256    -1.2049 C.ar    
  17 C17            1.2893    -4.9777     0.0567 C.2     
  18 N18            1.5832    -4.2221     1.1324 N.am    
  19 C19            0.5419    -2.2646    -2.4302 C.ar    
  20 C20            0.2304    -3.0085    -3.5474 C.ar    
  21 C21            0.2590    -4.3962    -3.5060 C.ar    
  22 C22            0.6004    -5.0586    -2.3475 C.ar    
  23 C23            1.9505    -4.8890     2.3841 C.3     
  24 C24            1.8992    -2.0922     2.3485 C.3     
  25 O25            3.1842    -2.5015     2.8210 O.3     
  26 C26            3.9016    -1.4783     3.5141 C.3     
  27 C27            3.0952    -1.0265     4.7333 C.3     
  28 C28            5.2551    -2.0253     3.9720 C.3     
  29 C29            4.1226    -0.2876     2.5791 C.3     
  30 C30            0.8632    -2.3685     3.4074 C.2     
  31 O31           -0.4062    -1.9724     3.2241 O.3     
  32 O32            1.1751    -2.9467     4.4215 O.2     
  33 O33            1.3255    -6.1927     0.1318 O.2     
  34 H34            3.3557    -0.5011    -0.0441 H       
  35 H35            0.1022     5.1969    -0.0845 H       
  36 H36           -0.1915     4.0268    -1.3968 H       
  37 H37           -0.9295     3.5631     1.5342 H       
  38 H38           -2.0741     4.0999     0.2773 H       
  39 H39           -1.7778     2.0672    -0.9824 H       
  40 H40           -2.0230     1.5745     0.7095 H       
  41 H41           -1.6203    -0.9520    -1.0098 H       
  42 H42           -1.1467    -1.7259     0.5216 H       
  43 H43           -2.0539    -0.1946     0.5415 H       
  44 H44            0.5164    -1.1857    -2.4710 H       
  45 H45           -0.0394    -2.5069    -4.4650 H       
  46 H46            0.0110    -4.9622    -4.3917 H       
  47 H47            0.6205    -6.1382    -2.3242 H       
  48 H48            1.9273    -5.9692     2.2406 H       
  49 H49            2.9545    -4.5829     2.6778 H       
  50 H50            1.2428    -4.6109     3.1651 H       
  51 H51            1.9165    -1.0251     2.1268 H       
  52 H52            2.9377    -1.8748     5.3994 H       
  53 H53            3.6424    -0.2461     5.2620 H       
  54 H54            2.1309    -0.6369     4.4071 H       
  55 H55            5.8296    -2.3471     3.1034 H       
  56 H56            5.8023    -1.2448     4.5007 H       
  57 H57            5.0977    -2.8736     4.6382 H       
  58 H58            3.1584     0.1021     2.2528 H       
  59 H59            4.6698     0.4929     3.1078 H       
  60 H60            4.6971    -0.6095     1.7105 H       
  61 H61           -1.0348    -2.1720     3.9312 H       
@<TRIPOS>BOND
   1    1    2 ar
   2    1    6 ar
   3    1   10 1
   4    2    3 ar
   5    2   12 1
   6    3    4 ar
   7    3   13 1
   8    4    5 ar
   9    4   34 1
  10    5    6 ar
  11    5   11 1
  12    6    7 1
  13    7    8 1
  14    8    9 1
  15    8   35 1
  16    8   36 1
  17    9   10 1
  18    9   37 1
  19    9   38 1
  20   10   39 1
  21   10   40 1
  22   12   41 1
  23   12   42 1
  24   12   43 1
  25   13   14 2
  26   13   15 1
  27   14   24 1
  28   14   18 1
  29   15   16 ar
  30   15   19 ar
  31   16   17 1
  32   16   22 ar
  33   17   18 am
  34   17   33 2
  35   18   23 1
  36   19   20 ar
  37   19   44 1
  38   20   21 ar
  39   20   45 1
  40   21   22 ar
  41   21   46 1
  42   22   47 1
  43   23   48 1
  44   23   49 1
  45   23   50 1
  46   24   25 1
  47   24   30 1
  48   24   51 1
  49   25   26 1
  50   26   27 1
  51   26   28 1
  52   26   29 1
  53   27   52 1
  54   27   53 1
  55   27   54 1
  56   28   55 1
  57   28   56 1
  58   28   57 1
  59   29   58 1
  60   29   59 1
  61   29   60 1
  62   30   31 1
  63   30   32 2
  64   31   61 1

#	End of record

