#	Name: ASD03092588
#	Creating user name:	WinNT
#	Creation time:	15. 06. 2019 20:32

#	Modifying user name:	WinNT
#	Modification time:	15. 06. 2019 20:32

#	Program:	/corina/corina34_cracker 3.40 0067  02.08.2006

@<TRIPOS>MOLECULE
ASD03092588
  37   40    0    0    0
SMALL
NO_CHARGES


@<TRIPOS>ATOM
   1 O1            -0.0164     1.3553     0.0095 O.3     
   2 C2             0.0021    -0.0041     0.0020 C.ar    
   3 C3             0.0057    -0.6909    -1.2033 C.ar    
   4 C4             0.0240    -2.0716    -1.2114 C.ar    
   5 C5             0.0392    -2.7723    -0.0132 C.ar    
   6 C6             0.0360    -2.0846     1.1926 C.ar    
   7 C7             0.0230    -0.7039     1.1997 C.ar    
   8 N8             0.0573    -4.1754    -0.0209 N.pl3   
   9 C9            -0.7743    -4.9903    -0.7324 C.2     
  10 N10           -0.4777    -6.2378    -0.5048 N.2     
  11 C11            0.5581    -6.3055     0.3630 C.ar    
  12 C12            1.2860    -7.3526     0.9558 C.ar    
  13 N13            2.2754    -7.0422     1.7912 N.ar    
  14 C14            2.5721    -5.7859     2.0615 C.ar    
  15 N15            1.9182    -4.7732     1.5301 N.ar    
  16 C16            0.9197    -4.9821     0.6821 C.ar    
  17 C17            0.9598    -8.7659     0.6587 C.ar    
  18 C18           -0.0759    -9.0754    -0.2224 C.ar    
  19 C19           -0.3753   -10.3943    -0.4954 C.ar    
  20 C20            0.3489   -11.4104     0.1024 C.ar    
  21 C21            1.3773   -11.1126     0.9777 C.ar    
  22 C22            1.6920    -9.7955     1.2554 C.ar    
  23 F23            2.7009    -9.5047     2.1055 F       
  24 C24            0.0152   -12.8483    -0.2013 C.3     
  25 F25            0.7640   -13.2783    -1.3021 F       
  26 F26            0.3205   -13.6425     0.9092 F       
  27 F27           -1.3485   -12.9589    -0.4931 F       
  28 H28            0.8616     1.7606     0.0033 H       
  29 H29           -0.0061    -0.1456    -2.1355 H       
  30 H30            0.0261    -2.6062    -2.1498 H       
  31 H31            0.0477    -2.6294     2.1251 H       
  32 H32            0.0249    -0.1687     2.1378 H       
  33 H33           -1.5629    -4.6507    -1.3875 H       
  34 H34            3.3823    -5.5793     2.7452 H       
  35 H35           -0.6429    -8.2840    -0.6900 H       
  36 H36           -1.1776   -10.6343    -1.1774 H       
  37 H37            1.9384   -11.9104     1.4417 H       
@<TRIPOS>BOND
   1    1    2 1
   2    1   28 1
   3    2    7 ar
   4    2    3 ar
   5    3    4 ar
   6    3   29 1
   7    4    5 ar
   8    4   30 1
   9    5    6 ar
  10    5    8 1
  11    6    7 ar
  12    6   31 1
  13    7   32 1
  14    8   16 1
  15    8    9 1
  16    9   10 2
  17    9   33 1
  18   10   11 1
  19   11   16 ar
  20   11   12 ar
  21   12   13 ar
  22   12   17 1
  23   13   14 ar
  24   14   15 ar
  25   14   34 1
  26   15   16 ar
  27   17   22 ar
  28   17   18 ar
  29   18   19 ar
  30   18   35 1
  31   19   20 ar
  32   19   36 1
  33   20   21 ar
  34   20   24 1
  35   21   22 ar
  36   21   37 1
  37   22   23 1
  38   24   25 1
  39   24   26 1
  40   24   27 1

#	End of record

