#	Name: ASD04880435
#	Creating user name:	WinNT
#	Creation time:	15. 06. 2019 20:53

#	Modifying user name:	WinNT
#	Modification time:	15. 06. 2019 20:53

#	Program:	/corina/corina34_cracker 3.40 0067  02.08.2006

@<TRIPOS>MOLECULE
ASD04880435
  47   49    0    0    0
SMALL
NO_CHARGES


@<TRIPOS>ATOM
   1 C1            -0.0144     1.2118     0.0087 C.2     
   2 O2            -0.0081    -0.0039     0.0330 O.2     
   3 N3             1.1484     1.8907    -0.0503 N.am    
   4 N4             1.2747     3.2709    -0.1941 N.2     
   5 C5             2.4937     3.6875    -0.2250 C.2     
   6 C6             3.4332     2.5104    -0.0913 C.3     
   7 C7             2.4919     1.2961     0.0329 C.3     
   8 C8             2.6878     0.5948     1.3785 C.3     
   9 C9             2.7212     0.3201    -1.1229 C.3     
  10 C10            2.9083     5.0948    -0.3690 C.ar    
  11 C11            1.9448     6.1007    -0.4850 C.ar    
  12 C12            2.3390     7.4182    -0.6198 C.ar    
  13 C13            3.6944     7.7416    -0.6400 C.ar    
  14 C14            4.6508     6.7438    -0.5250 C.ar    
  15 C15            4.2650     5.4270    -0.3843 C.ar    
  16 O16            4.0801     9.0383    -0.7731 O.3     
  17 C17            5.4850     9.2992    -0.7862 C.3     
  18 O18            1.4042     8.3994    -0.7333 O.3     
  19 C19            0.0336     7.9960    -0.7053 C.3     
  20 C20           -1.2969     1.9446     0.0377 C.ar    
  21 C21           -1.3073     3.3358     0.1538 C.ar    
  22 C22           -2.5083     4.0138     0.1804 C.ar    
  23 C23           -3.7015     3.3187     0.0928 C.ar    
  24 C24           -3.6997     1.9401    -0.0225 C.ar    
  25 C25           -2.5050     1.2490    -0.0566 C.ar    
  26 Br26          -2.5042    -0.6355    -0.2142 Br      
  27 H27            4.0632     2.4217    -0.9763 H       
  28 H28            4.0443     2.6091     0.8059 H       
  29 H29            1.9613    -0.2117     1.4771 H       
  30 H30            3.6961     0.1839     1.4306 H       
  31 H31            2.5458     1.3126     2.1864 H       
  32 H32            2.6025     0.8451    -2.0708 H       
  33 H33            3.7293    -0.0894    -1.0581 H       
  34 H34            1.9951    -0.4907    -1.0633 H       
  35 H35            0.8947     5.8488    -0.4696 H       
  36 H36            5.7001     6.9989    -0.5411 H       
  37 H37            5.0118     4.6525    -0.2901 H       
  38 H38            5.9268     8.9568     0.1496 H       
  39 H39            5.9452     8.7696    -1.6204 H       
  40 H40            5.6547    10.3701    -0.8977 H       
  41 H41           -0.1602     7.3101    -1.5300 H       
  42 H42           -0.1790     7.4968     0.2401 H       
  43 H43           -0.6055     8.8734    -0.8047 H       
  44 H44           -0.3770     3.8800     0.2230 H       
  45 H45           -2.5173     5.0900     0.2701 H       
  46 H46           -4.6387     3.8549     0.1148 H       
  47 H47           -4.6347     1.4038    -0.0900 H       
@<TRIPOS>BOND
   1    1    2 2
   2    1    3 am
   3    1   20 1
   4    3    4 1
   5    3    7 1
   6    4    5 2
   7    5    6 1
   8    5   10 1
   9    6    7 1
  10    6   27 1
  11    6   28 1
  12    7    8 1
  13    7    9 1
  14    8   29 1
  15    8   30 1
  16    8   31 1
  17    9   32 1
  18    9   33 1
  19    9   34 1
  20   10   11 ar
  21   10   15 ar
  22   11   12 ar
  23   11   35 1
  24   12   13 ar
  25   12   18 1
  26   13   14 ar
  27   13   16 1
  28   14   15 ar
  29   14   36 1
  30   15   37 1
  31   16   17 1
  32   17   38 1
  33   17   39 1
  34   17   40 1
  35   18   19 1
  36   19   41 1
  37   19   42 1
  38   19   43 1
  39   20   21 ar
  40   20   25 ar
  41   21   22 ar
  42   21   44 1
  43   22   23 ar
  44   22   45 1
  45   23   24 ar
  46   23   46 1
  47   24   25 ar
  48   24   47 1
  49   25   26 1

#	End of record

