#	Name: ASD01150657
#	Creating user name:	WinNT
#	Creation time:	15. 06. 2019 19:04

#	Modifying user name:	WinNT
#	Modification time:	15. 06. 2019 19:04

#	Program:	/corina/corina34_cracker 3.40 0067  02.08.2006

@<TRIPOS>MOLECULE
ASD01150657
  58   61    0    0    0
SMALL
NO_CHARGES


@<TRIPOS>ATOM
   1 C1             0.4933     1.3919    -0.9465 C.ar    
   2 C2             0.4639     0.0109    -0.9224 C.ar    
   3 C3             1.9479     0.0102     0.9677 C.ar    
   4 C4             1.9789     1.3966     0.9446 C.ar    
   5 C5             1.2509     2.0887    -0.0132 C.ar    
   6 N6             1.2801     3.4880    -0.0392 N.am    
   7 C7             0.1264     4.1736    -0.1217 C.2     
   8 N8             0.1177     5.5194    -0.1489 N.am    
   9 C9             1.2790     6.2039    -0.0930 C.2     
  10 C10            2.5443     5.4601    -0.0027 C.2     
  11 N11            2.5098     4.1538     0.0269 N.2     
  12 O12            1.2793     7.4207    -0.1175 O.2     
  13 C13           -1.1538     6.2413    -0.2397 C.3     
  14 O14           -0.9269     3.5677    -0.1731 O.2     
  15 C15           -1.6751     6.5169     1.1472 C.ar    
  16 O16            3.7301     6.1204     0.0551 O.3     
  17 C17            4.9130     5.3233     0.1416 C.3     
  18 C18            1.1883    -0.6824     0.0308 C.ar    
  19 N19            2.6816    -0.6915     1.9324 N.am    
  20 C20            2.9446    -0.1217     3.1251 C.2     
  21 O21            2.6215     1.0289     3.3320 O.2     
  22 C22            3.6402    -0.9142     4.2018 C.3     
  23 C23           -1.3233     7.6851     1.7970 C.ar    
  24 C24           -1.7988     7.9425     3.0703 C.ar    
  25 C25           -2.6285     7.0313     3.6966 C.ar    
  26 C26           -2.9843     5.8551     3.0443 C.ar    
  27 C27           -2.5087     5.6040     1.7649 C.ar    
  28 F28            1.1574    -2.0329     0.0519 F       
  29 F29           -3.0927     7.2823     4.9403 F       
  30 N30           -3.8234     4.9306     3.6742 N.3     
  31 C31           -5.0527     4.7192     2.8961 C.3     
  32 C32           -5.9127     3.6588     3.5888 C.3     
  33 O33           -6.1854     4.0748     4.9297 O.3     
  34 C34           -5.0103     4.2892     5.7162 C.3     
  35 C35           -4.1412     5.3560     5.0450 C.3     
  36 H36           -0.0696     1.9304    -1.6945 H       
  37 H37           -0.1260    -0.5284    -1.6487 H       
  38 H38            2.5683     1.9367     1.6708 H       
  39 H39           -0.9995     7.1844    -0.7639 H       
  40 H40           -1.8771     5.6360    -0.7861 H       
  41 H41            4.8740     4.7118     1.0432 H       
  42 H42            4.9802     4.6767    -0.7333 H       
  43 H43            5.7871     5.9733     0.1810 H       
  44 H44            3.0005    -1.5876     1.7421 H       
  45 H45            3.8502    -1.9190     3.8351 H       
  46 H46            4.5754    -0.4220     4.4685 H       
  47 H47            2.9981    -0.9749     5.0805 H       
  48 H48           -0.6752     8.3984     1.3096 H       
  49 H49           -1.5214     8.8558     3.5755 H       
  50 H50           -2.7830     4.6919     1.2557 H       
  51 H51           -5.6088     5.6546     2.8331 H       
  52 H52           -4.7947     4.3801     1.8928 H       
  53 H53           -6.8508     3.5400     3.0467 H       
  54 H54           -5.3776     2.7093     3.6040 H       
  55 H55           -5.2958     4.6263     6.7126 H       
  56 H56           -4.4490     3.3580     5.7932 H       
  57 H57           -3.2178     5.4817     5.6104 H       
  58 H58           -4.6828     6.3015     5.0164 H       
@<TRIPOS>BOND
   1    1    2 ar
   2    1    5 ar
   3    1   36 1
   4    2   18 ar
   5    2   37 1
   6    3    4 ar
   7    3   19 1
   8    3   18 ar
   9    4    5 ar
  10    4   38 1
  11    5    6 1
  12    6    7 am
  13    6   11 1
  14    7    8 am
  15    7   14 2
  16    8    9 am
  17    8   13 1
  18    9   10 1
  19    9   12 2
  20   10   11 2
  21   10   16 1
  22   13   15 1
  23   13   39 1
  24   13   40 1
  25   15   23 ar
  26   15   27 ar
  27   16   17 1
  28   17   41 1
  29   17   42 1
  30   17   43 1
  31   18   28 1
  32   19   20 am
  33   19   44 1
  34   20   21 2
  35   20   22 1
  36   22   45 1
  37   22   46 1
  38   22   47 1
  39   23   24 ar
  40   23   48 1
  41   24   25 ar
  42   24   49 1
  43   25   26 ar
  44   25   29 1
  45   26   27 ar
  46   26   30 1
  47   27   50 1
  48   30   31 1
  49   30   35 1
  50   31   32 1
  51   31   51 1
  52   31   52 1
  53   32   33 1
  54   32   53 1
  55   32   54 1
  56   33   34 1
  57   34   35 1
  58   34   55 1
  59   34   56 1
  60   35   57 1
  61   35   58 1

#	End of record

