#	Name: ASD03090066
#	Creating user name:	WinNT
#	Creation time:	15. 06. 2019 20:28

#	Modifying user name:	WinNT
#	Modification time:	15. 06. 2019 20:28

#	Program:	/corina/corina34_cracker 3.40 0067  02.08.2006

@<TRIPOS>MOLECULE
ASD03090066
  41   43    0    0    0
SMALL
NO_CHARGES


@<TRIPOS>ATOM
   1 O1            -0.1221     1.3891    -0.1311 O.3     
   2 N2            -0.2913     0.1932    -0.1834 N.2     
   3 C3             0.8323    -0.4626    -0.0979 C.2     
   4 C4             1.8522     0.4998     0.0272 C.2     
   5 C5             1.1813     1.6955     0.0006 C.2     
   6 C6             1.4649     3.8969     1.2501 C.2     
   7 C7             1.7694     3.0440     0.0961 C.2     
   8 O8             1.9504     5.0103     1.3290 O.2     
   9 N9             0.6475     3.4478     2.2231 N.am    
  10 C10            1.0055    -1.9593    -0.1267 C.3     
  11 C11            2.5974     3.4990    -0.8894 C.2     
  12 N12            2.8801     2.7070    -1.9611 N.pl3   
  13 C13            3.7276     3.1727    -2.9698 C.ar    
  14 C14            4.0168     2.3661    -4.0632 C.ar    
  15 C15            4.8560     2.8304    -5.0595 C.ar    
  16 C16            5.4075     4.0980    -4.9666 C.ar    
  17 C17            5.1204     4.9014    -3.8790 C.ar    
  18 C18            4.2779     4.4453    -2.8839 C.ar    
  19 F19            5.1385     2.0475    -6.1237 F       
  20 C20            0.4341     4.2205     3.3696 C.ar    
  21 C21            0.3833     5.6052     3.2757 C.ar    
  22 C22            0.1720     6.3657     4.4090 C.ar    
  23 C23            0.0111     5.7491     5.6374 C.ar    
  24 C24            0.0614     4.3695     5.7338 C.ar    
  25 C25            0.2671     3.6041     4.6028 C.ar    
  26 Cl26          -0.2536     6.7080     7.0602 Cl      
  27 H27            2.9153     0.3348     0.1220 H       
  28 H28            0.2071     2.5887     2.1283 H       
  29 H29            1.1435    -2.2893    -1.1564 H       
  30 H30            1.8793    -2.2354     0.4635 H       
  31 H31            0.1190    -2.4358     0.2918 H       
  32 H32            3.0282     4.4869    -0.8194 H       
  33 H33            2.4932     1.8197    -2.0240 H       
  34 H34            3.5872     1.3778    -4.1348 H       
  35 H35            6.0633     4.4588    -5.7452 H       
  36 H36            5.5519     5.8891    -3.8095 H       
  37 H37            4.0508     5.0761    -2.0372 H       
  38 H38            0.5091     6.0869     2.3173 H       
  39 H39            0.1328     7.4425     4.3366 H       
  40 H40           -0.0645     3.8908     6.6937 H       
  41 H41            0.3021     2.5273     4.6780 H       
@<TRIPOS>BOND
   1    1    2 1
   2    1    5 1
   3    2    3 2
   4    3    4 1
   5    3   10 1
   6    4    5 2
   7    4   27 1
   8    5    7 1
   9    6    7 1
  10    6    8 2
  11    6    9 am
  12    7   11 2
  13    9   20 1
  14    9   28 1
  15   10   29 1
  16   10   30 1
  17   10   31 1
  18   11   12 1
  19   11   32 1
  20   12   13 1
  21   12   33 1
  22   13   14 ar
  23   13   18 ar
  24   14   15 ar
  25   14   34 1
  26   15   16 ar
  27   15   19 1
  28   16   17 ar
  29   16   35 1
  30   17   18 ar
  31   17   36 1
  32   18   37 1
  33   20   21 ar
  34   20   25 ar
  35   21   22 ar
  36   21   38 1
  37   22   23 ar
  38   22   39 1
  39   23   24 ar
  40   23   26 1
  41   24   25 ar
  42   24   40 1
  43   25   41 1

#	End of record

