#	Name: ASD01882292
#	Creating user name:	WinNT
#	Creation time:	15. 06. 2019 19:44

#	Modifying user name:	WinNT
#	Modification time:	15. 06. 2019 19:44

#	Program:	/corina/corina34_cracker 3.40 0067  02.08.2006

@<TRIPOS>MOLECULE
ASD01882292
  41   42    0    0    0
SMALL
NO_CHARGES


@<TRIPOS>ATOM
   1 N1            -0.0165     1.3692     0.0096 N.pl3   
   2 O2             1.1412    -0.7243    -0.0127 O.3     
   3 C3             0.0021    -0.0041     0.0020 C.2     
   4 N4            -1.0753    -0.7270     0.0089 N.2     
   5 C5            -0.6823    -2.1496     0.0076 C.3     
   6 C6             0.8153    -2.0697     0.3922 C.3     
   7 C7             1.6390    -3.0940    -0.3909 C.3     
   8 O8             3.0178    -2.9666    -0.0377 O.3     
   9 C9             3.8788    -3.8829    -0.7168 C.3     
  10 C10            5.3010    -3.6608    -0.2705 C.ar    
  11 C11            5.8011    -4.3549     0.8153 C.ar    
  12 C12            7.1056    -4.1511     1.2247 C.ar    
  13 C13            7.9101    -3.2535     0.5480 C.ar    
  14 C14            7.4103    -2.5600    -0.5383 C.ar    
  15 C15            6.1071    -2.7670    -0.9504 C.ar    
  16 C16            9.3320    -3.0306     0.9950 C.3     
  17 C17           10.1035    -4.3496     0.9178 C.3     
  18 C18            9.9968    -1.9968     0.0839 C.3     
  19 C19            9.3391    -2.5192     2.4369 C.3     
  20 H20            0.8168     1.8655     0.0043 H       
  21 H21           -0.8631     1.8427     0.0162 H       
  22 H22           -1.2463    -2.7101     0.7532 H       
  23 H23           -0.8071    -2.5872    -0.9829 H       
  24 H24            0.9511    -2.1991     1.4659 H       
  25 H25            1.2935    -4.0992    -0.1495 H       
  26 H26            1.5198    -2.9156    -1.4596 H       
  27 H27            3.5797    -4.9045    -0.4822 H       
  28 H28            3.8060    -3.7209    -1.7922 H       
  29 H29            5.1725    -5.0562     1.3440 H       
  30 H30            7.4961    -4.6929     2.0735 H       
  31 H31            8.0388    -1.8585    -1.0668 H       
  32 H32            5.7178    -2.2280    -1.8014 H       
  33 H33           10.0985    -4.7139    -0.1094 H       
  34 H34           11.1319    -4.1883     1.2411 H       
  35 H35            9.6299    -5.0861     1.5669 H       
  36 H36            9.4472    -1.0572     0.1388 H       
  37 H37           11.0252    -1.8356     0.4071 H       
  38 H38            9.9918    -2.3612    -0.9434 H       
  39 H39            8.8654    -3.2557     3.0860 H       
  40 H40           10.3675    -2.3579     2.7602 H       
  41 H41            8.7894    -1.5795     2.4919 H       
@<TRIPOS>BOND
   1    1    3 1
   2    1   20 1
   3    1   21 1
   4    2    3 1
   5    2    6 1
   6    3    4 2
   7    4    5 1
   8    5    6 1
   9    5   22 1
  10    5   23 1
  11    6    7 1
  12    6   24 1
  13    7    8 1
  14    7   25 1
  15    7   26 1
  16    8    9 1
  17    9   10 1
  18    9   27 1
  19    9   28 1
  20   10   11 ar
  21   10   15 ar
  22   11   12 ar
  23   11   29 1
  24   12   13 ar
  25   12   30 1
  26   13   14 ar
  27   13   16 1
  28   14   15 ar
  29   14   31 1
  30   15   32 1
  31   16   17 1
  32   16   19 1
  33   16   18 1
  34   17   33 1
  35   17   34 1
  36   17   35 1
  37   18   36 1
  38   18   37 1
  39   18   38 1
  40   19   39 1
  41   19   40 1
  42   19   41 1

#	End of record

