#	Name: ASD03092385
#	Creating user name:	WinNT
#	Creation time:	15. 06. 2019 20:32

#	Modifying user name:	WinNT
#	Modification time:	15. 06. 2019 20:32

#	Program:	/corina/corina34_cracker 3.40 0067  02.08.2006

@<TRIPOS>MOLECULE
ASD03092385
  56   59    0    0    0
SMALL
NO_CHARGES


@<TRIPOS>ATOM
   1 C1             0.3380     1.9867     0.1443 C.2     
   2 C2             0.5502     0.5256     0.2226 C.ar    
   3 C3             1.8453     0.0052     0.2342 C.ar    
   4 C4             2.0363    -1.3602     0.3074 C.ar    
   5 C5             0.9461    -2.2121     0.3687 C.ar    
   6 C6            -0.3393    -1.7016     0.3575 C.ar    
   7 C7            -0.5434    -0.3386     0.2909 C.ar    
   8 O8             1.2925     2.7374     0.0899 O.2     
   9 N9            -0.9138     2.4859     0.1277 N.am    
  10 C10           -1.1240     3.9337     0.0501 C.3     
  11 S11           -4.9831     4.7277    -0.6389 S.3     
  12 C12           -4.5795     4.5798     1.0156 C.2     
  13 N13           -3.3130     4.3230     1.1493 N.2     
  14 C14           -2.6022     4.2271     0.0467 C.2     
  15 C15           -3.3087     4.4139    -1.0878 C.2     
  16 C16           -2.5484     5.2849    -4.6610 C.ar    
  17 C17           -3.0704     5.3720    -3.3884 C.ar    
  18 C18           -2.7731     4.3635    -2.4622 C.ar    
  19 C19           -1.9527     3.3059    -2.8774 C.ar    
  20 C20           -1.4745     3.2994    -4.1696 C.ar    
  21 N21           -1.7794     4.2706    -5.0106 N.ar    
  22 C22           -2.8650     6.3594    -5.6691 C.3     
  23 N23           -5.4733     4.7146     2.0623 N.3     
  24 C24           -6.8266     5.0034     1.5656 C.3     
  25 C25           -7.7691     5.2037     2.7553 C.3     
  26 O26           -7.7341     4.0400     3.5860 O.3     
  27 C27           -6.4312     3.7298     4.0877 C.3     
  28 C28           -5.4752     3.5146     2.9115 C.3     
  29 C29           -6.4987     2.4550     4.9311 C.3     
  30 C30           -9.1947     5.4251     2.2460 C.3     
  31 Cl31           3.6459    -2.0103     0.3220 Cl      
  32 H32            2.6959     0.6689     0.1857 H       
  33 H33            1.1003    -3.2795     0.4251 H       
  34 H34           -1.1853    -2.3713     0.4052 H       
  35 H35           -1.5478     0.0585     0.2868 H       
  36 H36           -1.6755     1.8866     0.1671 H       
  37 H37           -0.6601     4.4149     0.9111 H       
  38 H38           -0.6753     4.3174    -0.8661 H       
  39 H39           -3.6985     6.2050    -3.1092 H       
  40 H40           -1.6989     2.5083    -2.1949 H       
  41 H41           -0.8412     2.4889    -4.4990 H       
  42 H42           -2.1138     7.1468    -5.6089 H       
  43 H43           -2.8617     5.9299    -6.6710 H       
  44 H44           -3.8485     6.7785    -5.4567 H       
  45 H45           -6.8065     5.9098     0.9605 H       
  46 H46           -7.1778     4.1682     0.9596 H       
  47 H47           -7.4487     6.0718     3.3314 H       
  48 H48           -6.0720     4.5551     4.7025 H       
  49 H49           -5.8048     2.6556     2.3270 H       
  50 H50           -4.4686     3.3342     3.2889 H       
  51 H51           -6.8563     1.6301     4.3147 H       
  52 H52           -5.5055     2.2191     5.3132 H       
  53 H53           -7.1825     2.6075     5.7661 H       
  54 H54           -9.5146     4.5556     1.6719 H       
  55 H55           -9.8652     5.5677     3.0935 H       
  56 H56           -9.2200     6.3099     1.6100 H       
@<TRIPOS>BOND
   1    1    2 1
   2    1    8 2
   3    1    9 am
   4    2    3 ar
   5    2    7 ar
   6    3    4 ar
   7    3   32 1
   8    4    5 ar
   9    4   31 1
  10    5    6 ar
  11    5   33 1
  12    6    7 ar
  13    6   34 1
  14    7   35 1
  15    9   10 1
  16    9   36 1
  17   10   14 1
  18   10   37 1
  19   10   38 1
  20   11   12 1
  21   11   15 1
  22   12   13 2
  23   12   23 1
  24   13   14 1
  25   14   15 2
  26   15   18 1
  27   16   17 ar
  28   16   21 ar
  29   16   22 1
  30   17   18 ar
  31   17   39 1
  32   18   19 ar
  33   19   20 ar
  34   19   40 1
  35   20   21 ar
  36   20   41 1
  37   22   42 1
  38   22   43 1
  39   22   44 1
  40   23   24 1
  41   23   28 1
  42   24   25 1
  43   24   45 1
  44   24   46 1
  45   25   26 1
  46   25   30 1
  47   25   47 1
  48   26   27 1
  49   27   28 1
  50   27   29 1
  51   27   48 1
  52   28   49 1
  53   28   50 1
  54   29   51 1
  55   29   52 1
  56   29   53 1
  57   30   54 1
  58   30   55 1
  59   30   56 1

#	End of record

