#	Name: ASD05380326
#	Creating user name:	WinNT
#	Creation time:	15. 06. 2019 20:59

#	Modifying user name:	WinNT
#	Modification time:	15. 06. 2019 20:59

#	Program:	/corina/corina34_cracker 3.40 0067  02.08.2006

@<TRIPOS>MOLECULE
ASD05380326
  57   61    0    0    0
SMALL
NO_CHARGES


@<TRIPOS>ATOM
   1 N1            -1.0921     1.9227    -0.7967 N.ar    
   2 C2            -0.6779     0.6706    -0.9909 C.ar    
   3 C3             0.6526     0.4443    -1.3413 C.ar    
   4 C4             1.4979     1.5425    -1.4744 C.ar    
   5 N5             1.0125     2.7624    -1.2647 N.ar    
   6 C6            -0.2574     2.9410    -0.9329 C.ar    
   7 N7             2.8329     1.3657    -1.8219 N.am    
   8 C8             3.5353     0.0752    -1.8903 C.3     
   9 C9             3.6875     2.3428    -2.1546 C.2     
  10 O10            4.9183     1.9086    -2.4475 O.3     
  11 C11            4.9655     0.4581    -2.3172 C.3     
  12 C12            5.9595     0.0549    -1.2587 C.ar    
  13 O13            3.3730     3.5159    -2.1876 O.2     
  14 N14           -0.7243     4.2270    -0.7236 N.3     
  15 C15           -2.1673     4.2244    -0.4423 C.3     
  16 C16           -0.4190     5.0919    -1.8725 C.3     
  17 C17           -0.8983     6.5151    -1.5746 C.3     
  18 O18           -2.2961     6.4887    -1.2731 O.3     
  19 C19           -2.6290     5.6563    -0.1588 C.3     
  20 C20           -1.6181    -0.4648    -0.8361 C.ar    
  21 C21           -2.3904    -0.6031     0.3207 C.ar    
  22 N22           -3.2169    -1.6287     0.4212 N.ar    
  23 C23           -3.3186    -2.5185    -0.5561 C.ar    
  24 N24           -2.6032    -2.4216    -1.6682 N.ar    
  25 C25           -1.7592    -1.4214    -1.8460 C.ar    
  26 C26           -2.2814     0.4030     1.4374 C.3     
  27 F27           -2.8583     1.6119     1.0338 F       
  28 F28           -2.9516    -0.0794     2.5667 F       
  29 F29           -0.9333     0.6104     1.7483 F       
  30 N30           -4.1950    -3.5774    -0.4115 N.pl3   
  31 C31            3.5473    -0.6035    -0.5191 C.3     
  32 C32            6.7612    -1.0618    -1.4376 C.ar    
  33 C33            7.6619    -1.3948    -0.4372 C.ar    
  34 C34            7.7300    -0.6080     0.6967 C.ar    
  35 N35            6.9512     0.4475     0.8332 N.ar    
  36 C36            6.0875     0.7972    -0.0997 C.ar    
  37 H37            1.0185    -0.5585    -1.5051 H       
  38 H38            3.0723    -0.5739    -2.6336 H       
  39 H39            5.2150    -0.0034    -3.2727 H       
  40 H40           -2.7056     3.8325    -1.3053 H       
  41 H41           -2.3675     3.5985     0.4273 H       
  42 H42            0.6569     5.0992    -2.0469 H       
  43 H43           -0.9294     4.7139    -2.7584 H       
  44 H44           -0.3493     6.9129    -0.7212 H       
  45 H45           -0.7258     7.1471    -2.4458 H       
  46 H46           -3.7082     5.6672    -0.0060 H       
  47 H47           -2.1303     6.0291     0.7358 H       
  48 H48           -1.1796    -1.3487    -2.7544 H       
  49 H49           -4.7248    -3.6617     0.3966 H       
  50 H50           -4.2802    -4.2364    -1.1182 H       
  51 H51            2.5307    -0.8838    -0.2435 H       
  52 H52            4.1716    -1.4961    -0.5610 H       
  53 H53            3.9483     0.0858     0.2240 H       
  54 H54            6.6858    -1.6586    -2.3346 H       
  55 H55            8.3019    -2.2584    -0.5428 H       
  56 H56            8.4289    -0.8606     1.4804 H       
  57 H57            5.4662     1.6682     0.0476 H       
@<TRIPOS>BOND
   1    1    2 ar
   2    1    6 ar
   3    2    3 ar
   4    2   20 1
   5    3    4 ar
   6    3   37 1
   7    4    5 ar
   8    4    7 1
   9    5    6 ar
  10    6   14 1
  11    7    8 1
  12    7    9 am
  13    8   31 1
  14    8   11 1
  15    8   38 1
  16    9   10 1
  17    9   13 2
  18   10   11 1
  19   11   12 1
  20   11   39 1
  21   12   32 ar
  22   12   36 ar
  23   14   15 1
  24   14   16 1
  25   15   19 1
  26   15   40 1
  27   15   41 1
  28   16   17 1
  29   16   42 1
  30   16   43 1
  31   17   18 1
  32   17   44 1
  33   17   45 1
  34   18   19 1
  35   19   46 1
  36   19   47 1
  37   20   21 ar
  38   20   25 ar
  39   21   22 ar
  40   21   26 1
  41   22   23 ar
  42   23   24 ar
  43   23   30 1
  44   24   25 ar
  45   25   48 1
  46   26   27 1
  47   26   28 1
  48   26   29 1
  49   30   49 1
  50   30   50 1
  51   31   51 1
  52   31   52 1
  53   31   53 1
  54   32   33 ar
  55   32   54 1
  56   33   34 ar
  57   33   55 1
  58   34   35 ar
  59   34   56 1
  60   35   36 ar
  61   36   57 1

#	End of record

