#	Name: ASD03331974
#	Creating user name:	WinNT
#	Creation time:	15. 06. 2019 20:40

#	Modifying user name:	WinNT
#	Modification time:	15. 06. 2019 20:40

#	Program:	/corina/corina34_cracker 3.40 0067  02.08.2006

@<TRIPOS>MOLECULE
ASD03331974
  68   70    0    0    0
SMALL
NO_CHARGES


@<TRIPOS>ATOM
   1 C1            -1.7553     0.6898     0.1914 C.2     
   2 N2            -1.7731    -0.6139     0.5778 N.pl3   
   3 C3            -0.4880    -0.9745     0.8613 C.2     
   4 N4             0.2892     0.0673     0.6771 N.2     
   5 C5            -0.4630     1.1121     0.2662 C.2     
   6 C6             0.0276     2.4661    -0.0456 C.2     
   7 O7            -0.7515     3.3266    -0.4085 O.2     
   8 N8             1.3397     2.7509     0.0714 N.am    
   9 C9             1.8275     4.0971    -0.2386 C.3     
  10 C10            2.0867     4.2120    -1.7421 C.3     
  11 C11            3.2193     3.2627    -2.1384 C.3     
  12 C12            3.1085     4.3527     0.5129 C.2     
  13 C13            0.8164     3.8383    -2.5087 C.3     
  14 C14            2.4836     5.6498    -2.0828 C.3     
  15 O15            3.6452     3.4508     1.1208 O.2     
  16 N16            3.6577     5.5834     0.5096 N.am    
  17 C17            4.9383     5.8159     1.1820 C.3     
  18 C18           -2.9696    -1.4539     0.6807 C.3     
  19 C19           -3.8114    -1.2856    -0.5880 C.3     
  20 C20           -4.7638    -0.1058    -0.4227 C.3     
  21 N21           -4.1582     0.9505     0.3906 N.3     
  22 C22           -2.9511     1.4931    -0.2503 C.3     
  23 C23           -5.1276     2.0168     0.6755 C.3     
  24 C24           -0.0451    -2.3142     1.3028 C.ar    
  25 C25           -0.9016    -3.1217     2.0525 C.ar    
  26 C26           -0.4868    -4.3705     2.4634 C.ar    
  27 C27            0.7832    -4.8268     2.1320 C.ar    
  28 C28            1.6410    -4.0240     1.3839 C.ar    
  29 C29            1.2289    -2.7762     0.9655 C.ar    
  30 F30            2.8752    -4.4702     1.0632 F       
  31 N31            1.2002    -6.0918     2.5500 N.am    
  32 S32            0.1157    -7.3415     2.6150 S.o2    
  33 C33           -0.4855    -7.5082     0.9117 C.3     
  34 O34            0.9011    -8.4684     2.9791 O.2     
  35 O35           -0.9186    -6.8642     3.4644 O.2     
  36 H36            1.9611     2.0646     0.3608 H       
  37 H37            1.0792     4.8320     0.0583 H       
  38 H38            2.9366     2.2384    -1.8956 H       
  39 H39            3.4040     3.3445    -3.2095 H       
  40 H40            4.1243     3.5289    -1.5923 H       
  41 H41            0.0095     4.5145    -2.2264 H       
  42 H42            1.0011     3.9201    -3.5798 H       
  43 H43            0.5336     2.8139    -2.2659 H       
  44 H44            3.4378     5.8848    -1.6113 H       
  45 H45            2.5770     5.7545    -3.1638 H       
  46 H46            1.7187     6.3344    -1.7162 H       
  47 H47            3.2050     6.3153     0.0619 H       
  48 H48            5.7046     5.1844     0.7325 H       
  49 H49            5.2208     6.8631     1.0734 H       
  50 H50            4.8423     5.5733     2.2403 H       
  51 H51           -2.6740    -2.4977     0.7861 H       
  52 H52           -3.5544    -1.1502     1.5490 H       
  53 H53           -3.1537    -1.1041    -1.4380 H       
  54 H54           -4.3872    -2.1942    -0.7641 H       
  55 H55           -5.0094     0.2961    -1.4057 H       
  56 H56           -5.6783    -0.4494     0.0608 H       
  57 H57           -2.8193     2.5345     0.0434 H       
  58 H58           -3.0534     1.4289    -1.3336 H       
  59 H59           -5.9762     1.6008     1.2185 H       
  60 H60           -4.6518     2.7883     1.2809 H       
  61 H61           -5.4742     2.4526    -0.2616 H       
  62 H62           -1.8888    -2.7682     2.3111 H       
  63 H63           -1.1497    -4.9950     3.0438 H       
  64 H64            1.8939    -2.1534     0.3854 H       
  65 H65            2.1252    -6.2387     2.8024 H       
  66 H66            0.3523    -7.7304     0.2508 H       
  67 H67           -1.2132    -8.3182     0.8608 H       
  68 H68           -0.9569    -6.5762     0.6000 H       
@<TRIPOS>BOND
   1    1    2 1
   2    1    5 2
   3    1   22 1
   4    2    3 1
   5    2   18 1
   6    3    4 2
   7    3   24 1
   8    4    5 1
   9    5    6 1
  10    6    7 2
  11    6    8 am
  12    8    9 1
  13    8   36 1
  14    9   10 1
  15    9   12 1
  16    9   37 1
  17   10   11 1
  18   10   13 1
  19   10   14 1
  20   11   38 1
  21   11   39 1
  22   11   40 1
  23   12   15 2
  24   12   16 am
  25   13   41 1
  26   13   42 1
  27   13   43 1
  28   14   44 1
  29   14   45 1
  30   14   46 1
  31   16   17 1
  32   16   47 1
  33   17   48 1
  34   17   49 1
  35   17   50 1
  36   18   19 1
  37   18   51 1
  38   18   52 1
  39   19   20 1
  40   19   53 1
  41   19   54 1
  42   20   21 1
  43   20   55 1
  44   20   56 1
  45   21   22 1
  46   21   23 1
  47   22   57 1
  48   22   58 1
  49   23   59 1
  50   23   60 1
  51   23   61 1
  52   24   25 ar
  53   24   29 ar
  54   25   26 ar
  55   25   62 1
  56   26   27 ar
  57   26   63 1
  58   27   28 ar
  59   27   31 1
  60   28   29 ar
  61   28   30 1
  62   29   64 1
  63   31   32 am
  64   31   65 1
  65   32   33 1
  66   32   34 2
  67   32   35 2
  68   33   66 1
  69   33   67 1
  70   33   68 1

#	End of record

