#	Name: ASD02030172
#	Creating user name:	WinNT
#	Creation time:	15. 06. 2019 20:14

#	Modifying user name:	WinNT
#	Modification time:	15. 06. 2019 20:14

#	Program:	/corina/corina34_cracker 3.40 0067  02.08.2006

@<TRIPOS>MOLECULE
ASD02030172
  54   57    0    0    0
SMALL
NO_CHARGES


@<TRIPOS>ATOM
   1 N1            -0.1254     1.7167    -0.3082 N.am    
   2 C2            -0.1929     0.2514    -0.3991 C.3     
   3 C3            -0.9940    -0.2774     0.7971 C.3     
   4 N4            -2.2468     0.4845     0.8970 N.am    
   5 C5            -2.1793     1.9498     0.9879 C.3     
   6 C6            -1.3779     2.4782    -0.2026 C.3     
   7 C7             1.0641     2.3504    -0.3158 C.2     
   8 C8             2.3194     1.5682    -0.2734 C.2     
   9 N9             2.4365     0.2340    -0.3598 N.2     
  10 N10            3.5436     2.0468    -0.1487 N.2     
  11 N11            4.3589     1.0487    -0.1539 N.pl3   
  12 N12            3.6932    -0.0456    -0.2812 N.2     
  13 O13            1.1056     3.5644    -0.3577 O.2     
  14 C14           -3.4363    -0.1492     0.9047 C.2     
  15 C15           -3.4871    -1.6296     0.8773 C.ar    
  16 O16           -4.4670     0.4937     0.9341 O.2     
  17 C17           -1.0632     3.9607     0.0077 C.3     
  18 C18           -2.1889     2.2992    -1.4876 C.3     
  19 C19            5.7534     1.1408    -0.0430 C.ar    
  20 C20            6.5299    -0.0099    -0.0613 C.ar    
  21 C21            7.9039     0.0833     0.0477 C.ar    
  22 C22            8.5065     1.3209     0.1750 C.ar    
  23 C23            7.7354     2.4703     0.1936 C.ar    
  24 C24            6.3608     2.3833     0.0797 C.ar    
  25 Cl25           8.4960     4.0226     0.3542 Cl      
  26 N26           -2.3981    -2.3309     1.1722 N.ar    
  27 C27           -2.4011    -3.6503     1.1600 C.ar    
  28 C28           -3.5551    -4.3570     0.8344 C.ar    
  29 C29           -4.7106    -3.6604     0.5210 C.ar    
  30 C30           -4.6764    -2.2722     0.5485 C.ar    
  31 Cl31          -6.1708    -4.5040     0.1089 Cl      
  32 O32           -1.2657    -4.3261     1.4680 O.3     
  33 C33           -0.1140    -3.5452     1.7932 C.3     
  34 H34           -0.6884    -0.0351    -1.3267 H       
  35 H35            0.8149    -0.1633    -0.3765 H       
  36 H36           -1.2190    -1.3335     0.6485 H       
  37 H37           -0.4142    -0.1494     1.7111 H       
  38 H38           -3.1871     2.3645     0.9653 H       
  39 H39           -1.6838     2.2363     1.9155 H       
  40 H40           -0.3060     4.0646     0.7848 H       
  41 H41           -0.6899     4.3884    -0.9228 H       
  42 H42           -1.9694     4.4851     0.3108 H       
  43 H43           -3.1246     2.8524    -1.4068 H       
  44 H44           -1.6157     2.6765    -2.3345 H       
  45 H45           -2.4041     1.2411    -1.6370 H       
  46 H46            6.0601    -0.9773    -0.1604 H       
  47 H47            8.5080    -0.8118     0.0338 H       
  48 H48            9.5808     1.3911     0.2604 H       
  49 H49            5.7592     3.2801     0.0942 H       
  50 H50           -3.5495    -5.4369     0.8258 H       
  51 H51           -5.5599    -1.6987     0.3098 H       
  52 H52           -0.3298    -2.9238     2.6623 H       
  53 H53            0.7221    -4.2073     2.0185 H       
  54 H54            0.1444    -2.9089     0.9467 H       
@<TRIPOS>BOND
   1    1    2 1
   2    1    7 am
   3    1    6 1
   4    2    3 1
   5    2   34 1
   6    2   35 1
   7    3    4 1
   8    3   36 1
   9    3   37 1
  10    4    5 1
  11    4   14 am
  12    5    6 1
  13    5   38 1
  14    5   39 1
  15    6   17 1
  16    6   18 1
  17    7    8 1
  18    7   13 2
  19    8    9 1
  20    8   10 2
  21    9   12 2
  22   10   11 1
  23   11   12 1
  24   11   19 1
  25   14   15 1
  26   14   16 2
  27   15   26 ar
  28   15   30 ar
  29   17   40 1
  30   17   41 1
  31   17   42 1
  32   18   43 1
  33   18   44 1
  34   18   45 1
  35   19   20 ar
  36   19   24 ar
  37   20   21 ar
  38   20   46 1
  39   21   22 ar
  40   21   47 1
  41   22   23 ar
  42   22   48 1
  43   23   24 ar
  44   23   25 1
  45   24   49 1
  46   26   27 ar
  47   27   28 ar
  48   27   32 1
  49   28   29 ar
  50   28   50 1
  51   29   30 ar
  52   29   31 1
  53   30   51 1
  54   32   33 1
  55   33   52 1
  56   33   53 1
  57   33   54 1

#	End of record

