#	Name: ASD03090483
#	Creating user name:	WinNT
#	Creation time:	15. 06. 2019 20:28

#	Modifying user name:	WinNT
#	Modification time:	15. 06. 2019 20:28

#	Program:	/corina/corina34_cracker 3.40 0067  02.08.2006

@<TRIPOS>MOLECULE
ASD03090483
  39   41    0    0    0
SMALL
NO_CHARGES


@<TRIPOS>ATOM
   1 C1            -0.0181     1.5035     0.0014 C.2     
   2 C2             0.0032    -0.0033    -0.0069 C.3     
   3 O3             1.0234     2.1248    -0.0132 O.2     
   4 N4            -1.1946     2.1607     0.0195 N.am    
   5 N5             4.2525    -1.4407    -2.2878 N.pl3   
   6 C6             5.4503    -1.8450    -1.7644 C.2     
   7 C7             5.3940    -1.8244    -0.4234 C.2     
   8 C8             4.0501    -1.3698    -0.0582 C.ar    
   9 C9             3.3972    -1.1478     1.1559 C.ar    
  10 C10            2.1025    -0.7115     1.1599 C.ar    
  11 C11            1.4308    -0.4854    -0.0339 C.ar    
  12 C12            2.0560    -0.6976    -1.2429 C.ar    
  13 C13            3.3739    -1.1426    -1.2705 C.ar    
  14 C14           -1.2153     3.5519     0.1325 C.ar    
  15 C15           -2.4241     4.2314     0.0364 C.ar    
  16 C16           -2.4332     5.6101     0.1499 C.ar    
  17 C17           -1.2229     6.2666     0.3572 C.ar    
  18 C18           -0.0567     5.5234     0.4425 C.ar    
  19 N19           -0.0848     4.2086     0.3352 N.ar    
  20 O20           -1.1858     7.6209     0.4740 O.3     
  21 C21            0.0947     8.2190     0.6853 C.3     
  22 C22           -0.0628     9.7372     0.7911 C.3     
  23 H23           -0.4900    -0.3786     0.8898 H       
  24 H24           -0.5206    -0.3693    -0.8899 H       
  25 H25           -2.0270     1.6670    -0.0461 H       
  26 H26            4.0533    -1.3706    -3.2346 H       
  27 H27            6.3132    -2.1376    -2.3443 H       
  28 H28            6.1886    -2.0922     0.2572 H       
  29 H29            3.9133    -1.3216     2.0886 H       
  30 H30            1.5978    -0.5403     2.0992 H       
  31 H31            1.5249    -0.5192    -2.1662 H       
  32 H32           -3.3445     3.6900    -0.1251 H       
  33 H33           -3.3574     6.1643     0.0790 H       
  34 H34            0.8858     6.0258     0.6029 H       
  35 H35            0.5279     7.8335     1.6082 H       
  36 H36            0.7503     7.9792    -0.1518 H       
  37 H37           -0.4961    10.1227    -0.1319 H       
  38 H38           -0.7185     9.9770     1.6281 H       
  39 H39            0.9139    10.1935     0.9522 H       
@<TRIPOS>BOND
   1    1    2 1
   2    1    3 2
   3    1    4 am
   4    2   11 1
   5    2   23 1
   6    2   24 1
   7    4   14 1
   8    4   25 1
   9    5    6 1
  10    5   13 1
  11    5   26 1
  12    6    7 2
  13    6   27 1
  14    7    8 1
  15    7   28 1
  16    8    9 ar
  17    8   13 ar
  18    9   10 ar
  19    9   29 1
  20   10   11 ar
  21   10   30 1
  22   11   12 ar
  23   12   13 ar
  24   12   31 1
  25   14   15 ar
  26   14   19 ar
  27   15   16 ar
  28   15   32 1
  29   16   17 ar
  30   16   33 1
  31   17   18 ar
  32   17   20 1
  33   18   19 ar
  34   18   34 1
  35   20   21 1
  36   21   22 1
  37   21   35 1
  38   21   36 1
  39   22   37 1
  40   22   38 1
  41   22   39 1

#	End of record

