#	Name: ASD02038131
#	Creating user name:	WinNT
#	Creation time:	15. 06. 2019 20:16

#	Modifying user name:	WinNT
#	Modification time:	15. 06. 2019 20:16

#	Program:	/corina/corina34_cracker 3.40 0067  02.08.2006

@<TRIPOS>MOLECULE
ASD02038131
  53   55    0    0    0
SMALL
NO_CHARGES


@<TRIPOS>ATOM
   1 C1            -0.8080     0.1201     0.4589 C.ar    
   2 C2             0.1432     0.5081     1.3860 C.ar    
   3 C3            -0.6005    -1.0049    -0.3198 C.ar    
   4 C4             0.5570    -1.7439    -0.1731 C.ar    
   5 C5             1.5134    -1.3567     0.7568 C.ar    
   6 C6             1.3029    -0.2266     1.5363 C.ar    
   7 N7             2.6855    -2.1025     0.9073 N.3     
   8 C8             6.7324    -3.3105     1.0098 C.3     
   9 C9             7.7108    -2.5476     1.9052 C.3     
  10 C10            8.9882    -3.3709     2.0821 C.3     
  11 O11            9.8537    -2.7138     3.0101 O.3     
  12 C12           11.0411    -3.3183     3.2814 C.ar    
  13 C13           11.9286    -2.7343     4.1733 C.ar    
  14 C14           13.1344    -3.3480     4.4496 C.ar    
  15 C15           13.4584    -4.5497     3.8346 C.ar    
  16 C16           12.5697    -5.1337     2.9420 C.ar    
  17 C17           11.3619    -4.5217     2.6706 C.ar    
  18 N18           14.6822    -5.1728     4.1142 N.am    
  19 C19            3.5528    -1.5180     1.9397 C.3     
  20 C20            4.7850    -2.4057     2.1296 C.3     
  21 N21            5.5002    -2.5264     0.8515 N.3     
  22 C22            4.6330    -3.1110    -0.1808 C.3     
  23 C23            3.4008    -2.2233    -0.3708 C.3     
  24 Cl24          -2.2676     1.0423     0.2773 Cl      
  25 C25           15.2268    -5.0677     5.3425 C.2     
  26 N26           16.4514    -5.5768     5.5826 N.am    
  27 O27           14.6133    -4.5135     6.2342 O.2     
  28 O28            8.0322    -1.2938     1.2998 O.3     
  29 H29           -0.0214     1.3866     1.9924 H       
  30 H30           -1.3445    -1.3055    -1.0426 H       
  31 H31            0.7181    -2.6222    -0.7805 H       
  32 H32            2.0451     0.0769     2.2598 H       
  33 H33            7.1866    -3.4747     0.0326 H       
  34 H34            6.4954    -4.2714     1.4665 H       
  35 H35            7.2526    -2.3741     2.8789 H       
  36 H36            8.7332    -4.3605     2.4612 H       
  37 H37            9.4932    -3.4690     1.1212 H       
  38 H38           11.6766    -1.7993     4.6515 H       
  39 H39           13.8255    -2.8930     5.1438 H       
  40 H40           12.8213    -6.0684     2.4629 H       
  41 H41           10.6705    -4.9759     1.9763 H       
  42 H42           15.1373    -5.6798     3.4237 H       
  43 H43            3.8669    -0.5214     1.6292 H       
  44 H44            3.0048    -1.4505     2.8795 H       
  45 H45            5.4438    -1.9588     2.8742 H       
  46 H46            4.4727    -3.3942     2.4663 H       
  47 H47            5.1810    -3.1784    -1.1207 H       
  48 H48            4.3189    -4.1075     0.1297 H       
  49 H49            2.7420    -2.6701    -1.1154 H       
  50 H50            3.7131    -1.2348    -0.7075 H       
  51 H51           16.9408    -6.0190     4.8713 H       
  52 H52           16.8433    -5.5012     6.4667 H       
  53 H53            8.4443    -1.3719     0.4284 H       
@<TRIPOS>BOND
   1    1    2 ar
   2    1    3 ar
   3    1   24 1
   4    2    6 ar
   5    2   29 1
   6    3    4 ar
   7    3   30 1
   8    4    5 ar
   9    4   31 1
  10    5    6 ar
  11    5    7 1
  12    6   32 1
  13    7   19 1
  14    7   23 1
  15    8    9 1
  16    8   21 1
  17    8   33 1
  18    8   34 1
  19    9   28 1
  20    9   10 1
  21    9   35 1
  22   10   11 1
  23   10   36 1
  24   10   37 1
  25   11   12 1
  26   12   13 ar
  27   12   17 ar
  28   13   14 ar
  29   13   38 1
  30   14   15 ar
  31   14   39 1
  32   15   16 ar
  33   15   18 1
  34   16   17 ar
  35   16   40 1
  36   17   41 1
  37   18   25 am
  38   18   42 1
  39   19   20 1
  40   19   43 1
  41   19   44 1
  42   20   21 1
  43   20   45 1
  44   20   46 1
  45   21   22 1
  46   22   23 1
  47   22   47 1
  48   22   48 1
  49   23   49 1
  50   23   50 1
  51   25   26 am
  52   25   27 2
  53   26   51 1
  54   26   52 1
  55   28   53 1

#	End of record

