#	Name: ASD05430238
#	Creating user name:	WinNT
#	Creation time:	15. 06. 2019 21:00

#	Modifying user name:	WinNT
#	Modification time:	15. 06. 2019 21:00

#	Program:	/corina/corina34_cracker 3.40 0067  02.08.2006

@<TRIPOS>MOLECULE
ASD05430238
  61   67    0    0    0
SMALL
NO_CHARGES


@<TRIPOS>ATOM
   1 C1             0.0788     1.1436     0.4707 C.ar    
   2 C2             0.0173    -0.0126    -0.3165 C.ar    
   3 C3             1.1374    -0.4555    -1.0043 C.ar    
   4 C4             2.3263     0.2359    -0.9221 C.ar    
   5 C5             2.4023     1.3911    -0.1354 C.ar    
   6 C6             1.2759     1.8320     0.5573 C.ar    
   7 C7             4.8682    -0.0305     0.1884 C.3     
   8 C8             4.8360     1.4743     0.0371 C.2     
   9 C9             3.6675     2.1376    -0.0396 C.2     
  10 C10            5.7518    -0.4027     1.3819 C.3     
  11 S11            7.4404     0.2660     1.3438 S.o2    
  12 N12            7.2620     1.7537     0.6504 N.am    
  13 C13            6.1228     2.1940    -0.0236 C.2     
  14 N14            6.3844     3.2834    -0.6763 N.2     
  15 N15           -1.1843    -0.7277    -0.4098 N.pl3   
  16 C16           -1.7970    -1.1447    -1.5631 C.2     
  17 C17           -2.9199    -1.7915    -1.1964 C.2     
  18 N18           -2.9955    -1.7729     0.1426 N.2     
  19 C19           -1.9588    -1.1437     0.6256 C.2     
  20 C20           -3.9191    -2.4258    -2.1292 C.3     
  21 C21            8.2220     2.8602     0.6062 C.3     
  22 O22            7.7424     3.6582    -0.4966 O.3     
  23 C23            8.1870     3.6485     1.8901 C.ar    
  24 C24            5.0777    -0.5403     2.7473 C.3     
  25 C25            5.5564    -1.7874     2.0012 C.3     
  26 C26            1.0485     3.0097     1.4848 C.3     
  27 C27           -0.2850     2.6251     2.1686 C.3     
  28 O28           -0.8954     1.7523     1.2030 O.3     
  29 C29            9.6338     2.3415     0.3256 C.3     
  30 C30            8.9463     4.7972     2.0064 C.ar    
  31 C31            8.9079     5.5160     3.1912 C.ar    
  32 C32            8.1020     5.0493     4.2209 C.ar    
  33 C33            7.3695     3.8899     4.0303 C.ar    
  34 N34            7.4280     3.2364     2.8867 N.ar    
  35 F35            8.0339     5.7172     5.3933 F       
  36 O36            7.8985     0.5433     2.6600 O.2     
  37 O37            8.2444    -0.4580     0.4226 O.2     
  38 H38            1.0772    -1.3488    -1.6083 H       
  39 H39            3.1950    -0.1118    -1.4614 H       
  40 H40            3.8567    -0.4008     0.3554 H       
  41 H41            5.2745    -0.4785    -0.7184 H       
  42 H42            3.6580     3.2175    -0.0308 H       
  43 H43           -1.4465    -0.9852    -2.5721 H       
  44 H44           -1.7550    -0.9754     1.6728 H       
  45 H45           -3.6374    -3.4626    -2.3129 H       
  46 H46           -4.9102    -2.3932    -1.6767 H       
  47 H47           -3.9324    -1.8803    -3.0728 H       
  48 H48            5.6466    -0.2284     3.6232 H       
  49 H49            4.0030    -0.3656     2.7979 H       
  50 H50            4.7967    -2.4331     1.5608 H       
  51 H51            6.4403    -2.2959     2.3862 H       
  52 H52            1.8524     3.0903     2.2165 H       
  53 H53            0.9436     3.9359     0.9199 H       
  54 H54           -0.1013     2.0970     3.1043 H       
  55 H55           -0.9019     3.5079     2.3365 H       
  56 H56            9.6472     1.8254    -0.6343 H       
  57 H57           10.3299     3.1798     0.2972 H       
  58 H58            9.9301     1.6498     1.1142 H       
  59 H59            9.5625     5.1307     1.1845 H       
  60 H60            9.4911     6.4172     3.3105 H       
  61 H61            6.7401     3.5190     4.8257 H       
@<TRIPOS>BOND
   1    1    2 ar
   2    1    6 ar
   3    1   28 1
   4    2    3 ar
   5    2   15 1
   6    3    4 ar
   7    3   38 1
   8    4    5 ar
   9    4   39 1
  10    5    6 ar
  11    5    9 1
  12    6   26 1
  13    7    8 1
  14    7   10 1
  15    7   40 1
  16    7   41 1
  17    8    9 2
  18    8   13 1
  19    9   42 1
  20   10   11 1
  21   10   24 1
  22   10   25 1
  23   11   12 am
  24   11   36 2
  25   11   37 2
  26   12   13 1
  27   12   21 1
  28   13   14 2
  29   14   22 1
  30   15   16 1
  31   15   19 1
  32   16   17 2
  33   16   43 1
  34   17   18 1
  35   17   20 1
  36   18   19 2
  37   19   44 1
  38   20   45 1
  39   20   46 1
  40   20   47 1
  41   21   22 1
  42   21   23 1
  43   21   29 1
  44   23   30 ar
  45   23   34 ar
  46   24   25 1
  47   24   48 1
  48   24   49 1
  49   25   50 1
  50   25   51 1
  51   26   27 1
  52   26   52 1
  53   26   53 1
  54   27   28 1
  55   27   54 1
  56   27   55 1
  57   29   56 1
  58   29   57 1
  59   29   58 1
  60   30   31 ar
  61   30   59 1
  62   31   32 ar
  63   31   60 1
  64   32   33 ar
  65   32   35 1
  66   33   34 ar
  67   33   61 1

#	End of record

