#	Name: ASD01148577
#	Creating user name:	WinNT
#	Creation time:	15. 06. 2019 19:02

#	Modifying user name:	WinNT
#	Modification time:	15. 06. 2019 19:02

#	Program:	/corina/corina34_cracker 3.40 0067  02.08.2006

@<TRIPOS>MOLECULE
ASD01148577
  49   52    0    0    0
SMALL
NO_CHARGES


@<TRIPOS>ATOM
   1 C1            -0.0169     1.4376    -0.0252 C.ar    
   2 C2             0.0193     0.0537    -0.0359 C.ar    
   3 C3            -1.1616    -0.6687    -0.0208 C.ar    
   4 C4            -2.3763    -0.0071     0.0050 C.ar    
   5 C5            -2.4112     1.3747     0.0152 C.ar    
   6 C6            -1.2326     2.0970     0.0064 C.ar    
   7 C7            -3.7350     2.0942     0.0423 C.3     
   8 O8            -4.7251     1.3265     0.7562 O.3     
   9 C9            -3.6502     3.3776     0.9025 C.3     
  10 C10           -4.1246     2.8962     2.2606 C.2     
  11 N11           -4.7069     1.7532     2.1040 N.2     
  12 C12           -3.9507     3.6086     3.5380 C.ar    
  13 C13           -4.4589     3.0282     4.7785 C.ar    
  14 C14           -3.2977     4.8331     3.5716 C.ar    
  15 C15           -3.1195     5.5235     4.7571 C.ar    
  16 C16           -3.5866     5.0216     5.9646 C.ar    
  17 C17           -4.2773     3.7343     5.9912 C.ar    
  18 C18           -3.3821     5.7793     7.2114 C.2     
  19 O19           -3.8837     5.3904     8.2482 O.2     
  20 N20           -2.6390     6.9036     7.2025 N.am    
  21 C21           -4.7646     3.1894     7.1857 C.ar    
  22 C22           -5.1187     1.7927     4.7925 C.ar    
  23 C23           -4.2096     2.4154    -1.3764 C.3     
  24 F24           -4.3426     1.2278    -2.1037 F       
  25 F25           -5.4459     3.0676    -1.3181 F       
  26 F26           -3.2741     3.2446    -2.0045 F       
  27 Cl27          -1.1182    -2.4041    -0.0347 Cl      
  28 Cl28           1.5442    -0.7752    -0.0688 Cl      
  29 Cl29           1.4629     2.3450    -0.0442 Cl      
  30 C30           -2.4519     7.5968     8.3431 C.2     
  31 O31           -1.7098     8.7197     8.3342 O.3     
  32 C32           -1.5508     9.4148     9.5991 C.3     
  33 O33           -2.9531     7.2082     9.3791 O.2     
  34 C34           -5.5768     1.2873     5.9729 C.ar    
  35 C35           -5.4031     1.9849     7.1652 C.ar    
  36 H36           -3.2976    -0.5705     0.0168 H       
  37 H37           -1.2610     3.1765     0.0147 H       
  38 H38           -2.6236     3.7396     0.9573 H       
  39 H39           -4.3135     4.1495     0.5123 H       
  40 H40           -2.9203     5.2559     2.6523 H       
  41 H41           -2.6057     6.4733     4.7432 H       
  42 H42           -2.2388     7.2139     6.3752 H       
  43 H43           -4.6352     3.7200     8.1174 H       
  44 H44           -5.2640     1.2439     3.8737 H       
  45 H45           -1.0713     8.7525    10.3199 H       
  46 H46           -0.9324    10.3003     9.4518 H       
  47 H47           -2.5294     9.7135     9.9750 H       
  48 H48           -6.0857     0.3348     5.9826 H       
  49 H49           -5.7785     1.5656     8.0870 H       
@<TRIPOS>BOND
   1    1    2 ar
   2    1   29 1
   3    1    6 ar
   4    2    3 ar
   5    2   28 1
   6    3    4 ar
   7    3   27 1
   8    4    5 ar
   9    4   36 1
  10    5    6 ar
  11    5    7 1
  12    6   37 1
  13    7    8 1
  14    7    9 1
  15    7   23 1
  16    8   11 1
  17    9   10 1
  18    9   38 1
  19    9   39 1
  20   10   11 2
  21   10   12 1
  22   12   13 ar
  23   12   14 ar
  24   13   22 ar
  25   13   17 ar
  26   14   15 ar
  27   14   40 1
  28   15   16 ar
  29   15   41 1
  30   16   17 ar
  31   16   18 1
  32   17   21 ar
  33   18   19 2
  34   18   20 am
  35   20   30 am
  36   20   42 1
  37   21   35 ar
  38   21   43 1
  39   22   34 ar
  40   22   44 1
  41   23   24 1
  42   23   25 1
  43   23   26 1
  44   30   31 1
  45   30   33 2
  46   31   32 1
  47   32   45 1
  48   32   46 1
  49   32   47 1
  50   34   35 ar
  51   34   48 1
  52   35   49 1

#	End of record

