#	Name: ASD01028669
#	Creating user name:	WinNT
#	Creation time:	15. 06. 2019 18:57

#	Modifying user name:	WinNT
#	Modification time:	15. 06. 2019 18:57

#	Program:	/corina/corina34_cracker 3.40 0067  02.08.2006

@<TRIPOS>MOLECULE
ASD01028669
  45   45    0    0    0
SMALL
NO_CHARGES


@<TRIPOS>ATOM
   1 S1            -0.0209     1.6918     0.0113 S.3     
   2 N2             0.0021    -0.0041     0.0020 N.2     
   3 C3             1.2501    -0.3707    -0.0119 C.2     
   4 C4             2.1944     0.6330    -0.0155 C.2     
   5 C5             1.6885     1.8861    -0.0039 C.2     
   6 Sn6            2.7883     3.7335    -0.0056 Du      
   7 C7             1.4132     5.3861     0.0162 C.3     
   8 C8             4.0430     3.8222     1.7381 C.3     
   9 C9             4.0084     3.8396    -1.7726 C.3     
  10 C10            1.6448    -1.8251    -0.0230 C.3     
  11 O11            3.0697    -1.9318    -0.0367 O.3     
  12 Si12           3.6199    -3.4671    -0.0496 Si      
  13 C13            3.0167    -4.3558     1.4726 C.3     
  14 C14            2.9886    -4.3402    -1.5695 C.3     
  15 C15            5.4828    -3.4592    -0.0668 C.3     
  16 C16            6.0013    -2.7421     1.1814 C.3     
  17 C17            5.9989    -4.8994    -0.0789 C.3     
  18 C18            5.9782    -2.7293    -1.3169 C.3     
  19 H19            3.2558     0.4337    -0.0264 H       
  20 H20            0.7946     5.3323     0.9121 H       
  21 H21            1.9708     6.3227     0.0154 H       
  22 H22            0.7771     5.3412    -0.8678 H       
  23 H23            4.7401     2.9843     1.7271 H       
  24 H24            4.6006     4.7588     1.7373 H       
  25 H25            3.4244     3.7683     2.6340 H       
  26 H26            3.3723     3.7947    -2.6566 H       
  27 H27            4.5660     4.7762    -1.7735 H       
  28 H28            4.7055     3.0018    -1.7837 H       
  29 H29            1.2523    -2.3149     0.8682 H       
  30 H30            1.2359    -2.3058    -0.9117 H       
  31 H31            1.9268    -4.3605     1.4827 H       
  32 H32            3.3844    -5.3819     1.4640 H       
  33 H33            3.3861    -3.8450     2.3619 H       
  34 H34            3.3415    -3.8203    -2.4601 H       
  35 H35            3.3563    -5.3663    -1.5781 H       
  36 H36            1.8987    -4.3449    -1.5594 H       
  37 H37            5.6484    -3.2621     2.0720 H       
  38 H38            7.0912    -2.7375     1.1714 H       
  39 H39            5.6336    -1.7161     1.1900 H       
  40 H40            5.6295    -5.4103    -0.9682 H       
  41 H41            7.0888    -4.8948    -0.0890 H       
  42 H42            5.6460    -5.4194     0.8117 H       
  43 H43            5.6105    -1.7033    -1.3083 H       
  44 H44            7.0681    -2.7247    -1.3270 H       
  45 H45            5.6088    -3.2402    -2.2062 H       
@<TRIPOS>BOND
   1    1    2 1
   2    1    5 1
   3    2    3 2
   4    3    4 1
   5    3   10 1
   6    4    5 2
   7    4   19 1
   8    5    6 1
   9    6    7 1
  10    6    8 1
  11    6    9 1
  12    7   20 1
  13    7   21 1
  14    7   22 1
  15    8   23 1
  16    8   24 1
  17    8   25 1
  18    9   26 1
  19    9   27 1
  20    9   28 1
  21   10   11 1
  22   10   29 1
  23   10   30 1
  24   11   12 1
  25   12   13 1
  26   12   14 1
  27   12   15 1
  28   13   31 1
  29   13   32 1
  30   13   33 1
  31   14   34 1
  32   14   35 1
  33   14   36 1
  34   15   16 1
  35   15   18 1
  36   15   17 1
  37   16   37 1
  38   16   38 1
  39   16   39 1
  40   17   40 1
  41   17   41 1
  42   17   42 1
  43   18   43 1
  44   18   44 1
  45   18   45 1

#	End of record

