#	Name: ASD00431129
#	Creating user name:	WinNT
#	Creation time:	15. 06. 2019 18:35

#	Modifying user name:	WinNT
#	Modification time:	15. 06. 2019 18:35

#	Program:	/corina/corina34_cracker 3.40 0067  02.08.2006

@<TRIPOS>MOLECULE
ASD00431129
  52   54    0    0    0
SMALL
NO_CHARGES


@<TRIPOS>ATOM
   1 C1             1.5330     1.8630     2.3869 C.2     
   2 C2             1.5665     0.3698     2.1857 C.3     
   3 O3             2.4761     2.4270     2.9002 O.2     
   4 N4             0.4574     2.5722     1.9915 N.am    
   5 C5             0.4248     4.0238     2.1871 C.3     
   6 C6             1.1266     4.7123     1.0148 C.3     
   7 O7            -2.0289     4.0520     1.5091 O.3     
   8 N8            -3.0642     4.6094     1.7911 N.2     
   9 C9            -2.8906     5.4836     2.7515 C.2     
  10 C10           -1.5098     5.4280     3.0916 C.2     
  11 C11           -1.0069     4.4889     2.2588 C.2     
  12 C12           -3.9246     6.3555     3.3612 C.ar    
  13 C13           -5.2436     6.2913     2.9150 C.ar    
  14 C14           -6.2025     7.1027     3.4833 C.ar    
  15 C15           -5.8552     7.9834     4.4996 C.ar    
  16 C16           -4.5416     8.0497     4.9459 C.ar    
  17 C17           -3.5800     7.2362     4.3853 C.ar    
  18 O18           -6.8018     8.7815     5.0578 O.3     
  19 C19           -6.8328    10.0895     4.6880 C.ar    
  20 C20           -5.9520    10.5591     3.7246 C.ar    
  21 C21           -5.9835    11.8878     3.3490 C.ar    
  22 C22           -6.8958    12.7528     3.9351 C.ar    
  23 C23           -7.7766    12.2834     4.8984 C.ar    
  24 C24           -7.7491    10.9534     5.2700 C.ar    
  25 O25           -6.9265    14.0610     3.5656 O.3     
  26 C26           -7.8068    14.9201     4.2930 C.3     
  27 C27           -7.2963    16.3602     4.2119 C.3     
  28 C28           -9.2103    14.8418     3.6890 C.3     
  29 H29            2.5105    -0.0261     2.5601 H       
  30 H30            0.7396    -0.0885     2.7280 H       
  31 H31            1.4738     0.1442     1.1233 H       
  32 H32           -0.2952     2.1217     1.5773 H       
  33 H33            0.9359     4.2768     3.1160 H       
  34 H34            0.6155     4.4593     0.0860 H       
  35 H35            1.1024     5.7922     1.1604 H       
  36 H36            2.1621     4.3758     0.9630 H       
  37 H37           -0.9853     6.0026     3.8406 H       
  38 H38           -5.5141     5.6070     2.1245 H       
  39 H39           -7.2245     7.0537     3.1377 H       
  40 H40           -4.2743     8.7356     5.7360 H       
  41 H41           -2.5596     7.2846     4.7360 H       
  42 H42           -5.2413     9.8857     3.2685 H       
  43 H43           -5.2975    12.2535     2.5992 H       
  44 H44           -8.4867    12.9570     5.3549 H       
  45 H45           -8.4378    10.5870     6.0168 H       
  46 H46           -7.8420    14.6053     5.3360 H       
  47 H47           -7.2611    16.6750     3.1689 H       
  48 H48           -7.9677    17.0155     4.7667 H       
  49 H49           -6.2964    16.4160     4.6422 H       
  50 H50           -9.5740    13.8159     3.7467 H       
  51 H51           -9.8817    15.4971     4.2438 H       
  52 H52           -9.1751    15.1566     2.6460 H       
@<TRIPOS>BOND
   1    1    2 1
   2    1    3 2
   3    1    4 am
   4    2   29 1
   5    2   30 1
   6    2   31 1
   7    4    5 1
   8    4   32 1
   9    5    6 1
  10    5   11 1
  11    5   33 1
  12    6   34 1
  13    6   35 1
  14    6   36 1
  15    7    8 1
  16    7   11 1
  17    8    9 2
  18    9   10 1
  19    9   12 1
  20   10   11 2
  21   10   37 1
  22   12   13 ar
  23   12   17 ar
  24   13   14 ar
  25   13   38 1
  26   14   15 ar
  27   14   39 1
  28   15   16 ar
  29   15   18 1
  30   16   17 ar
  31   16   40 1
  32   17   41 1
  33   18   19 1
  34   19   20 ar
  35   19   24 ar
  36   20   21 ar
  37   20   42 1
  38   21   22 ar
  39   21   43 1
  40   22   23 ar
  41   22   25 1
  42   23   24 ar
  43   23   44 1
  44   24   45 1
  45   25   26 1
  46   26   27 1
  47   26   28 1
  48   26   46 1
  49   27   47 1
  50   27   48 1
  51   27   49 1
  52   28   50 1
  53   28   51 1
  54   28   52 1

#	End of record

