#	Name: ASD01915320
#	Creating user name:	WinNT
#	Creation time:	15. 06. 2019 20:05

#	Modifying user name:	WinNT
#	Modification time:	15. 06. 2019 20:05

#	Program:	/corina/corina34_cracker 3.40 0067  02.08.2006

@<TRIPOS>MOLECULE
ASD01915320
  41   44    0    0    0
SMALL
NO_CHARGES


@<TRIPOS>ATOM
   1 N1             0.1019     1.3132     0.2293 N.2     
   2 N2             0.1613    -0.0770     0.0376 N.pl3   
   3 N3             1.3642    -0.3540    -0.3361 N.2     
   4 N4             2.0555     0.7286    -0.3946 N.2     
   5 C5             1.3007     1.7680    -0.0512 C.2     
   6 C6             1.7419     3.2079     0.0057 C.3     
   7 C7            -0.8877    -0.9902     0.2186 C.ar    
   8 C8            -0.6790    -2.3431    -0.0105 C.ar    
   9 C9            -1.7151    -3.2408     0.1688 C.ar    
  10 C10           -2.9588    -2.7909     0.5758 C.ar    
  11 C11           -3.1687    -1.4433     0.8040 C.ar    
  12 C12           -2.1354    -0.5432     0.6329 C.ar    
  13 Cl13          -1.4558    -4.9333    -0.1173 Cl      
  14 N14            2.7278     3.3787     1.0816 N.am    
  15 C15            3.4033     4.6760     1.2213 C.3     
  16 C16            4.0346     5.0505    -0.1234 C.3     
  17 C17            2.9613     5.0149    -1.2138 C.3     
  18 C18            2.3918     3.5988    -1.3253 C.3     
  19 C19            3.0069     2.3649     1.9246 C.2     
  20 O20            2.3563     1.3376     1.8774 O.2     
  21 C21            4.0948     2.4997     2.8989 C.2     
  22 O22            4.9731     3.5213     2.9702 O.3     
  23 C23            5.8228     3.3071     3.9830 C.2     
  24 C24            5.5013     2.1385     4.5805 C.2     
  25 C25            4.3925     1.6162     3.8965 C.2     
  26 H26            0.8796     3.8470     0.1954 H       
  27 H27            0.2915    -2.6941    -0.3288 H       
  28 H28           -3.7671    -3.4935     0.7150 H       
  29 H29           -4.1405    -1.0950     1.1212 H       
  30 H30           -2.3002     0.5091     0.8117 H       
  31 H31            2.6776     5.4368     1.5088 H       
  32 H32            4.1804     4.6033     1.9821 H       
  33 H33            4.4562     6.0537    -0.0605 H       
  34 H34            4.8234     4.3384    -0.3659 H       
  35 H35            2.1608     5.7092    -0.9582 H       
  36 H36            3.4027     5.3049    -2.1673 H       
  37 H37            3.1960     2.9004    -1.5565 H       
  38 H38            1.6441     3.5688    -2.1179 H       
  39 H39            6.6318     3.9607     4.2742 H       
  40 H40            6.0013     1.6921     5.4273 H       
  41 H41            3.8783     0.6916     4.1133 H       
@<TRIPOS>BOND
   1    1    2 1
   2    1    5 2
   3    2    3 1
   4    2    7 1
   5    3    4 2
   6    4    5 1
   7    5    6 1
   8    6   14 1
   9    6   18 1
  10    6   26 1
  11    7    8 ar
  12    7   12 ar
  13    8    9 ar
  14    8   27 1
  15    9   10 ar
  16    9   13 1
  17   10   11 ar
  18   10   28 1
  19   11   12 ar
  20   11   29 1
  21   12   30 1
  22   14   15 1
  23   14   19 am
  24   15   16 1
  25   15   31 1
  26   15   32 1
  27   16   17 1
  28   16   33 1
  29   16   34 1
  30   17   18 1
  31   17   35 1
  32   17   36 1
  33   18   37 1
  34   18   38 1
  35   19   20 2
  36   19   21 1
  37   21   22 1
  38   21   25 2
  39   22   23 1
  40   23   24 2
  41   23   39 1
  42   24   25 1
  43   24   40 1
  44   25   41 1

#	End of record

