#	Name: ASD01916920
#	Creating user name:	WinNT
#	Creation time:	15. 06. 2019 20:08

#	Modifying user name:	WinNT
#	Modification time:	15. 06. 2019 20:08

#	Program:	/corina/corina34_cracker 3.40 0067  02.08.2006

@<TRIPOS>MOLECULE
ASD01916920
  59   63    0    0    0
SMALL
NO_CHARGES


@<TRIPOS>ATOM
   1 C1            -0.0153     1.3848     0.1434 C.ar    
   2 C2             0.0042     0.0274     0.4083 C.ar    
   3 C3             1.2086    -0.6355     0.5608 C.ar    
   4 C4             2.3983     0.0553     0.4496 C.ar    
   5 C5             2.3846     1.4227     0.1828 C.ar    
   6 C6             1.1685     2.0853     0.0297 C.ar    
   7 C7             3.6607     2.1710     0.0627 C.2     
   8 N8             4.8842     1.6459     0.1892 N.2     
   9 N9             3.7717     3.4571    -0.1911 N.2     
  10 N10            5.1446     3.7508    -0.2190 N.pl3   
  11 C11            5.7900     2.5863     0.0238 C.2     
  12 C12            7.2569     2.4025     0.0915 C.ar    
  13 C13            5.7573     5.0584    -0.4664 C.3     
  14 C14            5.8914     5.8048     0.8359 C.2     
  15 O15            5.5124     5.2947     1.8690 O.2     
  16 N16            6.4323     7.0391     0.8526 N.am    
  17 C17            6.5725     7.7849     2.1125 C.3     
  18 C18            8.0195     8.2755     2.2294 C.3     
  19 N19            8.3775     9.0275     1.0193 N.3     
  20 C20            8.3323     8.1709    -0.1732 C.3     
  21 C21            6.9037     7.6735    -0.3877 C.3     
  22 C22            9.6210     9.6245     1.1552 C.ar    
  23 C23           10.1549    10.3884     0.1207 C.ar    
  24 N24           10.3204     9.4808     2.2791 N.ar    
  25 C25           11.4048    10.9658     0.3061 C.ar    
  26 N26           12.0428    10.7702     1.4566 N.ar    
  27 C27           11.5027    10.0452     2.4154 C.ar    
  28 C28            7.8118     1.1326    -0.0682 C.ar    
  29 C29            9.1802     0.9679    -0.0046 C.ar    
  30 C30           10.0016     2.0588     0.2171 C.ar    
  31 C31            9.4574     3.3207     0.3763 C.ar    
  32 C32            8.0908     3.4993     0.3095 C.ar    
  33 O33           11.9664    11.7176    -0.6720 O.3     
  34 C34           13.2539    12.2760    -0.4026 C.3     
  35 H35           -0.9584     1.8966     0.0208 H       
  36 H36           -0.9244    -0.5169     0.4968 H       
  37 H37            1.2181    -1.6955     0.7676 H       
  38 H38            3.3381    -0.4631     0.5696 H       
  39 H39            1.1522     3.1451    -0.1775 H       
  40 H40            6.7437     4.9196    -0.9088 H       
  41 H41            5.1297     5.6302    -1.1499 H       
  42 H42            5.8954     8.6391     2.1096 H       
  43 H43            6.3384     7.1314     2.9529 H       
  44 H44            8.1148     8.9226     3.1013 H       
  45 H45            8.6861     7.4198     2.3364 H       
  46 H46            8.6546     8.7421    -1.0438 H       
  47 H47            8.9946     7.3166    -0.0328 H       
  48 H48            6.8868     6.9482    -1.2012 H       
  49 H49            6.2555     8.5155    -0.6306 H       
  50 H50            9.6116    10.5281    -0.8021 H       
  51 H51           12.0471     9.9061     3.3377 H       
  52 H52            7.1715     0.2802    -0.2410 H       
  53 H53            9.6110    -0.0148    -0.1277 H       
  54 H54           11.0721     1.9247     0.2665 H       
  55 H55           10.1038     4.1684     0.5491 H       
  56 H56            7.6671     4.4849     0.4339 H       
  57 H57           13.9643    11.4730    -0.2060 H       
  58 H58           13.5873    12.8531    -1.2650 H       
  59 H59           13.1920    12.9279     0.4689 H       
@<TRIPOS>BOND
   1    1    2 ar
   2    1    6 ar
   3    1   35 1
   4    2    3 ar
   5    2   36 1
   6    3    4 ar
   7    3   37 1
   8    4    5 ar
   9    4   38 1
  10    5    6 ar
  11    5    7 1
  12    6   39 1
  13    7    8 1
  14    7    9 2
  15    8   11 2
  16    9   10 1
  17   10   11 1
  18   10   13 1
  19   11   12 1
  20   12   28 ar
  21   12   32 ar
  22   13   14 1
  23   13   40 1
  24   13   41 1
  25   14   15 2
  26   14   16 am
  27   16   17 1
  28   16   21 1
  29   17   18 1
  30   17   42 1
  31   17   43 1
  32   18   19 1
  33   18   44 1
  34   18   45 1
  35   19   20 1
  36   19   22 1
  37   20   21 1
  38   20   46 1
  39   20   47 1
  40   21   48 1
  41   21   49 1
  42   22   23 ar
  43   22   24 ar
  44   23   25 ar
  45   23   50 1
  46   24   27 ar
  47   25   26 ar
  48   25   33 1
  49   26   27 ar
  50   27   51 1
  51   28   29 ar
  52   28   52 1
  53   29   30 ar
  54   29   53 1
  55   30   31 ar
  56   30   54 1
  57   31   32 ar
  58   31   55 1
  59   32   56 1
  60   33   34 1
  61   34   57 1
  62   34   58 1
  63   34   59 1

#	End of record

