#	Name: ASD04010011
#	Creating user name:	WinNT
#	Creation time:	15. 06. 2019 20:48

#	Modifying user name:	WinNT
#	Modification time:	15. 06. 2019 20:48

#	Program:	/corina/corina34_cracker 3.40 0067  02.08.2006

@<TRIPOS>MOLECULE
ASD04010011
  22   23    0    0    0
SMALL
NO_CHARGES


@<TRIPOS>ATOM
   1 C1            -0.0168     1.3913     0.0097 C.ar    
   2 C2             0.0021    -0.0041     0.0020 C.ar    
   3 C3            -1.2648    -0.7637     0.0095 C.2     
   4 C4            -2.3244    -0.5879     0.8586 C.2     
   5 C5            -3.2584    -1.5563     0.4386 C.2     
   6 C6             1.2282    -0.6806    -0.0133 C.ar    
   7 C7             2.4117     0.0411    -0.0207 C.ar    
   8 F8            -4.9533    -3.1599     0.8741 F       
   9 C9            -4.6206    -1.8101     1.0311 C.3     
  10 F10           -4.6041    -1.4891     2.3926 F       
  11 F11           -5.5691    -1.0169     0.3764 F       
  12 N12           -2.7143    -2.1892    -0.5620 N.2     
  13 O13           -1.6125    -1.7637    -0.8201 O.3     
  14 C14            1.1700     2.0959     0.0021 C.ar    
  15 Br15           1.1429     3.9866     0.0132 Br      
  16 C16            2.3806     1.4235    -0.0126 C.ar    
  17 Br17           4.0708    -0.8661    -0.0415 Br      
  18 O18            1.2576    -2.0384    -0.0204 O.3     
  19 H19           -0.9590     1.9192     0.0170 H       
  20 H20           -2.4215     0.1259     1.6632 H       
  21 H21            3.3051     1.9817    -0.0184 H       
  22 H22            1.2576    -2.4272    -0.9059 H       
@<TRIPOS>BOND
   1    1    2 ar
   2    1   14 ar
   3    1   19 1
   4    2    6 ar
   5    2    3 1
   6    3    4 2
   7    3   13 1
   8    4   20 1
   9    4    5 1
  10    5    9 1
  11    5   12 2
  12    6   18 1
  13    6    7 ar
  14    7   17 1
  15    7   16 ar
  16    8    9 1
  17    9   11 1
  18    9   10 1
  19   12   13 1
  20   14   16 ar
  21   14   15 1
  22   16   21 1
  23   18   22 1

#	End of record

