#	Name: ASD00111015
#	Creating user name:	WinNT
#	Creation time:	15. 06. 2019 18:30

#	Modifying user name:	WinNT
#	Modification time:	15. 06. 2019 18:30

#	Program:	/corina/corina34_cracker 3.40 0067  02.08.2006

@<TRIPOS>MOLECULE
ASD00111015
  38   40    0    0    0
SMALL
NO_CHARGES


@<TRIPOS>ATOM
   1 C1            -0.0169     1.3958     0.0097 C.ar    
   2 C2             0.0021    -0.0041     0.0020 C.ar    
   3 C3            -1.1907    -0.7092     0.0096 C.ar    
   4 C4            -2.3930    -0.0253     0.0246 C.ar    
   5 C5            -2.4156     1.3499     0.0324 C.ar    
   6 C6            -1.2385     2.0708     0.0308 C.ar    
   7 C7            -3.6950    -0.8003     0.0312 C.3     
   8 C8            -4.3579    -0.6161     1.3997 C.3     
   9 N9            -5.1406     0.6084     1.4354 N.3     
  10 C10           -4.3979     1.8580     1.4156 C.3     
  11 C11           -3.7423     2.0815     0.0487 C.3     
  12 C12           -3.5091     3.5773    -0.1731 C.3     
  13 C13            1.2510     2.1554     0.0017 C.2     
  14 S14            1.6371     3.4755    -1.0946 S.3     
  15 C15            3.2181     3.6728    -0.3502 C.2     
  16 C16            3.3683     2.7824     0.6342 C.2     
  17 C17            2.2882     1.9476     0.8372 C.2     
  18 O18            1.1867    -0.6693    -0.0133 O.3     
  19 C19            1.1289    -2.0971    -0.0204 C.3     
  20 H20           -1.1817    -1.7892     0.0034 H       
  21 H21           -1.2626     3.1506     0.0369 H       
  22 H22           -4.3530    -0.4196    -0.7499 H       
  23 H23           -3.4939    -1.8578    -0.1402 H       
  24 H24           -5.0116    -1.4653     1.5985 H       
  25 H25           -3.5865    -0.5710     2.1685 H       
  26 H26           -5.8556     0.6014     0.7235 H       
  27 H27           -5.0787     2.6830     1.6256 H       
  28 H28           -3.6250     1.8278     2.1835 H       
  29 H29           -4.3881     1.6894    -0.7370 H       
  30 H30           -2.8549     3.9628     0.6089 H       
  31 H31           -3.0428     3.7320    -1.1460 H       
  32 H32           -4.4636     4.1026    -0.1399 H       
  33 H33            3.9566     4.4037    -0.6448 H       
  34 H34            4.2671     2.7229     1.2300 H       
  35 H35            2.2777     1.1835     1.6004 H       
  36 H36            0.6097    -2.4442     0.8729 H       
  37 H37            0.5921    -2.4346    -0.9069 H       
  38 H38            2.1410    -2.5016    -0.0326 H       
@<TRIPOS>BOND
   1    1    2 ar
   2    1   13 1
   3    1    6 ar
   4    2    3 ar
   5    2   18 1
   6    3    4 ar
   7    3   20 1
   8    4    5 ar
   9    4    7 1
  10    5    6 ar
  11    5   11 1
  12    6   21 1
  13    7    8 1
  14    7   22 1
  15    7   23 1
  16    8    9 1
  17    8   24 1
  18    8   25 1
  19    9   10 1
  20    9   26 1
  21   10   11 1
  22   10   27 1
  23   10   28 1
  24   11   12 1
  25   11   29 1
  26   12   30 1
  27   12   31 1
  28   12   32 1
  29   13   14 1
  30   13   17 2
  31   14   15 1
  32   15   16 2
  33   15   33 1
  34   16   17 1
  35   16   34 1
  36   17   35 1
  37   18   19 1
  38   19   36 1
  39   19   37 1
  40   19   38 1

#	End of record

