#	Name: ASD03092931
#	Creating user name:	WinNT
#	Creation time:	15. 06. 2019 20:33

#	Modifying user name:	WinNT
#	Modification time:	15. 06. 2019 20:33

#	Program:	/corina/corina34_cracker 3.40 0067  02.08.2006

@<TRIPOS>MOLECULE
ASD03092931
  35   37    0    0    0
SMALL
NO_CHARGES


@<TRIPOS>ATOM
   1 C1            -0.1229     1.4900    -0.0374 C.3     
   2 N2             0.0541     0.0357    -0.0385 N.pl3   
   3 C3             0.0021    -0.7483    -1.1418 C.2     
   4 C4             0.2075    -2.0508    -0.7925 C.2     
   5 C5             0.2286    -3.2099    -1.6941 C.2     
   6 O6             0.4246    -4.3246    -1.2475 O.2     
   7 N7             0.0310    -3.0388    -3.0163 N.am    
   8 C8             0.1477    -4.1235    -3.8849 C.ar    
   9 C9            -0.2408    -5.4022    -3.4883 C.ar    
  10 C10           -0.1097    -6.4486    -4.3777 C.ar    
  11 N11            0.3762    -6.2505    -5.5885 N.ar    
  12 C12            0.7549    -5.0554    -6.0011 C.ar    
  13 C13            0.6507    -3.9562    -5.1746 C.ar    
  14 C14            1.3027    -4.8887    -7.3951 C.3     
  15 F15            1.2037    -6.1027    -8.0833 F       
  16 F16            0.5681    -3.9084    -8.0707 F       
  17 F17            2.6449    -4.5003    -7.3253 F       
  18 C18            0.4047    -2.0657     0.6688 C.ar    
  19 C19            0.6517    -3.0702     1.6010 C.ar    
  20 C20            0.7903    -2.7446     2.9347 C.ar    
  21 F21            1.0300    -3.7155     3.8431 F       
  22 C22            0.6848    -1.4223     3.3468 C.ar    
  23 C23            0.4401    -0.4201     2.4333 C.ar    
  24 C24            0.3034    -0.7283     1.0841 C.ar    
  25 H25            0.8437     1.9738    -0.1777 H       
  26 H26           -0.7930     1.7750    -0.8485 H       
  27 H27           -0.5512     1.8032     0.9147 H       
  28 H28           -0.1758    -0.3953    -2.1468 H       
  29 H29           -0.1925    -2.1611    -3.3637 H       
  30 H30           -0.6386    -5.5713    -2.4986 H       
  31 H31           -0.4081    -7.4427    -4.0791 H       
  32 H32            0.9580    -2.9802    -5.5201 H       
  33 H33            0.7340    -4.0987     1.2818 H       
  34 H34            0.7951    -1.1775     4.3929 H       
  35 H35            0.3595     0.6047     2.7643 H       
@<TRIPOS>BOND
   1    1    2 1
   2    1   25 1
   3    1   26 1
   4    1   27 1
   5    2   24 1
   6    2    3 1
   7    3    4 2
   8    3   28 1
   9    4    5 1
  10    4   18 1
  11    5    6 2
  12    5    7 am
  13    7    8 1
  14    7   29 1
  15    8   13 ar
  16    8    9 ar
  17    9   10 ar
  18    9   30 1
  19   10   11 ar
  20   10   31 1
  21   11   12 ar
  22   12   13 ar
  23   12   14 1
  24   13   32 1
  25   14   15 1
  26   14   16 1
  27   14   17 1
  28   18   24 ar
  29   18   19 ar
  30   19   20 ar
  31   19   33 1
  32   20   21 1
  33   20   22 ar
  34   22   23 ar
  35   22   34 1
  36   23   24 ar
  37   23   35 1

#	End of record

