#	Name: ASD04880059
#	Creating user name:	WinNT
#	Creation time:	15. 06. 2019 20:52

#	Modifying user name:	WinNT
#	Modification time:	15. 06. 2019 20:52

#	Program:	/corina/corina34_cracker 3.40 0067  02.08.2006

@<TRIPOS>MOLECULE
ASD04880059
  46   49    0    0    0
SMALL
NO_CHARGES


@<TRIPOS>ATOM
   1 N1            -0.0111     1.3347     0.0505 N.am    
   2 C2             0.0078    -0.0081     0.0130 C.2     
   3 C3             1.4590    -0.4322    -0.0620 C.3     
   4 C4             2.2241     0.8719    -0.0598 C.ar    
   5 C5             3.5701     1.1652    -0.1109 C.ar    
   6 C6             3.9939     2.4793    -0.0935 C.ar    
   7 C7             3.0527     3.5086    -0.0243 C.ar    
   8 C8             1.6932     3.2085     0.0273 C.ar    
   9 C9             1.2721     1.8827     0.0094 C.ar    
  10 O10           -0.9569    -0.7428     0.0356 O.2     
  11 C11            3.4992     4.9174    -0.0052 C.2     
  12 O12            2.6818     5.8152    -0.0715 O.2     
  13 N13            4.8124     5.2070     0.0856 N.am    
  14 N14            5.8351     4.2807     0.2792 N.2     
  15 C15            7.0130     4.8005     0.3322 C.2     
  16 C16            6.9117     6.2995     0.1622 C.3     
  17 C17            5.4008     6.5524    -0.0099 C.3     
  18 C18            8.2662     4.0494     0.5282 C.ar    
  19 C19            8.2347     2.6596     0.6737 C.ar    
  20 C20            9.4125     1.9605     0.8568 C.ar    
  21 C21           10.6280     2.6410     0.8965 C.ar    
  22 C22           10.6597     4.0201     0.7522 C.ar    
  23 C23            9.4888     4.7242     0.5633 C.ar    
  24 O24           11.7854     1.9515     1.0776 O.3     
  25 C25           12.9952     2.7114     1.1083 C.3     
  26 O26            9.3854     0.6082     0.9987 O.3     
  27 C27            8.1048    -0.0239     0.9483 C.3     
  28 H28           -0.8233     1.8629     0.0967 H       
  29 H29            1.7265    -1.0333     0.8070 H       
  30 H30            1.6484    -0.9844    -0.9824 H       
  31 H31            4.2944     0.3659    -0.1644 H       
  32 H32            5.0482     2.7099    -0.1328 H       
  33 H33            0.9661     4.0053     0.0812 H       
  34 H34            7.2899     6.8110     1.0472 H       
  35 H35            7.4536     6.6209    -0.7273 H       
  36 H36            5.1926     6.9938    -0.9845 H       
  37 H37            5.0271     7.1921     0.7897 H       
  38 H38            7.2920     2.1335     0.6435 H       
  39 H39           11.6039     4.5434     0.7836 H       
  40 H40            9.5168     5.7975     0.4468 H       
  41 H41           13.8415     2.0411     1.2585 H       
  42 H42           13.1151     3.2419     0.1637 H       
  43 H43           12.9518     3.4307     1.9261 H       
  44 H44            8.2255    -1.0998     1.0743 H       
  45 H45            7.4749     0.3671     1.7473 H       
  46 H46            7.6372     0.1789    -0.0152 H       
@<TRIPOS>BOND
   1    1    2 am
   2    1    9 1
   3    1   28 1
   4    2    3 1
   5    2   10 2
   6    3    4 1
   7    3   29 1
   8    3   30 1
   9    4    5 ar
  10    4    9 ar
  11    5    6 ar
  12    5   31 1
  13    6    7 ar
  14    6   32 1
  15    7    8 ar
  16    7   11 1
  17    8    9 ar
  18    8   33 1
  19   11   12 2
  20   11   13 am
  21   13   14 1
  22   13   17 1
  23   14   15 2
  24   15   16 1
  25   15   18 1
  26   16   17 1
  27   16   34 1
  28   16   35 1
  29   17   36 1
  30   17   37 1
  31   18   19 ar
  32   18   23 ar
  33   19   20 ar
  34   19   38 1
  35   20   21 ar
  36   20   26 1
  37   21   22 ar
  38   21   24 1
  39   22   23 ar
  40   22   39 1
  41   23   40 1
  42   24   25 1
  43   25   41 1
  44   25   42 1
  45   25   43 1
  46   26   27 1
  47   27   44 1
  48   27   45 1
  49   27   46 1

#	End of record

