#	Name: ASD07930831
#	Creating user name:	WinNT
#	Creation time:	15. 06. 2019 21:13

#	Modifying user name:	WinNT
#	Modification time:	15. 06. 2019 21:13

#	Program:	/corina/corina34_cracker 3.40 0067  02.08.2006

@<TRIPOS>MOLECULE
ASD07930831
  28   28    0    0    0
SMALL
NO_CHARGES


@<TRIPOS>ATOM
   1 C1            -0.0184     1.5028     0.0103 C.2     
   2 C2             0.0021    -0.0041     0.0020 C.3     
   3 O3            -1.3386    -0.4987     0.0122 O.3     
   4 C4            -1.4517    -2.4413     1.4454 C.3     
   5 C5            -1.4321    -1.9246     0.0054 C.3     
   6 C6            -2.6995    -2.3416    -0.6952 C.2     
   7 C7            -2.6390    -3.0953    -1.7650 C.2     
   8 C8             1.2431     2.2541     0.0023 C.ar    
   9 C9             1.2281     3.6564     0.0100 C.ar    
  10 C10            2.4191     4.3554     0.0023 C.ar    
  11 C11            3.6254     3.6739    -0.0134 C.ar    
  12 C12            3.6466     2.2853    -0.0210 C.ar    
  13 C13            2.4669     1.5742    -0.0073 C.ar    
  14 F14            4.7870     4.3637    -0.0217 F       
  15 F15            0.0522     4.3214     0.0244 F       
  16 Br16           5.3000     1.3679    -0.0425 Br      
  17 O17           -1.0769     2.0949     0.0185 O.2     
  18 H18            0.5123    -0.3556    -0.8948 H       
  19 H19            0.5293    -0.3651     0.8851 H       
  20 H20           -2.3110    -2.0233     1.9697 H       
  21 H21           -1.5230    -3.5289     1.4402 H       
  22 H22           -0.5349    -2.1397     1.9521 H       
  23 H23           -0.5727    -2.3426    -0.5189 H       
  24 H24           -3.6576    -2.0191    -0.3153 H       
  25 H25           -1.6808    -3.4178    -2.1449 H       
  26 H26           -3.5473    -3.3941    -2.2671 H       
  27 H27            2.4103     5.4353     0.0082 H       
  28 H28            2.4859     0.4944    -0.0083 H       
@<TRIPOS>BOND
   1    1    2 1
   2    1    8 1
   3    1   17 2
   4    2    3 1
   5    2   18 1
   6    2   19 1
   7    3    5 1
   8    4    5 1
   9    4   20 1
  10    4   21 1
  11    4   22 1
  12    5    6 1
  13    5   23 1
  14    6    7 2
  15    6   24 1
  16    7   25 1
  17    7   26 1
  18    8    9 ar
  19    8   13 ar
  20    9   10 ar
  21    9   15 1
  22   10   11 ar
  23   10   27 1
  24   11   12 ar
  25   11   14 1
  26   12   13 ar
  27   12   16 1
  28   13   28 1

#	End of record

