#	Name: ASD00061053
#	Creating user name:	WinNT
#	Creation time:	15. 06. 2019 18:29

#	Modifying user name:	WinNT
#	Modification time:	15. 06. 2019 18:29

#	Program:	/corina/corina34_cracker 3.40 0067  02.08.2006

@<TRIPOS>MOLECULE
ASD00061053
  42   43    0    0    0
SMALL
NO_CHARGES


@<TRIPOS>ATOM
   1 C1            -0.0184     1.5028     0.0103 C.ar    
   2 C2             0.0021    -0.0041     0.0020 C.3     
   3 C3            -0.7002    -0.5305     1.2552 C.3     
   4 C4            -0.5729    -2.0312     1.3094 C.2     
   5 O5             0.0209    -2.6213     0.4323 O.2     
   6 C6            -1.1694    -2.7804     2.4269 C.ar    
   7 C7            -1.0534    -4.1730     2.4808 C.ar    
   8 C8            -1.6150    -4.8678     3.5311 C.ar    
   9 C9            -2.2925    -4.1906     4.5301 C.ar    
  10 C10           -2.4115    -2.8124     4.4839 C.ar    
  11 C11           -1.8501    -2.1028     3.4435 C.ar    
  12 C12           -0.7241    -0.5171    -1.2431 C.3     
  13 C13            1.1693     2.2102     0.0028 C.ar    
  14 C14            1.1505     3.5924     0.0104 C.ar    
  15 C15           -0.0559     4.2672     0.0251 C.ar    
  16 C16           -1.2435     3.5598     0.0318 C.ar    
  17 C17           -1.2248     2.1776     0.0197 C.ar    
  18 C18           -2.9041    -4.9578     5.6739 C.3     
  19 C19           -1.8825    -5.0869     6.8056 C.3     
  20 C20            0.0370    -0.1013    -2.4756 C.2     
  21 O21            1.0557     0.5396    -2.3690 O.2     
  22 O22           -0.4168    -0.4430    -3.6917 O.3     
  23 H23            1.0345    -0.3534    -0.0097 H       
  24 H24           -0.2382    -0.0945     2.1409 H       
  25 H25           -1.7547    -0.2563     1.2231 H       
  26 H26           -0.5256    -4.7029     1.7016 H       
  27 H27           -1.5263    -5.9433     3.5742 H       
  28 H28           -2.9417    -2.2911     5.2672 H       
  29 H29           -1.9397    -1.0270     3.4113 H       
  30 H30           -0.7871    -1.6046    -1.2047 H       
  31 H31           -1.7288    -0.0959    -1.2772 H       
  32 H32            2.1118     1.6830    -0.0087 H       
  33 H33            2.0784     4.1450     0.0052 H       
  34 H34           -0.0705     5.3471     0.0318 H       
  35 H35           -2.1860     4.0870     0.0436 H       
  36 H36           -2.1526     1.6249     0.0249 H       
  37 H37           -3.7842    -4.4276     6.0376 H       
  38 H38           -3.1941    -5.9511     5.3312 H       
  39 H39           -1.0024    -5.6171     6.4418 H       
  40 H40           -1.5925    -4.0936     7.1482 H       
  41 H41           -2.3249    -5.6418     7.6328 H       
  42 H42            0.1054    -0.1536    -4.4524 H       
@<TRIPOS>BOND
   1    1    2 1
   2    1   13 ar
   3    1   17 ar
   4    2    3 1
   5    2   12 1
   6    2   23 1
   7    3    4 1
   8    3   24 1
   9    3   25 1
  10    4    5 2
  11    4    6 1
  12    6    7 ar
  13    6   11 ar
  14    7    8 ar
  15    7   26 1
  16    8    9 ar
  17    8   27 1
  18    9   10 ar
  19    9   18 1
  20   10   11 ar
  21   10   28 1
  22   11   29 1
  23   12   20 1
  24   12   30 1
  25   12   31 1
  26   13   14 ar
  27   13   32 1
  28   14   15 ar
  29   14   33 1
  30   15   16 ar
  31   15   34 1
  32   16   17 ar
  33   16   35 1
  34   17   36 1
  35   18   19 1
  36   18   37 1
  37   18   38 1
  38   19   39 1
  39   19   40 1
  40   19   41 1
  41   20   21 2
  42   20   22 1
  43   22   42 1

#	End of record

