#	Name: ASD01883897
#	Creating user name:	WinNT
#	Creation time:	15. 06. 2019 19:47

#	Modifying user name:	WinNT
#	Modification time:	15. 06. 2019 19:47

#	Program:	/corina/corina34_cracker 3.40 0067  02.08.2006

@<TRIPOS>MOLECULE
ASD01883897
  48   48    0    0    0
SMALL
NO_CHARGES


@<TRIPOS>ATOM
   1 C1            -0.0170     1.4024     0.0098 C.2     
   2 C2             0.0021    -0.0041     0.0020 C.2     
   3 C3            -1.2248    -0.6972     0.0105 C.2     
   4 C4            -2.3888    -0.0096     0.0258 C.2     
   5 N5            -2.4080     1.3483     0.0332 N.am    
   6 C6            -1.2688     2.0651     0.0312 C.2     
   7 C7            -3.6953     2.0474     0.0493 C.3     
   8 C8            -4.1297     2.2830     1.4973 C.3     
   9 C9            -5.4741     3.0131     1.5141 C.3     
  10 C10           -5.9685     3.1383     2.9566 C.3     
  11 C11           -5.3042     4.4087     0.9103 C.3     
  12 O12           -1.3143     3.2834     0.0387 O.2     
  13 C13            1.2047     2.1493     0.0021 C.1     
  14 N14            2.1739     2.7419    -0.0040 N.1     
  15 C15            1.2827    -0.7398    -0.0152 C.ar    
  16 C16            1.6464    -1.5377     1.0730 C.ar    
  17 C17            2.8407    -2.2222     1.0541 C.ar    
  18 C18            3.6857    -2.1199    -0.0471 C.ar    
  19 C19            3.3264    -1.3257    -1.1322 C.ar    
  20 C20            2.1304    -0.6441    -1.1221 C.ar    
  21 N21            4.8928    -2.8129    -0.0631 N.pl3   
  22 H22           -1.2352    -1.7771     0.0045 H       
  23 H23           -3.3229    -0.5516     0.0318 H       
  24 H24           -3.5947     3.0056    -0.4604 H       
  25 H25           -4.4442     1.4414    -0.4606 H       
  26 H26           -4.2302     1.3248     2.0070 H       
  27 H27           -3.3807     2.8890     2.0073 H       
  28 H28           -6.2007     2.4499     0.9285 H       
  29 H29           -5.2419     3.7015     3.5421 H       
  30 H30           -6.9263     3.6585     2.9685 H       
  31 H31           -6.0896     2.1441     3.3867 H       
  32 H32           -4.5775     4.9719     1.4958 H       
  33 H33           -4.9519     4.3195    -0.1174 H       
  34 H34           -6.2620     4.9288     0.9222 H       
  35 H35            0.9915    -1.6169     1.9281 H       
  36 H36            3.1223    -2.8389     1.8947 H       
  37 H37            3.9845    -1.2477    -1.9850 H       
  38 H38            1.8522    -0.0280    -1.9643 H       
  39 H39            5.1443    -3.3664     0.6927 H       
  40 H40            5.4825    -2.7423    -0.8300 H       
  41 C41           11.7860    11.3707     9.6755 C.3     
  42 F42           11.8050     9.9719     9.6678 F       
  43 F43           13.0985    11.8550     9.6656 F       
  44 F44           11.1094    11.8342     8.5421 F       
  45 C45           11.0806    11.8567    10.9154 C.2     
  46 O46           10.6397    11.0611    11.7107 O.2     
  47 O47           10.9421    13.1735    11.1362 O.3     
  48 H48           10.4825    13.4370    11.9452 H       
@<TRIPOS>BOND
   1    1    2 2
   2    1   13 1
   3    1    6 1
   4    2    3 1
   5    2   15 1
   6    3    4 2
   7    3   22 1
   8    4    5 1
   9    4   23 1
  10    5    7 1
  11    5    6 am
  12    6   12 2
  13    7    8 1
  14    7   24 1
  15    7   25 1
  16    8    9 1
  17    8   26 1
  18    8   27 1
  19    9   10 1
  20    9   11 1
  21    9   28 1
  22   10   29 1
  23   10   30 1
  24   10   31 1
  25   11   32 1
  26   11   33 1
  27   11   34 1
  28   13   14 3
  29   15   16 ar
  30   15   20 ar
  31   16   17 ar
  32   16   35 1
  33   17   18 ar
  34   17   36 1
  35   18   19 ar
  36   18   21 1
  37   19   20 ar
  38   19   37 1
  39   20   38 1
  40   21   39 1
  41   21   40 1
  42   41   42 1
  43   41   43 1
  44   41   44 1
  45   41   45 1
  46   45   46 2
  47   45   47 1
  48   47   48 1

#	End of record

