#	Name: ASD01148333
#	Creating user name:	WinNT
#	Creation time:	15. 06. 2019 19:02

#	Modifying user name:	WinNT
#	Modification time:	15. 06. 2019 19:02

#	Program:	/corina/corina34_cracker 3.40 0067  02.08.2006

@<TRIPOS>MOLECULE
ASD01148333
  47   49    0    0    0
SMALL
NO_CHARGES


@<TRIPOS>ATOM
   1 C1            -0.4096     1.8309    -0.0441 C.ar    
   2 C2            -0.4706     0.4512     0.0158 C.ar    
   3 C3             0.6939    -0.2894     0.0949 C.ar    
   4 C4             1.9195     0.3497     0.1135 C.ar    
   5 C5             1.9806     1.7294     0.0526 C.ar    
   6 C6             0.8160     2.4700    -0.0250 C.ar    
   7 C7             3.3167     2.4261     0.0734 C.3     
   8 O8             4.3314     1.6154    -0.5533 O.3     
   9 C9             3.3039     3.6758    -0.8390 C.3     
  10 C10            3.8458     3.1338    -2.1480 C.2     
  11 N11            4.3969     1.9899    -1.9151 N.2     
  12 C12            3.7580     3.7998    -3.4623 C.ar    
  13 C13            4.3020     3.1867    -4.5941 C.ar    
  14 C14            3.1261     5.0406    -3.5758 C.ar    
  15 C15            3.0443     5.6618    -4.8016 C.ar    
  16 C16            3.5932     5.0515    -5.9320 C.ar    
  17 C17            4.2202     3.8078    -5.8196 C.ar    
  18 C18            3.5054     5.7182    -7.2475 C.2     
  19 O19            4.0777     5.2432    -8.2090 O.2     
  20 N20            2.7907     6.8530    -7.3815 N.am    
  21 C21            4.8128     3.1496    -7.0389 C.3     
  22 C22            3.7165     2.7952     1.5034 C.3     
  23 F23            3.7869     1.6351     2.2821 F       
  24 F24            4.9658     3.4248     1.4906 F       
  25 F25            2.7624     3.6632     2.0450 F       
  26 C26            2.7086     7.4764    -8.6117 C.2     
  27 N27            3.3164     6.9720    -9.6328 N.2     
  28 O28            3.2323     7.6110   -10.8936 O.3     
  29 C29            3.9523     6.9442   -11.9324 C.3     
  30 H30           -1.3192     2.4093    -0.1104 H       
  31 H31           -1.4282    -0.0481     0.0013 H       
  32 H32            0.6462    -1.3673     0.1424 H       
  33 H33            2.8294    -0.2289     0.1759 H       
  34 H34            0.8637     3.5479    -0.0729 H       
  35 H35            2.2887     4.0515    -0.9665 H       
  36 H36            3.9578     4.4519    -0.4413 H       
  37 H37            4.7870     2.2256    -4.5072 H       
  38 H38            2.7014     5.5123    -2.7020 H       
  39 H39            2.5555     6.6209    -4.8894 H       
  40 H40            2.3340     7.2320    -6.6142 H       
  41 H41            5.8100     3.5508    -7.2199 H       
  42 H42            4.8781     2.0739    -6.8756 H       
  43 H43            4.1789     3.3482    -7.9031 H       
  44 H44            2.1359     8.3858    -8.7190 H       
  45 H45            5.0084     6.8932   -11.6675 H       
  46 H46            3.5597     5.9349   -12.0564 H       
  47 H47            3.8379     7.4958   -12.8655 H       
@<TRIPOS>BOND
   1    1    2 ar
   2    1    6 ar
   3    1   30 1
   4    2    3 ar
   5    2   31 1
   6    3    4 ar
   7    3   32 1
   8    4    5 ar
   9    4   33 1
  10    5    6 ar
  11    5    7 1
  12    6   34 1
  13    7    8 1
  14    7    9 1
  15    7   22 1
  16    8   11 1
  17    9   10 1
  18    9   35 1
  19    9   36 1
  20   10   11 2
  21   10   12 1
  22   12   13 ar
  23   12   14 ar
  24   13   17 ar
  25   13   37 1
  26   14   15 ar
  27   14   38 1
  28   15   16 ar
  29   15   39 1
  30   16   17 ar
  31   16   18 1
  32   17   21 1
  33   18   19 2
  34   18   20 am
  35   20   26 1
  36   20   40 1
  37   21   41 1
  38   21   42 1
  39   21   43 1
  40   22   23 1
  41   22   24 1
  42   22   25 1
  43   26   27 2
  44   26   44 1
  45   27   28 1
  46   28   29 1
  47   29   45 1
  48   29   46 1
  49   29   47 1

#	End of record

