#	Name: ASD01882982
#	Creating user name:	WinNT
#	Creation time:	15. 06. 2019 19:45

#	Modifying user name:	WinNT
#	Modification time:	15. 06. 2019 19:45

#	Program:	/corina/corina34_cracker 3.40 0067  02.08.2006

@<TRIPOS>MOLECULE
ASD01882982
  48   51    0    0    0
SMALL
NO_CHARGES


@<TRIPOS>ATOM
   1 C1            -0.0159     1.3220     0.0093 C.2     
   2 N2             0.0021    -0.0041     0.0020 N.2     
   3 C3             1.1523    -0.6857    -0.0126 C.2     
   4 C4             2.3835     0.0173    -0.0206 C.2     
   5 C5             2.3523     1.3664    -0.0131 C.2     
   6 N6             1.1484     2.0132     0.0019 N.pl3   
   7 O7            -1.0993     2.1290     0.0184 O.3     
   8 C8             0.8540     3.4562     0.0125 C.3     
   9 C9            -0.6831     3.5211     0.0242 C.3     
  10 O10            1.1423    -1.9071    -0.0187 O.2     
  11 C11           -1.1944     4.2379    -1.2270 C.3     
  12 C12           -2.7217     4.3171    -1.1812 C.3     
  13 C13           -3.2253     5.0232    -2.4136 C.ar    
  14 C14           -3.5279     4.2977    -3.5508 C.ar    
  15 C15           -3.9898     4.9453    -4.6813 C.ar    
  16 C16           -4.1496     6.3184    -4.6745 C.ar    
  17 C17           -3.8479     7.0438    -3.5371 C.ar    
  18 C18           -3.3901     6.3956    -2.4052 C.ar    
  19 C19           -4.6522     7.0245    -5.9073 C.3     
  20 C20           -5.9551     7.7569    -5.5801 C.3     
  21 C21           -6.4654     8.4738    -6.8317 C.3     
  22 C22           -5.4175     9.4837    -7.3039 C.3     
  23 C23           -4.1146     8.7513    -7.6311 C.3     
  24 C24           -3.6043     8.0344    -6.3795 C.3     
  25 H25            3.3237    -0.5140    -0.0321 H       
  26 H26            3.2727     1.9314    -0.0185 H       
  27 H27            1.2651     3.9237     0.9072 H       
  28 H28            1.2480     3.9334    -0.8848 H       
  29 H29           -1.0396     4.0220     0.9243 H       
  30 H30           -0.7793     5.2451    -1.2639 H       
  31 H31           -0.8857     3.6850    -2.1142 H       
  32 H32           -3.1368     3.3099    -1.1443 H       
  33 H33           -3.0304     4.8700    -0.2940 H       
  34 H34           -3.4030     3.2249    -3.5560 H       
  35 H35           -4.2255     4.3786    -5.5699 H       
  36 H36           -3.9724     8.1165    -3.5319 H       
  37 H37           -3.1579     6.9619    -1.5154 H       
  38 H38           -4.8341     6.2941    -6.6957 H       
  39 H39           -6.7016     7.0374    -5.2436 H       
  40 H40           -5.7732     8.4873    -4.7917 H       
  41 H41           -6.6473     7.7434    -7.6200 H       
  42 H42           -7.3936     8.9955    -6.5985 H       
  43 H43           -5.7810     9.9944    -8.1956 H       
  44 H44           -5.2356    10.2140    -6.5155 H       
  45 H45           -4.2965     8.0209    -8.4195 H       
  46 H46           -3.3681     9.4708    -7.9676 H       
  47 H47           -3.4224     8.7648    -5.5912 H       
  48 H48           -2.6761     7.5127    -6.6127 H       
@<TRIPOS>BOND
   1    1    2 2
   2    1    6 1
   3    1    7 1
   4    2    3 1
   5    3    4 1
   6    3   10 2
   7    4    5 2
   8    4   25 1
   9    5    6 1
  10    5   26 1
  11    6    8 1
  12    7    9 1
  13    8    9 1
  14    8   27 1
  15    8   28 1
  16    9   11 1
  17    9   29 1
  18   11   12 1
  19   11   30 1
  20   11   31 1
  21   12   13 1
  22   12   32 1
  23   12   33 1
  24   13   14 ar
  25   13   18 ar
  26   14   15 ar
  27   14   34 1
  28   15   16 ar
  29   15   35 1
  30   16   17 ar
  31   16   19 1
  32   17   18 ar
  33   17   36 1
  34   18   37 1
  35   19   20 1
  36   19   24 1
  37   19   38 1
  38   20   21 1
  39   20   39 1
  40   20   40 1
  41   21   22 1
  42   21   41 1
  43   21   42 1
  44   22   23 1
  45   22   43 1
  46   22   44 1
  47   23   24 1
  48   23   45 1
  49   23   46 1
  50   24   47 1
  51   24   48 1

#	End of record

