#	Name: ASD01948040
#	Creating user name:	WinNT
#	Creation time:	15. 06. 2019 20:13

#	Modifying user name:	WinNT
#	Modification time:	15. 06. 2019 20:13

#	Program:	/corina/corina34_cracker 3.40 0067  02.08.2006

@<TRIPOS>MOLECULE
ASD01948040
  71   74    0    0    0
SMALL
NO_CHARGES


@<TRIPOS>ATOM
   1 C1             0.4430     1.8403     2.5171 C.2     
   2 C2            -0.3912     0.8234     2.1188 C.2     
   3 C3            -0.8592     0.7722     0.7958 C.2     
   4 C4            -0.4663     1.7620    -0.0966 C.2     
   5 C5             0.3793     2.7749     0.3467 C.2     
   6 N6             0.8153     2.8007     1.6240 N.am    
   7 N7             0.9951     2.0544     3.7728 N.am    
   8 C8             1.8233     3.2641     3.7356 C.3     
   9 C9             1.7032     3.7690     2.2890 C.3     
  10 C10            0.8004     1.2745     4.8546 C.2     
  11 O11            0.7036     0.0702     4.7258 O.2     
  12 O12            0.7132     1.8299     6.0780 O.3     
  13 O13            0.7317     3.6507    -0.4298 O.2     
  14 C14           -0.9484     1.7390    -1.5243 C.3     
  15 N15           -1.7004    -0.2512     0.3861 N.pl3   
  16 C16           -3.0791    -0.0302     0.2973 C.ar    
  17 C17           -3.8884    -0.9371    -0.3795 C.ar    
  18 C18           -5.2503    -0.7153    -0.4645 C.ar    
  19 C19           -5.8074     0.4070     0.1228 C.ar    
  20 C20           -5.0046     1.3097     0.7960 C.ar    
  21 C21           -3.6433     1.0914     0.8892 C.ar    
  22 I22           -7.8716     0.7399    -0.0088 I       
  23 F23           -3.3443    -2.0326    -0.9532 F       
  24 N24           -0.7774    -0.1703     3.0398 N.am    
  25 S25           -1.4533    -1.5822     2.4996 S.o2    
  26 O26           -1.8948    -2.2344     3.6823 O.2     
  27 O27           -2.3773    -1.1693     1.5021 O.2     
  28 C28           -0.0714    -2.4882     1.7511 C.3     
  29 C29           -0.2697    -3.9807     1.4792 C.3     
  30 C30           -0.2487    -2.9874     0.3157 C.3     
  31 C31            1.3254    -2.0262     2.1714 C.3     
  32 C32            1.4265    -0.5069     2.0220 C.3     
  33 C33            2.8415    -0.0518     2.3845 C.3     
  34 O34            2.9043     1.3756     2.3579 O.3     
  35 O35            1.1400    -0.1410     0.6707 O.3     
  36 C36            0.6168     0.9233     7.2081 C.3     
  37 C37            1.7944    -0.0531     7.1807 C.3     
  38 C38            0.6500     1.7260     8.5102 C.3     
  39 C39           -0.6958     0.1416     7.1243 C.3     
  40 H40            1.4373     4.0108     4.4294 H       
  41 H41            2.8595     3.0230     3.9725 H       
  42 H42            2.6808     3.7806     1.8069 H       
  43 H43            1.2593     4.7644     2.2723 H       
  44 H44           -1.9241     2.2208    -1.5861 H       
  45 H45           -0.2387     2.2731    -2.1561 H       
  46 H46           -1.0310     0.7063    -1.8632 H       
  47 H47           -1.3331    -1.1202     0.1610 H       
  48 H48           -5.8798    -1.4182    -0.9899 H       
  49 H49           -5.4429     2.1845     1.2531 H       
  50 H50           -3.0183     1.7949     1.4191 H       
  51 H51           -0.6474    -0.0274     3.9904 H       
  52 H52            0.5949    -4.6335     1.5994 H       
  53 H53           -1.2306    -4.4183     1.7501 H       
  54 H54           -1.1957    -2.7714    -0.1788 H       
  55 H55            0.6298    -2.9866    -0.3295 H       
  56 H56            1.5015    -2.3016     3.2112 H       
  57 H57            2.0722    -2.5041     1.5374 H       
  58 H58            0.7089    -0.0278     2.6881 H       
  59 H59            3.0930    -0.4080     3.3835 H       
  60 H60            3.5503    -0.4602     1.6641 H       
  61 H61            3.7745     1.7351     2.5784 H       
  62 H62            1.7406    -0.5322     0.0215 H       
  63 H63            2.7295     0.5063     7.1500 H       
  64 H64            1.7721    -0.6745     8.0759 H       
  65 H65            1.7208    -0.6865     6.2967 H       
  66 H66           -0.1890     2.4216     8.5297 H       
  67 H67            0.5776     1.0455     9.3585 H       
  68 H68            1.5851     2.2829     8.5699 H       
  69 H69           -0.6819    -0.4983     6.2420 H       
  70 H70           -0.8103    -0.4730     8.0171 H       
  71 H71           -1.5303     0.8393     7.0540 H       
@<TRIPOS>BOND
   1    1    2 2
   2    1    6 1
   3    1    7 1
   4    2    3 1
   5    2   24 1
   6    3    4 2
   7    3   15 1
   8    4    5 1
   9    4   14 1
  10    5    6 am
  11    5   13 2
  12    6    9 1
  13    7    8 1
  14    7   10 am
  15    8    9 1
  16    8   40 1
  17    8   41 1
  18    9   42 1
  19    9   43 1
  20   10   11 2
  21   10   12 1
  22   12   36 1
  23   14   44 1
  24   14   45 1
  25   14   46 1
  26   15   16 1
  27   15   47 1
  28   16   17 ar
  29   16   21 ar
  30   17   18 ar
  31   17   23 1
  32   18   19 ar
  33   18   48 1
  34   19   20 ar
  35   19   22 1
  36   20   21 ar
  37   20   49 1
  38   21   50 1
  39   24   25 am
  40   24   51 1
  41   25   26 2
  42   25   27 2
  43   25   28 1
  44   28   29 1
  45   28   30 1
  46   28   31 1
  47   29   30 1
  48   29   52 1
  49   29   53 1
  50   30   54 1
  51   30   55 1
  52   31   32 1
  53   31   56 1
  54   31   57 1
  55   32   33 1
  56   32   35 1
  57   32   58 1
  58   33   34 1
  59   33   59 1
  60   33   60 1
  61   34   61 1
  62   35   62 1
  63   36   37 1
  64   36   39 1
  65   36   38 1
  66   37   63 1
  67   37   64 1
  68   37   65 1
  69   38   66 1
  70   38   67 1
  71   38   68 1
  72   39   69 1
  73   39   70 1
  74   39   71 1

#	End of record

