#	Name: ASD08151182
#	Creating user name:	WinNT
#	Creation time:	15. 06. 2019 21:17

#	Modifying user name:	WinNT
#	Modification time:	15. 06. 2019 21:17

#	Program:	/corina/corina34_cracker 3.40 0067  02.08.2006

@<TRIPOS>MOLECULE
ASD08151182
  30   31    0    0    0
SMALL
NO_CHARGES


@<TRIPOS>ATOM
   1 C1            -0.0167     1.3781     0.0096 C.ar    
   2 C2             0.0021    -0.0041     0.0020 C.ar    
   3 C3             1.2084    -0.6789    -0.0132 C.ar    
   4 C4             2.3960     0.0285    -0.0212 C.ar    
   5 C5             2.3773     1.4107    -0.0145 C.ar    
   6 C6             1.1709     2.0855     0.0021 C.ar    
   7 S7             3.9337    -0.8316    -0.0394 S.o2    
   8 N8             4.3467    -1.0640    -1.6262 N.am    
   9 S9             5.1461     0.1252    -2.4564 S.o2    
  10 C10            6.8647    -0.0692    -2.1202 C.ar    
  11 C11            7.6413    -0.8737    -2.9330 C.ar    
  12 F12            4.0433    -2.1799    -2.2201 F       
  13 C13            7.4377     0.5874    -1.0472 C.ar    
  14 C14            8.7861     0.4349    -0.7834 C.ar    
  15 C15            9.5614    -0.3745    -1.5925 C.ar    
  16 C16            8.9897    -1.0262    -2.6692 C.ar    
  17 O17            4.8991     0.0608     0.4999 O.2     
  18 O18            3.6789    -2.1206     0.5018 O.2     
  19 O19            4.9721    -0.1630    -3.8370 O.2     
  20 O20            4.7583     1.3576    -1.8648 O.2     
  21 H21           -0.9592     1.9054     0.0170 H       
  22 H22           -0.9258    -0.5567     0.0083 H       
  23 H23            1.2231    -1.7588    -0.0184 H       
  24 H24            3.3051     1.9634    -0.0201 H       
  25 H25            1.1563     3.1654     0.0077 H       
  26 H26            7.1945    -1.3835    -3.7738 H       
  27 H27            6.8319     1.2197    -0.4150 H       
  28 H28            9.2338     0.9485     0.0545 H       
  29 H29           10.6149    -0.4933    -1.3867 H       
  30 H30            9.5954    -1.6586    -3.3013 H       
@<TRIPOS>BOND
   1    1    2 ar
   2    1    6 ar
   3    1   21 1
   4    2    3 ar
   5    2   22 1
   6    3    4 ar
   7    3   23 1
   8    4    5 ar
   9    4    7 1
  10    5    6 ar
  11    5   24 1
  12    6   25 1
  13    7    8 am
  14    7   17 2
  15    7   18 2
  16    8    9 am
  17    8   12 1
  18    9   10 1
  19    9   19 2
  20    9   20 2
  21   10   11 ar
  22   10   13 ar
  23   11   16 ar
  24   11   26 1
  25   13   14 ar
  26   13   27 1
  27   14   15 ar
  28   14   28 1
  29   15   16 ar
  30   15   29 1
  31   16   30 1

#	End of record

