#	Name: ASD01885053
#	Creating user name:	WinNT
#	Creation time:	15. 06. 2019 19:49

#	Modifying user name:	WinNT
#	Modification time:	15. 06. 2019 19:49

#	Program:	/corina/corina34_cracker 3.40 0067  02.08.2006

@<TRIPOS>MOLECULE
ASD01885053
  50   53    0    0    0
SMALL
NO_CHARGES


@<TRIPOS>ATOM
   1 C1            -0.0067     1.0028     0.1184 C.3     
   2 C2             0.0865    -0.5210     0.2196 C.3     
   3 H3            -0.9168    -0.9456     0.2524 H       
   4 C4             0.8326    -1.0684    -0.9964 C.3     
   5 N5             1.2273    -2.4629    -0.8303 N.am    
   6 C6             1.7061    -2.9304     0.3473 C.2     
   7 O7             2.2193    -4.0295     0.4401 O.2     
   8 C8             1.5720    -2.0358     1.5086 C.2     
   9 C9             2.1034    -2.1190     2.7765 C.2     
  10 C10            1.6549    -0.9708     3.4730 C.2     
  11 C11            0.8812    -0.2512     2.6246 C.2     
  12 N12            0.8135    -0.8872     1.4397 N.pl3   
  13 C13            2.9685    -3.1928     3.3048 C.2     
  14 O14            3.2789    -4.1286     2.5934 O.2     
  15 N15            3.4140    -3.1355     4.5755 N.am    
  16 C16            4.1310    -4.2087     5.1143 C.ar    
  17 C17            3.8398    -5.5123     4.7342 C.ar    
  18 N18            4.5138    -6.5262     5.2395 N.ar    
  19 C19            5.4818    -6.3487     6.1171 C.ar    
  20 C20            5.8296    -5.0806     6.5447 C.ar    
  21 C21            5.1516    -3.9854     6.0356 C.ar    
  22 C22            5.5054    -2.5870     6.4722 C.3     
  23 C23            1.1078    -3.3387    -1.9134 C.ar    
  24 C24            0.3584    -4.5016    -1.7889 C.ar    
  25 C25            0.2421    -5.3644    -2.8610 C.ar    
  26 C26            0.8710    -5.0719    -4.0573 C.ar    
  27 C27            1.6183    -3.9153    -4.1845 C.ar    
  28 C28            1.7336    -3.0451    -3.1183 C.ar    
  29 C29            0.7423    -6.0160    -5.2248 C.3     
  30 F30           -0.3718    -5.6594    -5.9923 F       
  31 F31            1.8951    -5.9419    -6.0139 F       
  32 F32            0.5839    -7.3232    -4.7523 F       
  33 H33            0.9969     1.4268     0.0856 H       
  34 H34           -0.5457     1.2743    -0.7893 H       
  35 H35           -0.5377     1.3928     0.9867 H       
  36 H36            0.1880    -0.9864    -1.8716 H       
  37 H37            1.7262    -0.4666    -1.1619 H       
  38 H38            1.8874    -0.7147     4.4961 H       
  39 H39            0.3950     0.6836     2.8615 H       
  40 H40            3.2373    -2.3499     5.1164 H       
  41 H41            3.0531    -5.6972     4.0178 H       
  42 H42            6.0103    -7.2058     6.5075 H       
  43 H43            6.6237    -4.9453     7.2641 H       
  44 H44            4.9119    -2.3181     7.3459 H       
  45 H45            6.5648    -2.5423     6.7248 H       
  46 H46            5.2955    -1.8893     5.6615 H       
  47 H47           -0.1324    -4.7310    -0.8546 H       
  48 H48           -0.3405    -6.2687    -2.7648 H       
  49 H49            2.1085    -3.6900    -5.1201 H       
  50 H50            2.3133    -2.1396    -3.2198 H       
@<TRIPOS>BOND
   1    1    2 1
   2    1   33 1
   3    1   34 1
   4    1   35 1
   5    2    3 1
   6    2   12 1
   7    2    4 1
   8    4    5 1
   9    4   36 1
  10    4   37 1
  11    5    6 am
  12    5   23 1
  13    6    7 2
  14    6    8 1
  15    8   12 1
  16    8    9 2
  17    9   10 1
  18    9   13 1
  19   10   11 2
  20   10   38 1
  21   11   12 1
  22   11   39 1
  23   13   14 2
  24   13   15 am
  25   15   16 1
  26   15   40 1
  27   16   21 ar
  28   16   17 ar
  29   17   18 ar
  30   17   41 1
  31   18   19 ar
  32   19   20 ar
  33   19   42 1
  34   20   21 ar
  35   20   43 1
  36   21   22 1
  37   22   44 1
  38   22   45 1
  39   22   46 1
  40   23   28 ar
  41   23   24 ar
  42   24   25 ar
  43   24   47 1
  44   25   26 ar
  45   25   48 1
  46   26   27 ar
  47   26   29 1
  48   27   28 ar
  49   27   49 1
  50   28   50 1
  51   29   30 1
  52   29   31 1
  53   29   32 1

#	End of record

