#	Name: ASD03090983
#	Creating user name:	WinNT
#	Creation time:	15. 06. 2019 20:29

#	Modifying user name:	WinNT
#	Modification time:	15. 06. 2019 20:29

#	Program:	/corina/corina34_cracker 3.40 0067  02.08.2006

@<TRIPOS>MOLECULE
ASD03090983
  41   44    0    0    0
SMALL
NO_CHARGES


@<TRIPOS>ATOM
   1 N1            -0.0188     1.4669    -0.0835 N.am    
   2 C2             0.0009    -0.0024    -0.1166 C.3     
   3 C3             1.4454    -0.4260    -0.1552 C.2     
   4 C4             2.2206     0.6224    -0.1475 C.2     
   5 C5             1.3919     1.8790    -0.1028 C.3     
   6 C6            -1.1023     2.2678    -0.0488 C.2     
   7 O7            -2.2198     1.7812    -0.0422 O.2     
   8 N8            -0.9514     3.5950    -0.0215 N.2     
   9 S9            -3.6731     3.8988     0.0283 S.3     
  10 C10           -2.0214     4.3859     0.0128 C.2     
  11 N11           -2.0359     5.7424     0.0433 N.pl3   
  12 C12           -3.2566     6.3448     0.0762 C.2     
  13 C13           -4.3176     5.5488     0.0754 C.2     
  14 O14            2.6631     8.6712     0.0464 O.3     
  15 C15            2.5965    10.0213    -0.4253 C.3     
  16 C16            1.3803    10.6970     0.2227 C.3     
  17 O17            0.2081     9.9669    -0.1551 O.3     
  18 C18            0.2736     8.6109    -0.0570 C.ar    
  19 C19            1.4999     7.9630     0.0417 C.ar    
  20 C20           -0.8995     7.8728    -0.0554 C.ar    
  21 C21           -0.8492     6.4890     0.0415 C.ar    
  22 C22            0.3766     5.8449     0.1372 C.ar    
  23 C23            1.5462     6.5803     0.1372 C.ar    
  24 F24            1.5178    10.6812     1.6148 F       
  25 F25            1.2790    12.0178    -0.2272 F       
  26 F26            3.7631    10.7048    -0.0659 F       
  27 F27            2.4543    10.0284    -1.8170 F       
  28 C28           -5.7667     5.9610     0.1081 C.3     
  29 H29           -0.4788    -0.4002     0.7777 H       
  30 H30           -0.5148    -0.3605    -1.0077 H       
  31 H31            1.7893    -1.4494    -0.1845 H       
  32 H32            3.3000     0.5938    -0.1699 H       
  33 H33            1.5894     2.4853    -0.9868 H       
  34 H34            1.6254     2.4456     0.7986 H       
  35 H35           -3.3562     7.4199     0.1018 H       
  36 H36           -1.8530     8.3744    -0.1305 H       
  37 H37            0.4161     4.7682     0.2117 H       
  38 H38            2.4989     6.0771     0.2114 H       
  39 H39           -6.3976     5.0722     0.0991 H       
  40 H40           -5.9608     6.5351     1.0141 H       
  41 H41           -5.9900     6.5739    -0.7652 H       
@<TRIPOS>BOND
   1    1    2 1
   2    1    5 1
   3    1    6 am
   4    2    3 1
   5    2   29 1
   6    2   30 1
   7    3    4 2
   8    3   31 1
   9    4    5 1
  10    4   32 1
  11    5   33 1
  12    5   34 1
  13    6    7 2
  14    6    8 1
  15    8   10 2
  16    9   10 1
  17    9   13 1
  18   10   11 1
  19   11   12 1
  20   11   21 1
  21   12   13 2
  22   12   35 1
  23   13   28 1
  24   14   15 1
  25   14   19 1
  26   15   16 1
  27   15   26 1
  28   15   27 1
  29   16   17 1
  30   16   24 1
  31   16   25 1
  32   17   18 1
  33   18   19 ar
  34   18   20 ar
  35   19   23 ar
  36   20   21 ar
  37   20   36 1
  38   21   22 ar
  39   22   23 ar
  40   22   37 1
  41   23   38 1
  42   28   39 1
  43   28   40 1
  44   28   41 1

#	End of record

