#	Name: ASD00310243
#	Creating user name:	WinNT
#	Creation time:	15. 06. 2019 18:34

#	Modifying user name:	WinNT
#	Modification time:	15. 06. 2019 18:34

#	Program:	/corina/corina34_cracker 3.40 0067  02.08.2006

@<TRIPOS>MOLECULE
ASD00310243
  32   34    0    0    0
SMALL
NO_CHARGES


@<TRIPOS>ATOM
   1 N1            -0.0162     1.3426     0.0094 N.pl3   
   2 C2             0.0021    -0.0041     0.0020 C.2     
   3 C3             1.3064    -0.4496    -0.0128 C.2     
   4 C4             2.1540     0.7598    -0.0144 C.ar    
   5 C5             3.5274     0.9736    -0.0264 C.ar    
   6 C6             4.0195     2.2728    -0.0241 C.ar    
   7 C7             3.1343     3.3559    -0.0098 C.ar    
   8 C8             1.7742     3.1460     0.0020 C.ar    
   9 C9             1.2676     1.8488    -0.0001 C.ar    
  10 C10            1.7456    -1.7969    -0.0236 C.2     
  11 O11            0.9342    -2.6999    -0.0204 O.2     
  12 C12            5.4838     2.5115    -0.0363 C.ar    
  13 C13            6.0401     3.3932    -0.9600 C.ar    
  14 C14            7.4076     3.6121    -0.9661 C.ar    
  15 C15            8.2204     2.9533    -0.0534 C.ar    
  16 C16            7.6689     2.0783     0.8633 C.ar    
  17 C17            6.3059     1.8585     0.8801 C.ar    
  18 O18            7.9542     4.4717    -1.8658 O.3     
  19 C19            9.3711     4.6495    -1.8151 C.3     
  20 Cl20           3.7560     4.9768    -0.0065 Cl      
  21 H21           -0.8217     1.8829     0.0163 H       
  22 H22           -0.8721    -0.6383     0.0073 H       
  23 H23            4.2077     0.1349    -0.0370 H       
  24 H24            1.0987     3.9886     0.0130 H       
  25 H25            2.8022    -2.0203    -0.0345 H       
  26 H26            5.4068     3.9045    -1.6699 H       
  27 H27            9.2867     3.1247    -0.0601 H       
  28 H28            8.3054     1.5682     1.5712 H       
  29 H29            5.8774     1.1776     1.6006 H       
  30 H30            9.6760     5.3590    -2.5844 H       
  31 H31            9.6544     5.0325    -0.8347 H       
  32 H32            9.8638     3.6926    -1.9876 H       
@<TRIPOS>BOND
   1    1    2 1
   2    1    9 1
   3    1   21 1
   4    2    3 2
   5    2   22 1
   6    3    4 1
   7    3   10 1
   8    4    5 ar
   9    4    9 ar
  10    5    6 ar
  11    5   23 1
  12    6    7 ar
  13    6   12 1
  14    7    8 ar
  15    7   20 1
  16    8    9 ar
  17    8   24 1
  18   10   11 2
  19   10   25 1
  20   12   13 ar
  21   12   17 ar
  22   13   14 ar
  23   13   26 1
  24   14   15 ar
  25   14   18 1
  26   15   16 ar
  27   15   27 1
  28   16   17 ar
  29   16   28 1
  30   17   29 1
  31   18   19 1
  32   19   30 1
  33   19   31 1
  34   19   32 1

#	End of record

