#	Name: ASD01940443
#	Creating user name:	WinNT
#	Creation time:	15. 06. 2019 20:12

#	Modifying user name:	WinNT
#	Modification time:	15. 06. 2019 20:12

#	Program:	/corina/corina34_cracker 3.40 0067  02.08.2006

@<TRIPOS>MOLECULE
ASD01940443
  27   27    0    0    0
SMALL
NO_CHARGES


@<TRIPOS>ATOM
   1 C1            -0.0179     1.4711     0.0101 C.2     
   2 C2             0.0021    -0.0041     0.0020 C.ar    
   3 C3             1.2208    -0.6895    -0.0133 C.ar    
   4 C4             1.2326    -2.0687    -0.0209 C.ar    
   5 C5             0.0395    -2.7746    -0.0133 C.ar    
   6 C6            -1.1719    -2.0996     0.0014 C.ar    
   7 C7            -1.1965    -0.7218     0.0154 C.ar    
   8 O8             1.0259     2.0929     0.0035 O.2     
   9 O9            -1.1938     2.1289     0.0193 O.3     
  10 F10            0.0569    -4.1255    -0.0208 F       
  11 Br11           2.8489     0.2723    -0.0242 Br      
  12 C12           -1.1375     3.5798     0.0269 C.3     
  13 C13           -0.4029     4.0682    -1.2232 C.3     
  14 C14           -2.5591     4.1453     0.0367 C.3     
  15 C15           -0.3911     4.0546     1.2752 C.3     
  16 H16            2.1730    -2.5997    -0.0331 H       
  17 H17           -2.0981    -2.6551     0.0069 H       
  18 H18           -2.1407    -0.1977     0.0321 H       
  19 H19           -0.9347     3.7299    -2.1125 H       
  20 H20           -0.3607     5.1574    -1.2175 H       
  21 H21            0.6099     3.6653    -1.2302 H       
  22 H22           -3.0824     3.7973     0.9273 H       
  23 H23           -2.5168     5.2345     0.0424 H       
  24 H24           -3.0909     3.8070    -0.8526 H       
  25 H25            0.6217     3.6518     1.2682 H       
  26 H26           -0.3488     5.1438     1.2809 H       
  27 H27           -0.9144     3.7067     2.1658 H       
@<TRIPOS>BOND
   1    1    2 1
   2    1    8 2
   3    1    9 1
   4    2    3 ar
   5    2    7 ar
   6    3    4 ar
   7    3   11 1
   8    4    5 ar
   9    4   16 1
  10    5    6 ar
  11    5   10 1
  12    6    7 ar
  13    6   17 1
  14    7   18 1
  15    9   12 1
  16   12   13 1
  17   12   15 1
  18   12   14 1
  19   13   19 1
  20   13   20 1
  21   13   21 1
  22   14   22 1
  23   14   23 1
  24   14   24 1
  25   15   25 1
  26   15   26 1
  27   15   27 1

#	End of record

