#	Name: ASD09800047
#	Creating user name:	WinNT
#	Creation time:	15. 06. 2019 21:24

#	Modifying user name:	WinNT
#	Modification time:	15. 06. 2019 21:24

#	Program:	/corina/corina34_cracker 3.40 0067  02.08.2006

@<TRIPOS>MOLECULE
ASD09800047
  58   63    0    0    0
SMALL
NO_CHARGES


@<TRIPOS>ATOM
   1 C1            -2.5877    -0.3581     2.9527 C.2     
   2 N2            -3.5000    -1.1658     3.4622 N.2     
   3 C3            -4.5999    -1.4955     2.7728 C.2     
   4 C4            -4.8245    -1.0211     1.5340 C.2     
   5 C5            -2.7764     0.1726     1.6606 C.2     
   6 C6            -2.0478     1.0254     0.8385 C.2     
   7 N7            -3.9096    -0.1746     0.9488 N.pl3   
   8 C8            -3.8456     0.4597    -0.2357 C.2     
   9 N9            -2.7478     1.1691    -0.2989 N.2     
  10 C10           -0.7496     1.6543     1.1560 C.ar    
  11 C11            0.6421     3.6480     1.4175 C.ar    
  12 C12            1.7303     2.8181     1.7638 C.ar    
  13 C13            1.5669     1.4488     1.7949 C.ar    
  14 C14            0.3416     0.8694     1.4950 C.ar    
  15 C15           -0.6097     3.0638     1.1105 C.ar    
  16 N16            2.9710     3.3818     2.0685 N.am    
  17 C17            4.0912     2.6388     1.9704 C.2     
  18 N18            5.2747     3.1485     2.3653 N.am    
  19 O19            4.0340     1.5086     1.5254 O.2     
  20 N20           -1.4581    -0.0309     3.6840 N.pl3   
  21 C21           -4.8803     0.3644    -1.3272 C.3     
  22 C22           -6.3174     0.7531    -0.9742 C.3     
  23 C23           -5.4710     1.6726    -1.8568 C.3     
  24 C24           -4.6824    -0.7774    -2.3262 C.3     
  25 C25            0.7801     5.0445     1.3709 C.ar    
  26 C26           -1.6893     3.8893     0.7663 C.ar    
  27 C27           -1.5212     5.2409     0.7315 C.ar    
  28 C28           -0.2895     5.8169     1.0331 C.ar    
  29 C29            6.4398     2.3757     2.2632 C.2     
  30 N30            8.5267     1.6928     2.3541 N.pl3   
  31 N31            7.6466     2.7505     2.6163 N.2     
  32 C32            6.5183     1.0632     1.7708 C.2     
  33 C33            7.8112     0.6719     1.8371 C.2     
  34 C34            8.3563    -0.6662     1.4088 C.3     
  35 H35           -5.3242    -2.1588     3.2221 H       
  36 H36           -5.7196    -1.3037     0.9999 H       
  37 H37            2.4029     0.8188     2.0605 H       
  38 H38            0.2372    -0.2050     1.5263 H       
  39 H39            3.0266     4.3082     2.3509 H       
  40 H40            5.3202     4.0501     2.7202 H       
  41 H41           -1.2706    -0.4895     4.5180 H       
  42 H42           -0.8544     0.6567     3.3623 H       
  43 H43           -7.1219     0.1956    -1.4540 H       
  44 H44           -6.5145     1.0777     0.0475 H       
  45 H45           -5.1113     2.6022    -1.4158 H       
  46 H46           -5.7187     1.7201    -2.9173 H       
  47 H47           -4.5968    -1.7210    -1.7873 H       
  48 H48           -5.5365    -0.8212    -3.0019 H       
  49 H49           -3.7728    -0.6036    -2.9011 H       
  50 H50            1.7299     5.5039     1.6018 H       
  51 H51           -2.6497     3.4558     0.5295 H       
  52 H52           -2.3546     5.8745     0.4660 H       
  53 H53           -0.1809     6.8908     0.9979 H       
  54 H54            9.4828     1.6932     2.5176 H       
  55 H55            5.6927     0.4710     1.4047 H       
  56 H56            8.3281    -1.3567     2.2518 H       
  57 H57            7.7493    -1.0621     0.5945 H       
  58 H58            9.3856    -0.5478     1.0704 H       
@<TRIPOS>BOND
   1    1    2 2
   2    1   20 1
   3    1    5 1
   4    2    3 1
   5    3    4 2
   6    3   35 1
   7    4    7 1
   8    4   36 1
   9    5    7 1
  10    5    6 2
  11    6    9 1
  12    6   10 1
  13    7    8 1
  14    8    9 2
  15    8   21 1
  16   10   15 ar
  17   10   14 ar
  18   11   12 ar
  19   11   15 ar
  20   11   25 ar
  21   12   13 ar
  22   12   16 1
  23   13   14 ar
  24   13   37 1
  25   14   38 1
  26   15   26 ar
  27   16   17 am
  28   16   39 1
  29   17   18 am
  30   17   19 2
  31   18   29 1
  32   18   40 1
  33   20   41 1
  34   20   42 1
  35   21   22 1
  36   21   23 1
  37   21   24 1
  38   22   23 1
  39   22   43 1
  40   22   44 1
  41   23   45 1
  42   23   46 1
  43   24   47 1
  44   24   48 1
  45   24   49 1
  46   25   28 ar
  47   25   50 1
  48   26   27 ar
  49   26   51 1
  50   27   28 ar
  51   27   52 1
  52   28   53 1
  53   29   32 1
  54   29   31 2
  55   30   31 1
  56   30   33 1
  57   30   54 1
  58   32   33 2
  59   32   55 1
  60   33   34 1
  61   34   56 1
  62   34   57 1
  63   34   58 1

#	End of record

