#	Name: ASD07930723
#	Creating user name:	WinNT
#	Creation time:	15. 06. 2019 21:13

#	Modifying user name:	WinNT
#	Modification time:	15. 06. 2019 21:13

#	Program:	/corina/corina34_cracker 3.40 0067  02.08.2006

@<TRIPOS>MOLECULE
ASD07930723
  43   45    0    0    0
SMALL
NO_CHARGES


@<TRIPOS>ATOM
   1 C1            -0.0086     1.4608     0.0130 C.3     
   2 N2             2.1714    -0.4193     0.8023 N.2     
   3 N3             1.3122    -1.7588    -0.9092 N.pl3   
   4 C4             0.2855    -2.8052    -0.9532 C.3     
   5 C5            -1.0768    -2.1652    -1.2539 C.3     
   6 N6             0.0073    -0.0041     0.0037 N.am    
   7 C7             1.1964    -0.7193    -0.0091 C.2     
   8 C8             0.2268    -3.5205     0.3980 C.3     
   9 C9             0.6249    -3.7980    -2.0349 C.ar    
  10 C10            1.7022    -3.5699    -2.8659 C.ar    
  11 C11            2.0151    -4.4887    -3.8659 C.ar    
  12 C12            1.2377    -5.6343    -4.0219 C.ar    
  13 C13            0.1618    -5.8546    -3.1863 C.ar    
  14 C14           -0.1423    -4.9415    -2.1899 C.ar    
  15 F15           -1.1965    -5.1611    -1.3740 F       
  16 C16            3.1727    -4.2473    -4.7624 C.ar    
  17 C17            3.9500    -3.1000    -4.6057 C.ar    
  18 C18            3.4876    -5.1676    -5.7563 C.ar    
  19 C19            4.5773    -4.9341    -6.5947 C.ar    
  20 C20            5.3446    -3.7786    -6.4308 C.ar    
  21 C21            5.0284    -2.8727    -5.4383 C.ar    
  22 S22           -1.4016    -0.8938     0.0081 S.o2    
  23 O23           -2.3996     0.0148    -0.4366 O.2     
  24 O24           -1.4550    -1.4725     1.3048 O.2     
  25 C25            4.9089    -5.8768    -7.6204 C.1     
  26 N26            5.1719    -6.6245    -8.4341 N.1     
  27 H27            1.0150     1.8353     0.0081 H       
  28 H28           -0.5327     1.8240    -0.8711 H       
  29 H29           -0.5201     1.8129     0.9088 H       
  30 H30            2.0725     0.3146     1.4288 H       
  31 H31            2.0734    -1.7995    -1.5090 H       
  32 H32           -1.0567    -1.7054    -2.2420 H       
  33 H33           -1.8563    -2.9262    -1.2179 H       
  34 H34           -0.0207    -2.8018     1.1792 H       
  35 H35           -0.5364    -4.2981     0.3647 H       
  36 H36            1.1957    -3.9714     0.6128 H       
  37 H37            2.3020    -2.6804    -2.7418 H       
  38 H38            1.4765    -6.3487    -4.7958 H       
  39 H39           -0.4416    -6.7423    -3.3067 H       
  40 H40            3.7078    -2.3870    -3.8315 H       
  41 H41            2.8909    -6.0595    -5.8781 H       
  42 H42            6.1890    -3.5956    -7.0789 H       
  43 H43            5.6240    -1.9803    -5.3152 H       
@<TRIPOS>BOND
   1    1    6 1
   2    1   27 1
   3    1   28 1
   4    1   29 1
   5    2    7 2
   6    2   30 1
   7    3    4 1
   8    3    7 1
   9    3   31 1
  10    4    5 1
  11    4    8 1
  12    4    9 1
  13    5   22 1
  14    5   32 1
  15    5   33 1
  16    6    7 1
  17    6   22 am
  18    8   34 1
  19    8   35 1
  20    8   36 1
  21    9   10 ar
  22    9   14 ar
  23   10   11 ar
  24   10   37 1
  25   11   12 ar
  26   11   16 1
  27   12   13 ar
  28   12   38 1
  29   13   14 ar
  30   13   39 1
  31   14   15 1
  32   16   17 ar
  33   16   18 ar
  34   17   21 ar
  35   17   40 1
  36   18   19 ar
  37   18   41 1
  38   19   20 ar
  39   19   25 1
  40   20   21 ar
  41   20   42 1
  42   21   43 1
  43   22   23 2
  44   22   24 2
  45   25   26 3

#	End of record

