#	Name: ASD01028374
#	Creating user name:	WinNT
#	Creation time:	15. 06. 2019 18:57

#	Modifying user name:	WinNT
#	Modification time:	15. 06. 2019 18:57

#	Program:	/corina/corina34_cracker 3.40 0067  02.08.2006

@<TRIPOS>MOLECULE
ASD01028374
  36   39    0    0    0
SMALL
NO_CHARGES


@<TRIPOS>ATOM
   1 C1            -0.0167     1.3770     0.0096 C.ar    
   2 C2             0.0021    -0.0041     0.0020 C.ar    
   3 C3             1.1907     2.0701     0.0018 C.ar    
   4 C4             2.3742     1.3359    -0.0134 C.ar    
   5 C5             2.3092    -0.0422    -0.0202 C.ar    
   6 N6             1.1456    -0.6646    -0.0120 N.ar    
   7 O7             1.2139     3.4273     0.0084 O.3     
   8 C8             2.4980     4.0543    -0.0004 C.3     
   9 C9             2.3262     5.5514     0.0087 C.2     
  10 N10            2.2455     6.3380     1.1041 N.pl3   
  11 C11            2.0944     7.6226     0.6383 C.2     
  12 N12            2.0910     7.5527    -0.6829 N.2     
  13 N13            2.2338     6.3253    -1.0439 N.2     
  14 N14            2.2850     6.0916     2.4780 N.2     
  15 C15            2.1786     7.0818     3.3362 C.2     
  16 C16            2.0221     8.4111     2.8893 C.2     
  17 C17            1.9813     8.6823     1.5581 C.2     
  18 C18            2.2231     6.7983     4.7918 C.ar    
  19 C19            2.3768     5.4895     5.2449 C.ar    
  20 C20            2.3056     6.2692     7.5080 C.ar    
  21 C21            2.1590     7.5709     7.0637 C.ar    
  22 C22            2.1170     7.8405     5.7108 C.ar    
  23 C23            2.4175     5.2316     6.6001 C.ar    
  24 Cl24          -1.4955    -0.8821     0.0116 Cl      
  25 H25           -0.9549     1.9117     0.0170 H       
  26 H26            3.3300     1.8386    -0.0202 H       
  27 H27            3.2223    -0.6189    -0.0324 H       
  28 H28            3.0583     3.7474     0.8828 H       
  29 H29            3.0416     3.7564    -0.8970 H       
  30 H30            1.9356     9.2142     3.6061 H       
  31 H31            1.8620     9.6978     1.2104 H       
  32 H32            2.4636     4.6785     4.5370 H       
  33 H33            2.3379     6.0628     8.5676 H       
  34 H34            2.0716     8.3773     7.7769 H       
  35 H35            2.0025     8.8572     5.3650 H       
  36 H36            2.5366     4.2176     6.9525 H       
@<TRIPOS>BOND
   1    1    2 ar
   2    1    3 ar
   3    1   25 1
   4    2   24 1
   5    2    6 ar
   6    3    4 ar
   7    3    7 1
   8    4    5 ar
   9    4   26 1
  10    5    6 ar
  11    5   27 1
  12    7    8 1
  13    8    9 1
  14    8   28 1
  15    8   29 1
  16    9   10 1
  17    9   13 2
  18   10   11 1
  19   10   14 1
  20   11   12 2
  21   11   17 1
  22   12   13 1
  23   14   15 2
  24   15   16 1
  25   15   18 1
  26   16   17 2
  27   16   30 1
  28   17   31 1
  29   18   19 ar
  30   18   22 ar
  31   19   23 ar
  32   19   32 1
  33   20   21 ar
  34   20   23 ar
  35   20   33 1
  36   21   22 ar
  37   21   34 1
  38   22   35 1
  39   23   36 1

#	End of record

