#	Name: ASD01885825
#	Creating user name:	WinNT
#	Creation time:	15. 06. 2019 19:50

#	Modifying user name:	WinNT
#	Modification time:	15. 06. 2019 19:50

#	Program:	/corina/corina34_cracker 3.40 0067  02.08.2006

@<TRIPOS>MOLECULE
ASD01885825
  52   55    0    0    0
SMALL
NO_CHARGES


@<TRIPOS>ATOM
   1 C1            -0.0160     1.3285     0.0093 C.ar    
   2 C2            -1.2540     2.0208     0.0189 C.ar    
   3 C3            -2.4925     1.2420     0.0209 C.ar    
   4 C4            -2.3738    -0.1452     0.0133 C.ar    
   5 C5            -1.1016    -0.7249     0.0041 C.ar    
   6 N6             0.0021    -0.0041     0.0020 N.ar    
   7 C7             1.1280     3.4319     0.0093 C.ar    
   8 C8            -0.0910     4.1059     0.0248 C.ar    
   9 C9            -1.2693     3.4194     0.0266 C.ar    
  10 C10           -3.8131     1.8996     0.0311 C.2     
  11 C11           -0.9899    -2.2035    -0.0045 C.2     
  12 C12            2.4114     4.2217     0.0082 C.3     
  13 N13            2.8382     4.4643     1.3928 N.3     
  14 C14            1.1793     2.0719     0.0019 C.ar    
  15 N15            0.2248    -2.7874    -0.0143 N.am    
  16 O16           -1.9933    -2.8886    -0.0027 O.2     
  17 C17            4.1983     5.0208     1.4350 C.3     
  18 C18            4.5793     5.3133     2.8887 C.3     
  19 O19            4.4612     4.1134     3.6578 O.3     
  20 C20            3.1492     3.5445     3.6394 C.3     
  21 C21            2.7537     3.2341     2.1933 C.3     
  22 C22           -4.8864     1.6538    -0.7998 C.2     
  23 C23           -5.9877     2.4315    -0.5447 C.2     
  24 N24           -5.9241     3.2992     0.4222 N.2     
  25 S25           -4.3814     3.1785     1.1189 S.3     
  26 C26            6.0227     5.8175     2.9470 C.3     
  27 F27            6.1385     6.9885     2.1903 F       
  28 F28            6.3700     6.0845     4.2756 F       
  29 F29            6.8792     4.8406     2.4283 F       
  30 C30            3.1408     2.2530     4.4598 C.3     
  31 C31           -7.2424     2.2841    -1.3663 C.3     
  32 H32           -3.2563    -0.7677     0.0147 H       
  33 H33           -0.1031     5.1858     0.0359 H       
  34 H34           -2.2086     3.9524     0.0335 H       
  35 H35            3.1836     3.6595    -0.5169 H       
  36 H36            2.2507     5.1753    -0.4948 H       
  37 H37            2.1330     1.5652    -0.0092 H       
  38 H38            1.0259    -2.2405    -0.0157 H       
  39 H39            0.2979    -3.7546    -0.0200 H       
  40 H40            4.8994     4.3009     1.0127 H       
  41 H41            4.2317     5.9444     0.8571 H       
  42 H42            3.9116     6.0734     3.2941 H       
  43 H43            2.4394     4.2526     4.0668 H       
  44 H44            1.7326     2.8534     2.1689 H       
  45 H45            3.4317     2.4856     1.7832 H       
  46 H46           -4.8618     0.9126    -1.5850 H       
  47 H47            3.4261     2.4741     5.4883 H       
  48 H48            2.1406     1.8200     4.4453 H       
  49 H49            3.8495     1.5450     4.0302 H       
  50 H50           -7.8927     1.5401    -0.9062 H       
  51 H51           -7.7613     3.2415    -1.4122 H       
  52 H52           -6.9807     1.9639    -2.3749 H       
@<TRIPOS>BOND
   1    1    6 ar
   2    1   14 ar
   3    1    2 ar
   4    2    3 ar
   5    2    9 ar
   6    3   10 1
   7    3    4 ar
   8    4    5 ar
   9    4   32 1
  10    5   11 1
  11    5    6 ar
  12    7   12 1
  13    7    8 ar
  14    7   14 ar
  15    8    9 ar
  16    8   33 1
  17    9   34 1
  18   10   22 2
  19   10   25 1
  20   11   15 am
  21   11   16 2
  22   12   13 1
  23   12   35 1
  24   12   36 1
  25   13   17 1
  26   13   21 1
  27   14   37 1
  28   15   38 1
  29   15   39 1
  30   17   18 1
  31   17   40 1
  32   17   41 1
  33   18   26 1
  34   18   19 1
  35   18   42 1
  36   19   20 1
  37   20   21 1
  38   20   30 1
  39   20   43 1
  40   21   44 1
  41   21   45 1
  42   22   23 1
  43   22   46 1
  44   23   31 1
  45   23   24 2
  46   24   25 1
  47   26   27 1
  48   26   28 1
  49   26   29 1
  50   30   47 1
  51   30   48 1
  52   30   49 1
  53   31   50 1
  54   31   51 1
  55   31   52 1

#	End of record

