#	Name: ASD01917019
#	Creating user name:	WinNT
#	Creation time:	15. 06. 2019 20:08

#	Modifying user name:	WinNT
#	Modification time:	15. 06. 2019 20:08

#	Program:	/corina/corina34_cracker 3.40 0067  02.08.2006

@<TRIPOS>MOLECULE
ASD01917019
  34   36    0    0    0
SMALL
NO_CHARGES


@<TRIPOS>ATOM
   1 C1            -0.0168     1.3910     0.0097 C.ar    
   2 C2             0.0021    -0.0041     0.0020 C.ar    
   3 C3             1.2527     2.1506     0.0016 C.2     
   4 N4             1.3726     3.4628     0.0076 N.2     
   5 C5             2.6600     3.7968    -0.0030 C.2     
   6 N6             3.3865     2.7093    -0.0157 N.2     
   7 N7             2.4978     1.6219    -0.0072 N.pl3   
   8 C8             3.1966     5.2050    -0.0010 C.3     
   9 C9             4.0639     5.4186     1.2412 C.3     
  10 C10            4.0403     5.4311    -1.2571 C.3     
  11 C11            4.5850     6.8608    -1.2551 C.3     
  12 C12            5.4523     7.0744    -0.0130 C.3     
  13 C13            4.6086     6.8483     1.2432 C.3     
  14 C14           -1.1842    -0.7075     0.0091 C.ar    
  15 C15           -2.3936    -0.0309     0.0238 C.ar    
  16 C16           -2.4178     1.3547     0.0315 C.ar    
  17 C17           -1.2371     2.0674     0.0191 C.ar    
  18 F18           -3.5530    -0.7245     0.0302 F       
  19 H19            0.9441    -0.5322    -0.0098 H       
  20 H20            2.7303     0.6802    -0.0125 H       
  21 H21            2.3656     5.9104     0.0104 H       
  22 H22            3.4628     5.2575     2.1361 H       
  23 H23            4.8948     4.7132     1.2298 H       
  24 H24            4.8712     4.7257    -1.2685 H       
  25 H25            3.4223     5.2789    -2.1421 H       
  26 H26            5.1861     7.0219    -2.1500 H       
  27 H27            3.7541     7.5662    -1.2437 H       
  28 H28            6.2833     6.3690    -0.0244 H       
  29 H29            5.8404     8.0930    -0.0115 H       
  30 H30            3.7777     7.5537     1.2546 H       
  31 H31            5.2266     7.0004     2.1282 H       
  32 H32           -1.1706    -1.7874     0.0028 H       
  33 H33           -3.3629     1.8773     0.0429 H       
  34 H34           -1.2570     3.1472     0.0251 H       
@<TRIPOS>BOND
   1    1    2 ar
   2    1    3 1
   3    1   17 ar
   4    2   14 ar
   5    2   19 1
   6    3    4 2
   7    3    7 1
   8    4    5 1
   9    5    6 2
  10    5    8 1
  11    6    7 1
  12    7   20 1
  13    8    9 1
  14    8   10 1
  15    8   21 1
  16    9   13 1
  17    9   22 1
  18    9   23 1
  19   10   11 1
  20   10   24 1
  21   10   25 1
  22   11   12 1
  23   11   26 1
  24   11   27 1
  25   12   13 1
  26   12   28 1
  27   12   29 1
  28   13   30 1
  29   13   31 1
  30   14   15 ar
  31   14   32 1
  32   15   16 ar
  33   15   18 1
  34   16   17 ar
  35   16   33 1
  36   17   34 1

#	End of record

