#	Name: ASD02038573
#	Creating user name:	WinNT
#	Creation time:	15. 06. 2019 20:17

#	Modifying user name:	WinNT
#	Modification time:	15. 06. 2019 20:17

#	Program:	/corina/corina34_cracker 3.40 0067  02.08.2006

@<TRIPOS>MOLECULE
ASD02038573
  63   67    0    0    0
SMALL
NO_CHARGES


@<TRIPOS>ATOM
   1 C1            -0.0172     1.4641    -0.0077 C.3     
   2 N2             0.0026    -0.0052     0.0023 N.3     
   3 C3            -1.3592    -0.5495     0.0884 C.3     
   4 C4             0.7049    -0.5277    -1.1781 C.3     
   5 C5             2.1419    -0.0009    -1.1881 C.3     
   6 N6             2.1221     1.4685    -1.1981 N.3     
   7 C7             3.4168     1.9860    -1.2799 C.ar    
   8 C8             3.6170     3.3604    -1.3024 C.ar    
   9 C9             4.8986     3.8688    -1.3829 C.ar    
  10 C10            5.9819     3.0112    -1.4410 C.ar    
  11 C11            5.7861     1.6424    -1.4188 C.ar    
  12 C12            4.5076     1.1275    -1.3331 C.ar    
  13 C13            1.4197     1.9910    -0.0177 C.3     
  14 C14           -1.8792    -0.3986     1.5193 C.3     
  15 C15           -3.3393    -0.8515     1.5817 C.3     
  16 O16           -3.8599    -0.6022     2.8890 O.3     
  17 C17           -5.1551    -0.9495     3.1142 C.ar    
  18 C18           -5.9065    -1.5187     2.0947 C.ar    
  19 C19           -7.2221    -1.8737     2.3184 C.ar    
  20 C20           -7.7928    -1.6610     3.5635 C.ar    
  21 C21           -7.0410    -1.0896     4.5897 C.ar    
  22 C22           -5.7194    -0.7398     4.3621 C.ar    
  23 N23           -9.0636    -1.9051     4.0890 N.am    
  24 O24           -1.0927    -1.2041     2.3994 O.3     
  25 C25            7.3788     3.5695    -1.5293 C.3     
  26 C26           -9.0566    -1.4930     5.3722 C.2     
  27 O27           -7.8450    -1.0027     5.6777 O.3     
  28 O28          -10.0015    -1.5556     6.1350 O.2     
  29 C29            7.9296     3.7670    -0.1405 C.ar    
  30 C30            8.6254     2.7456     0.4788 C.ar    
  31 C31            7.7437     4.9714     0.5120 C.ar    
  32 C32            8.2489     5.1525     1.7859 C.ar    
  33 C33            8.9395     4.1290     2.4075 C.ar    
  34 C34            9.1306     2.9267     1.7527 C.ar    
  35 H35           -0.5393     1.8147    -0.8980 H       
  36 H36           -0.5314     1.8270     0.8823 H       
  37 H37           -2.0117    -0.0055    -0.5946 H       
  38 H38           -1.3466    -1.6048    -0.1843 H       
  39 H39            0.7172    -1.6170    -1.1414 H       
  40 H40            0.1911    -0.1997    -2.0817 H       
  41 H41            2.6639    -0.3515    -0.2978 H       
  42 H42            2.6560    -0.3637    -2.0781 H       
  43 H43            2.7714     4.0307    -1.2574 H       
  44 H44            5.0549     4.9372    -1.4008 H       
  45 H45            6.6343     0.9755    -1.4644 H       
  46 H46            4.3554     0.0584    -1.3155 H       
  47 H47            1.4074     3.0803    -0.0544 H       
  48 H48            1.9336     1.6630     0.8859 H       
  49 H49           -1.8095     0.6459     1.8230 H       
  50 H50           -3.9232    -0.2977     0.8465 H       
  51 H51           -3.3986    -1.9179     1.3643 H       
  52 H52           -5.4612    -1.6838     1.1247 H       
  53 H53           -7.8056    -2.3160     1.5245 H       
  54 H54           -5.1329    -0.2969     5.1535 H       
  55 H55           -9.8139    -2.2988     3.6168 H       
  56 H56           -1.1081    -2.1477     2.1882 H       
  57 H57            8.0144     2.8734    -2.0766 H       
  58 H58            7.3553     4.5267    -2.0503 H       
  59 H59            8.7741     1.8060    -0.0326 H       
  60 H60            7.2042     5.7710     0.0263 H       
  61 H61            8.1043     6.0938     2.2954 H       
  62 H62            9.3345     4.2707     3.4027 H       
  63 H63            9.6701     2.1271     2.2384 H       
@<TRIPOS>BOND
   1    1    2 1
   2    1   13 1
   3    1   35 1
   4    1   36 1
   5    2    3 1
   6    2    4 1
   7    3   14 1
   8    3   37 1
   9    3   38 1
  10    4    5 1
  11    4   39 1
  12    4   40 1
  13    5    6 1
  14    5   41 1
  15    5   42 1
  16    6    7 1
  17    6   13 1
  18    7    8 ar
  19    7   12 ar
  20    8    9 ar
  21    8   43 1
  22    9   10 ar
  23    9   44 1
  24   10   11 ar
  25   10   25 1
  26   11   12 ar
  27   11   45 1
  28   12   46 1
  29   13   47 1
  30   13   48 1
  31   14   15 1
  32   14   24 1
  33   14   49 1
  34   15   16 1
  35   15   50 1
  36   15   51 1
  37   16   17 1
  38   17   18 ar
  39   17   22 ar
  40   18   19 ar
  41   18   52 1
  42   19   20 ar
  43   19   53 1
  44   20   21 ar
  45   20   23 1
  46   21   22 ar
  47   21   27 1
  48   22   54 1
  49   23   26 am
  50   23   55 1
  51   24   56 1
  52   25   29 1
  53   25   57 1
  54   25   58 1
  55   26   27 1
  56   26   28 2
  57   29   30 ar
  58   29   31 ar
  59   30   34 ar
  60   30   59 1
  61   31   32 ar
  62   31   60 1
  63   32   33 ar
  64   32   61 1
  65   33   34 ar
  66   33   62 1
  67   34   63 1

#	End of record

