#	Name: ASD01915867
#	Creating user name:	WinNT
#	Creation time:	15. 06. 2019 20:06

#	Modifying user name:	WinNT
#	Modification time:	15. 06. 2019 20:06

#	Program:	/corina/corina34_cracker 3.40 0067  02.08.2006

@<TRIPOS>MOLECULE
ASD01915867
  47   51    0    0    0
SMALL
NO_CHARGES


@<TRIPOS>ATOM
   1 C1            -0.0166     1.3728     0.0096 C.2     
   2 N2             0.0021    -0.0041     0.0020 N.pl3   
   3 C3            -1.2434    -0.7807    -0.0179 C.3     
   4 C4            -2.3411     0.0067     0.6955 C.3     
   5 N5            -2.4044     1.3988     0.2637 N.am    
   6 C6            -1.2812     2.1228     0.0392 C.2     
   7 C7             1.2845     1.7904    -0.0006 C.2     
   8 C8             2.0437     0.6124    -0.0024 C.2     
   9 N9             1.2133    -0.4042     0.0045 N.2     
  10 C10            3.5483     0.5277    -0.0111 C.3     
  11 O11            4.0995     1.8461    -0.0175 O.3     
  12 C12            5.4547     1.9482    -0.0257 C.ar    
  13 O13           -1.3170     3.3271    -0.1285 O.2     
  14 C14            6.0573     3.1978    -0.0322 C.ar    
  15 C15            6.2377     0.8030    -0.0220 C.ar    
  16 C16            7.6150     0.9094    -0.0305 C.ar    
  17 C17            8.2132     2.1560    -0.0427 C.ar    
  18 C18            7.4350     3.2988    -0.0407 C.ar    
  19 C19           -3.6514     1.9991     0.0774 C.ar    
  20 C20           -4.2865     1.9439    -1.1813 C.ar    
  21 C21           -5.5518     2.5592    -1.3481 C.ar    
  22 C22           -6.1521     3.2142    -0.2573 C.ar    
  23 C23           -5.5147     3.2521     0.9475 C.ar    
  24 C24           -4.2746     2.6454     1.1230 C.ar    
  25 C25           -3.6882     1.2915    -2.2709 C.ar    
  26 C26           -4.3296     1.2581    -3.4714 C.ar    
  27 C27           -5.5739     1.8634    -3.6364 C.ar    
  28 C28           -6.1840     2.5039    -2.6020 C.ar    
  29 F29           -7.3581     3.8053    -0.4035 F       
  30 H30           -1.5404    -0.9656    -1.0502 H       
  31 H31           -1.0875    -1.7313     0.4922 H       
  32 H32           -3.3017    -0.4680     0.4955 H       
  33 H33           -2.1536    -0.0209     1.7688 H       
  34 H34            1.6486     2.8071    -0.0066 H       
  35 H35            3.8874    -0.0036     0.8781 H       
  36 H36            3.8769    -0.0078    -0.9018 H       
  37 H37            5.4499     4.0908    -0.0310 H       
  38 H38            5.7710    -0.1709    -0.0121 H       
  39 H39            8.2251     0.0183    -0.0272 H       
  40 H40            9.2901     2.2371    -0.0493 H       
  41 H41            7.9046     4.2714    -0.0506 H       
  42 H42           -5.9818     3.7571     1.7801 H       
  43 H43           -3.7906     2.6897     2.0875 H       
  44 H44           -2.7239     0.8187    -2.1575 H       
  45 H45           -3.8671     0.7555    -4.3080 H       
  46 H46           -6.0616     1.8233    -4.5993 H       
  47 H47           -7.1487     2.9683    -2.7444 H       
@<TRIPOS>BOND
   1    1    2 1
   2    1    7 2
   3    1    6 1
   4    2    3 1
   5    2    9 1
   6    3    4 1
   7    3   30 1
   8    3   31 1
   9    4    5 1
  10    4   32 1
  11    4   33 1
  12    5    6 am
  13    5   19 1
  14    6   13 2
  15    7    8 1
  16    7   34 1
  17    8    9 2
  18    8   10 1
  19   10   11 1
  20   10   35 1
  21   10   36 1
  22   11   12 1
  23   12   14 ar
  24   12   15 ar
  25   14   18 ar
  26   14   37 1
  27   15   16 ar
  28   15   38 1
  29   16   17 ar
  30   16   39 1
  31   17   18 ar
  32   17   40 1
  33   18   41 1
  34   19   20 ar
  35   19   24 ar
  36   20   21 ar
  37   20   25 ar
  38   21   22 ar
  39   21   28 ar
  40   22   23 ar
  41   22   29 1
  42   23   24 ar
  43   23   42 1
  44   24   43 1
  45   25   26 ar
  46   25   44 1
  47   26   27 ar
  48   26   45 1
  49   27   28 ar
  50   27   46 1
  51   28   47 1

#	End of record

