#	Name: ASD03430225
#	Creating user name:	WinNT
#	Creation time:	15. 06. 2019 20:40

#	Modifying user name:	WinNT
#	Modification time:	15. 06. 2019 20:40

#	Program:	/corina/corina34_cracker 3.40 0067  02.08.2006

@<TRIPOS>MOLECULE
ASD03430225
  70   76    0    0    0
SMALL
NO_CHARGES


@<TRIPOS>ATOM
   1 C1            -0.0166     1.3731     0.0096 C.ar    
   2 C2             0.0021    -0.0041     0.0020 C.ar    
   3 C3             1.2042    -0.6801    -0.0037 C.ar    
   4 C4             2.4064     0.0226     0.0069 C.ar    
   5 C5             2.3789     1.4121     0.0039 C.ar    
   6 C6             1.1699     2.0972     0.0022 C.ar    
   7 O7             3.4725    -0.8269     0.0325 O.3     
   8 C8             1.5601    -2.1417    -0.0330 C.3     
   9 C9             3.0504    -2.1336    -0.4017 C.3     
  10 C10            0.4369    -3.8650     1.0109 C.ar    
  11 C11            1.3140    -2.8180     1.2832 C.ar    
  12 C12            0.7430    -2.9080    -1.0329 C.2     
  13 N13            0.1236    -3.8915    -0.3499 N.am    
  14 O14            0.6571    -2.6857    -2.2222 O.2     
  15 C15            1.7632    -2.5964     2.5654 C.ar    
  16 C16            1.3449    -3.4168     3.5984 C.ar    
  17 C17            0.4739    -4.4591     3.3397 C.ar    
  18 C18            0.0205    -4.6852     2.0566 C.ar    
  19 C19           -1.1514     2.3780     0.0353 C.3     
  20 C20           -0.4169     3.6802     0.4334 C.3     
  21 O21            0.9269     3.4375    -0.0164 O.3     
  22 C22           -0.7732    -4.8739    -0.9637 C.3     
  23 C23           -2.1860    -4.3503    -0.9365 C.ar    
  24 C24           -2.6621    -3.5989    -1.9913 C.ar    
  25 C25           -3.0046    -4.6288     0.1433 C.ar    
  26 C26           -4.3034    -4.1522     0.1759 C.ar    
  27 C27           -4.7901    -3.3958    -0.8698 C.ar    
  28 C28           -3.9709    -3.1151    -1.9647 C.ar    
  29 C29           -4.4860    -2.3051    -3.0891 C.2     
  30 O30           -3.7704    -2.0622    -4.0411 O.2     
  31 N31           -5.7491    -1.8358    -3.0585 N.am    
  32 C32           -6.2595    -1.0331    -4.1726 C.3     
  33 C33           -7.7080    -0.6301    -3.8892 C.3     
  34 C34           -7.7511     0.2946    -2.6710 C.3     
  35 C35           -9.1996     0.6976    -2.3877 C.3     
  36 C36           -8.2812     0.1009    -5.1050 C.3     
  37 C37           -9.7297     0.5039    -4.8216 C.3     
  38 C38           -9.7728     1.4286    -3.6034 C.3     
  39 H39           -0.9264    -0.5557     0.0009 H       
  40 H40            3.3066     1.9651     0.0036 H       
  41 H41            3.1836    -2.2456    -1.4777 H       
  42 H42            3.5871    -2.9132     0.1390 H       
  43 H43            2.4432    -1.7815     2.7654 H       
  44 H44            1.6983    -3.2437     4.6042 H       
  45 H45            0.1473    -5.0993     4.1458 H       
  46 H46           -0.6595    -5.5014     1.8622 H       
  47 H47           -1.6088     2.4743    -0.9494 H       
  48 H48           -1.8955     2.1061     0.7839 H       
  49 H49           -0.8473     4.5392    -0.0813 H       
  50 H50           -0.4426     3.8232     1.5137 H       
  51 H51           -0.4699    -5.0476    -1.9962 H       
  52 H52           -0.7219    -5.8100    -0.4076 H       
  53 H53           -2.0232    -3.3853    -2.8355 H       
  54 H54           -2.6286    -5.2212     0.9643 H       
  55 H55           -4.9373    -4.3732     1.0219 H       
  56 H56           -5.8041    -3.0248    -0.8433 H       
  57 H57           -6.3202    -2.0296    -2.2987 H       
  58 H58           -5.6485    -0.1375    -4.2850 H       
  59 H59           -6.2183    -1.6186    -5.0911 H       
  60 H60           -8.3009    -1.5226    -3.6891 H       
  61 H61           -7.3428    -0.2262    -1.8049 H       
  62 H62           -7.1582     1.1870    -2.8712 H       
  63 H63           -9.7926    -0.1949    -2.1875 H       
  64 H64           -9.2304     1.3564    -1.5198 H       
  65 H65           -7.6882     0.9934    -5.3051 H       
  66 H66           -8.2504    -0.5578    -5.9728 H       
  67 H67          -10.1380     1.0247    -5.6877 H       
  68 H68          -10.3226    -0.3885    -4.6215 H       
  69 H69          -10.8047     1.7157    -3.4015 H       
  70 H70           -9.1799     2.3211    -3.8035 H       
@<TRIPOS>BOND
   1    1    2 ar
   2    1    6 ar
   3    1   19 1
   4    2    3 ar
   5    2   39 1
   6    3    4 ar
   7    3    8 1
   8    4    5 ar
   9    4    7 1
  10    5    6 ar
  11    5   40 1
  12    6   21 1
  13    7    9 1
  14    8    9 1
  15    8   11 1
  16    8   12 1
  17    9   41 1
  18    9   42 1
  19   10   11 ar
  20   10   13 1
  21   10   18 ar
  22   11   15 ar
  23   12   13 am
  24   12   14 2
  25   13   22 1
  26   15   16 ar
  27   15   43 1
  28   16   17 ar
  29   16   44 1
  30   17   18 ar
  31   17   45 1
  32   18   46 1
  33   19   20 1
  34   19   47 1
  35   19   48 1
  36   20   21 1
  37   20   49 1
  38   20   50 1
  39   22   23 1
  40   22   51 1
  41   22   52 1
  42   23   24 ar
  43   23   25 ar
  44   24   28 ar
  45   24   53 1
  46   25   26 ar
  47   25   54 1
  48   26   27 ar
  49   26   55 1
  50   27   28 ar
  51   27   56 1
  52   28   29 1
  53   29   30 2
  54   29   31 am
  55   31   32 1
  56   31   57 1
  57   32   33 1
  58   32   58 1
  59   32   59 1
  60   33   36 1
  61   33   34 1
  62   33   60 1
  63   34   35 1
  64   34   61 1
  65   34   62 1
  66   35   38 1
  67   35   63 1
  68   35   64 1
  69   36   37 1
  70   36   65 1
  71   36   66 1
  72   37   38 1
  73   37   67 1
  74   37   68 1
  75   38   69 1
  76   38   70 1

#	End of record

