#	Name: ASD01231368
#	Creating user name:	WinNT
#	Creation time:	15. 06. 2019 19:15

#	Modifying user name:	WinNT
#	Modification time:	15. 06. 2019 19:15

#	Program:	/corina/corina34_cracker 3.40 0067  02.08.2006

@<TRIPOS>MOLECULE
ASD01231368
  57   60    0    0    0
SMALL
NO_CHARGES


@<TRIPOS>ATOM
   1 N1             0.2165     0.4257    -0.8297 N.pl3   
   2 N2             0.2317     1.4557     0.1197 N.2     
   3 C3             1.4631     1.6126     0.5329 C.2     
   4 C4             2.2705     0.6890    -0.1390 C.2     
   5 C5             1.4796    -0.0281    -0.9704 C.2     
   6 S6             4.0102     0.4941     0.0615 S.o2    
   7 O7             4.3951    -0.5752    -0.7917 O.2     
   8 O8             4.5723     1.7965    -0.0228 O.2     
   9 N9             4.2696    -0.0278     1.6115 N.am    
  10 C10            1.9309     2.6156     1.5558 C.3     
  11 F11            0.8266     3.2938     2.0828 F       
  12 F12            2.6053     1.9513     2.5858 F       
  13 F13            2.7950     3.5329     0.9482 F       
  14 C14           -0.9632    -0.0748    -1.5396 C.3     
  15 C15            4.9060    -2.4032     1.9095 C.3     
  16 C16            3.7878    -1.3462     2.0308 C.3     
  17 C17            3.4795    -1.3623     3.5431 C.3     
  18 C18            3.8682    -2.7481     4.0119 C.ar    
  19 C19            3.5312    -3.4317     5.1683 C.ar    
  20 C20            4.0115    -4.7081     5.3861 C.ar    
  21 C21            4.8313    -5.3063     4.4472 C.ar    
  22 C22            5.1684    -4.6262     3.2935 C.ar    
  23 C23            4.6878    -3.3461     3.0733 C.ar    
  24 C24            3.6418    -5.4483     6.6457 C.3     
  25 C25            2.3780    -6.2355     6.4132 C.ar    
  26 C26            2.4489    -7.5348     5.9461 C.ar    
  27 C27            1.2898    -8.2568     5.7328 C.ar    
  28 C28            0.0594    -7.6798     5.9870 C.ar    
  29 C29           -0.0115    -6.3812     6.4548 C.ar    
  30 C30            1.1481    -5.6605     6.6722 C.ar    
  31 C31           -1.3527    -5.7521     6.7314 C.3     
  32 F32           -2.3673    -6.6705     6.4412 F       
  33 F33           -1.4268    -5.3857     8.0795 F       
  34 F34           -1.5090    -4.6159     5.9301 F       
  35 C35            1.3671    -9.6727     5.2227 C.3     
  36 O36            1.4410   -10.5742     6.3290 O.3     
  37 H37            1.8016    -0.8214    -1.6287 H       
  38 H38            4.7407     0.5394     2.2418 H       
  39 H39           -1.0969     0.4877    -2.4637 H       
  40 H40           -0.8258    -1.1305    -1.7735 H       
  41 H41           -1.8446     0.0461    -0.9099 H       
  42 H42            4.8175    -2.9407     0.9654 H       
  43 H43            5.8845    -1.9290     1.9853 H       
  44 H44            2.9115    -1.6413     1.4536 H       
  45 H45            4.0744    -0.6081     4.0583 H       
  46 H46            2.4171    -1.1891     3.7144 H       
  47 H47            2.8912    -2.9649     5.9024 H       
  48 H48            5.2080    -6.3043     4.6161 H       
  49 H49            5.8088    -5.0942     2.5605 H       
  50 H50            4.4489    -6.1287     6.9173 H       
  51 H51            3.4816    -4.7339     7.4532 H       
  52 H52            3.4101    -7.9856     5.7475 H       
  53 H53           -0.8464    -8.2437     5.8196 H       
  54 H54            1.0929    -4.6470     7.0413 H       
  55 H55            0.4787    -9.8950     4.6316 H       
  56 H56            2.2551    -9.7870     4.6010 H       
  57 H57            1.4933   -11.5056     6.0746 H       
@<TRIPOS>BOND
   1    1    2 1
   2    1    5 1
   3    1   14 1
   4    2    3 2
   5    3    4 1
   6    3   10 1
   7    4    5 2
   8    4    6 1
   9    5   37 1
  10    6    7 2
  11    6    8 2
  12    6    9 am
  13    9   16 1
  14    9   38 1
  15   10   11 1
  16   10   12 1
  17   10   13 1
  18   14   39 1
  19   14   40 1
  20   14   41 1
  21   15   16 1
  22   15   23 1
  23   15   42 1
  24   15   43 1
  25   16   17 1
  26   16   44 1
  27   17   18 1
  28   17   45 1
  29   17   46 1
  30   18   19 ar
  31   18   23 ar
  32   19   20 ar
  33   19   47 1
  34   20   21 ar
  35   20   24 1
  36   21   22 ar
  37   21   48 1
  38   22   23 ar
  39   22   49 1
  40   24   25 1
  41   24   50 1
  42   24   51 1
  43   25   26 ar
  44   25   30 ar
  45   26   27 ar
  46   26   52 1
  47   27   28 ar
  48   27   35 1
  49   28   29 ar
  50   28   53 1
  51   29   30 ar
  52   29   31 1
  53   30   54 1
  54   31   32 1
  55   31   33 1
  56   31   34 1
  57   35   36 1
  58   35   55 1
  59   35   56 1
  60   36   57 1

#	End of record

