#	Name: ASD03180032
#	Creating user name:	WinNT
#	Creation time:	15. 06. 2019 20:33

#	Modifying user name:	WinNT
#	Modification time:	15. 06. 2019 20:33

#	Program:	/corina/corina34_cracker 3.40 0067  02.08.2006

@<TRIPOS>MOLECULE
ASD03180032
  51   53    0    0    0
SMALL
NO_CHARGES


@<TRIPOS>ATOM
   1 C1             7.2872     3.9298     1.8219 C.ar    
   2 C2             7.0019     5.2647     2.0471 C.ar    
   3 C3             5.7792     5.7848     1.6616 C.ar    
   4 C4             4.8435     4.9707     1.0518 C.ar    
   5 C5             5.1291     3.6369     0.8269 C.ar    
   6 C6             6.3507     3.1166     1.2119 C.ar    
   7 S7             3.9355     2.5995     0.0499 S.o2    
   8 O8             2.6623     3.1441     0.3687 O.2     
   9 N9             4.1233     2.7761    -1.5859 N.am    
  10 O10            4.3072     1.2622     0.3544 O.2     
  11 C11            3.2949     3.7367    -2.3188 C.3     
  12 C12            5.1178     1.9717    -2.3001 C.3     
  13 C13            4.4413     0.7844    -2.9353 C.ar    
  14 C14            4.0389     5.0401    -2.4556 C.2     
  15 N15            3.4679     6.0778    -3.0986 N.am    
  16 C16            4.1966     7.2549    -3.3147 C.ar    
  17 O17            5.1517     5.1553    -1.9869 O.2     
  18 C18            4.0015     0.8577    -4.2438 C.ar    
  19 C19            3.3808    -0.2314    -4.8264 C.ar    
  20 C20            3.2004    -1.3940    -4.1008 C.ar    
  21 C21            3.6410    -1.4677    -2.7926 C.ar    
  22 C22            4.2655    -0.3801    -2.2113 C.ar    
  23 C23            3.9870     8.0038    -4.4707 C.ar    
  24 C24            4.7099     9.1666    -4.6797 C.ar    
  25 C25            5.6379     9.5823    -3.7425 C.ar    
  26 C26            5.8472     8.8393    -2.5945 C.ar    
  27 C27            5.1242     7.6804    -2.3757 C.ar    
  28 Cl28           8.1774     6.2865     2.8137 Cl      
  29 Cl29           7.0142     9.3666    -1.4223 Cl      
  30 O30            3.0748     7.5937    -5.3922 O.3     
  31 C31            2.9127     8.4112    -6.5530 C.3     
  32 H32            8.2432     3.5243     2.1185 H       
  33 H33            5.5558     6.8267     1.8376 H       
  34 H34            3.8889     5.3765     0.7511 H       
  35 H35            6.5733     2.0746     1.0360 H       
  36 H36            3.0700     3.3411    -3.3093 H       
  37 H37            2.3654     3.9043    -1.7748 H       
  38 H38            5.5884     2.5786    -3.0737 H       
  39 H39            5.8766     1.6252    -1.5985 H       
  40 H40            2.5524     6.0098    -3.4119 H       
  41 H41            4.1425     1.7661    -4.8107 H       
  42 H42            3.0366    -0.1738    -5.8485 H       
  43 H43            2.7149    -2.2447    -4.5558 H       
  44 H44            3.4998    -2.3760    -2.2256 H       
  45 H45            4.6131    -0.4389    -1.1905 H       
  46 H46            4.5490     9.7487    -5.5750 H       
  47 H47            6.2008    10.4891    -3.9074 H       
  48 H48            5.2856     7.1046    -1.4764 H       
  49 H49            2.1572     7.9717    -7.2044 H       
  50 H50            2.5968     9.4102    -6.2527 H       
  51 H51            3.8605     8.4753    -7.0875 H       
@<TRIPOS>BOND
   1    1    2 ar
   2    1    6 ar
   3    1   32 1
   4    2    3 ar
   5    2   28 1
   6    3    4 ar
   7    3   33 1
   8    4    5 ar
   9    4   34 1
  10    5    6 ar
  11    5    7 1
  12    6   35 1
  13    7    8 2
  14    7    9 am
  15    7   10 2
  16    9   11 1
  17    9   12 1
  18   11   14 1
  19   11   36 1
  20   11   37 1
  21   12   13 1
  22   12   38 1
  23   12   39 1
  24   13   18 ar
  25   13   22 ar
  26   14   15 am
  27   14   17 2
  28   15   16 1
  29   15   40 1
  30   16   23 ar
  31   16   27 ar
  32   18   19 ar
  33   18   41 1
  34   19   20 ar
  35   19   42 1
  36   20   21 ar
  37   20   43 1
  38   21   22 ar
  39   21   44 1
  40   22   45 1
  41   23   24 ar
  42   23   30 1
  43   24   25 ar
  44   24   46 1
  45   25   26 ar
  46   25   47 1
  47   26   27 ar
  48   26   29 1
  49   27   48 1
  50   30   31 1
  51   31   49 1
  52   31   50 1
  53   31   51 1

#	End of record

