#	Name: ASD01890022
#	Creating user name:	WinNT
#	Creation time:	15. 06. 2019 19:50

#	Modifying user name:	WinNT
#	Modification time:	15. 06. 2019 19:50

#	Program:	/corina/corina34_cracker 3.40 0067  02.08.2006

@<TRIPOS>MOLECULE
ASD01890022
 118  120    0    0    0
SMALL
NO_CHARGES


@<TRIPOS>ATOM
   1 C1            -0.1481     2.9986     0.8396 C.3     
   2 C2            -0.7187     1.6109     0.6995 C.2     
   3 N3            -0.5800     0.7209     1.7020 N.am    
   4 C4            -1.1347    -0.6282     1.5658 C.3     
   5 C5            -0.3728    -1.5768     2.4552 C.2     
   6 N6            -0.7095    -2.8812     2.4942 N.am    
   7 C7             1.3539     2.9642     0.5500 C.3     
   8 N8            -0.8101     3.8989    -0.1140 N.3     
   9 C9             1.9558     4.3459     0.8130 C.3     
  10 C10            3.4578     4.3115     0.5234 C.3     
  11 N11            4.0342     5.6346     0.7753 N.pl3   
  12 C12            5.3787     5.8467     0.5820 C.2     
  13 N13            5.9197     7.0884     0.8184 N.pl3   
  14 N14            6.1406     4.8708     0.1747 N.2     
  15 O15           -1.3027     1.2950    -0.3154 O.2     
  16 C16           -2.6087    -0.6174     1.9758 C.3     
  17 C17           -3.3921     0.2351     1.0112 C.ar    
  18 C18           -3.9493    -0.3352    -0.1184 C.ar    
  19 C19           -4.6680     0.4441    -1.0042 C.ar    
  20 C20           -4.8304     1.8000    -0.7596 C.ar    
  21 C21           -4.2703     2.3698     0.3746 C.ar    
  22 C22           -3.5573     1.5851     1.2602 C.ar    
  23 O23           -5.5365     2.5688    -1.6297 O.3     
  24 O24            0.5433    -1.1663     3.1357 O.2     
  25 C25            0.0311    -3.8033     3.3588 C.3     
  26 C26           -0.5475    -3.7608     4.7505 C.2     
  27 N27           -1.5091    -4.6250     5.1066 N.am    
  28 C28           -1.9330    -5.8241     4.3644 C.3     
  29 C29           -1.5219    -5.7140     2.9031 C.3     
  30 C30           -0.0782    -5.2228     2.8012 C.3     
  31 C31           -2.3828    -4.5392     6.2875 C.3     
  32 C32           -3.6884    -5.2788     5.9330 C.3     
  33 C33           -3.4727    -5.8078     4.4945 C.3     
  34 O34           -0.1421    -2.9436     5.5497 O.2     
  35 C35           -1.7199    -5.2015     7.4677 C.2     
  36 O36           -0.6216    -5.7010     7.3448 O.2     
  37 N37           -2.3476    -5.2387     8.6598 N.am    
  38 C38           -1.7032    -5.8825     9.8072 C.3     
  39 C39           -1.9885    -7.3854     9.7752 C.3     
  40 C40           -2.2472    -5.2950    11.0838 C.2     
  41 C41           -1.3288    -8.0036     8.5410 C.3     
  42 N42           -1.7970    -5.7372    12.2747 N.am    
  43 O43           -3.0902    -4.4241    11.0396 O.2     
  44 C44           -2.2427    -5.0917    13.5119 C.3     
  45 C45           -2.1838    -6.0832    14.6453 C.2     
  46 C46           -1.3300    -3.9044    13.8252 C.3     
  47 O47           -1.7883    -7.2119    14.4436 O.2     
  48 N48           -2.5707    -5.7158    15.8829 N.am    
  49 C49            0.1242    -4.3777    13.8732 C.3     
  50 C50            1.0527    -3.1648    13.9608 C.3     
  51 C51            0.3305    -5.2676    15.1006 C.3     
  52 C52           -2.5135    -6.6797    16.9847 C.3     
  53 C53           -2.3887    -5.9411    18.2923 C.2     
  54 C54           -3.7919    -7.5203    16.9938 C.3     
  55 O55           -2.3512    -4.7289    18.3029 O.2     
  56 N56           -2.3187    -6.6277    19.4500 N.am    
  57 C57           -1.6097    -9.4838     8.5095 C.2     
  58 O58           -2.2699    -9.9922     9.3845 O.2     
  59 O59           -1.1266   -10.2376     7.5094 O.3     
  60 H60           -0.3142     3.3590     1.8548 H       
  61 H61           -0.1129     0.9735     2.5137 H       
  62 H62           -1.0483    -0.9536     0.5291 H       
  63 H63           -1.4422    -3.2095     1.9499 H       
  64 H64            1.8322     2.2301     1.1984 H       
  65 H65            1.5167     2.6893    -0.4921 H       
  66 H66           -0.6707     3.5861    -1.0631 H       
  67 H67           -1.7928     3.9891     0.0964 H       
  68 H68            1.4775     5.0800     0.1646 H       
  69 H69            1.7930     4.6208     1.8551 H       
  70 H70            3.9361     3.5774     1.1718 H       
  71 H71            3.6206     4.0366    -0.5187 H       
  72 H72            3.4672     6.3609     1.0784 H       
  73 H73            5.3527     7.8147     1.1215 H       
  74 H74            6.8683     7.2381     0.6820 H       
  75 H75            7.0892     5.0205     0.0384 H       
  76 H76           -2.9977    -1.6354     1.9598 H       
  77 H77           -2.7030    -0.2082     2.9817 H       
  78 H78           -3.8223    -1.3907    -0.3086 H       
  79 H79           -5.1027    -0.0017    -1.8866 H       
  80 H80           -4.3953     3.4251     0.5672 H       
  81 H81           -3.1211     2.0282     2.1432 H       
  82 H82           -6.4814     2.6213    -1.4308 H       
  83 H83            1.0794    -3.5066     3.3923 H       
  84 H84           -1.5075    -6.7217     4.8133 H       
  85 H85           -1.6053    -6.6921     2.4293 H       
  86 H86           -2.1806    -5.0102     2.3942 H       
  87 H87            0.2321    -5.2257     1.7563 H       
  88 H88            0.5711    -5.8868     3.3717 H       
  89 H89           -2.5967    -3.4954     6.5174 H       
  90 H90           -3.8523    -6.1083     6.6209 H       
  91 H91           -4.5330    -4.5904     5.9606 H       
  92 H92           -3.9149    -5.1308     3.7636 H       
  93 H93           -3.8801    -6.8131     4.3874 H       
  94 H94           -3.2260    -4.8392     8.7581 H       
  95 H95           -0.6270    -5.7159     9.7602 H       
  96 H96           -1.5851    -7.8509    10.6745 H       
  97 H97           -3.0651    -7.5500     9.7326 H       
  98 H98           -1.7322    -7.5380     7.6417 H       
  99 H99           -0.2521    -7.8390     8.5836 H       
 100 H100          -1.1778    -6.4829    12.3125 H       
 101 H101          -3.2672    -4.7401    13.3896 H       
 102 H102          -1.4401    -3.1468    13.0492 H       
 103 H103          -1.6057    -3.4788    14.7901 H       
 104 H104          -2.8871    -4.8131    16.0442 H       
 105 H105           0.3516    -4.9450    12.9707 H       
 106 H106           0.8252    -2.5975    14.8633 H       
 107 H107           2.0886    -3.5020    13.9950 H       
 108 H108           0.9056    -2.5308    13.0864 H       
 109 H109          -0.1387    -4.8042    15.9684 H       
 110 H110          -0.1204    -6.2437    14.9216 H       
 111 H111           1.3978    -5.3889    15.2861 H       
 112 H112          -1.6505    -7.3322    16.8521 H       
 113 H113          -4.6548    -6.8678    17.1263 H       
 114 H114          -3.8822    -8.0545    16.0479 H       
 115 H115          -3.7493    -8.2375    17.8135 H       
 116 H116          -2.3486    -7.5972    19.4415 H       
 117 H117          -2.2383    -6.1523    20.2917 H       
 118 H118          -1.3331   -11.1820     7.5322 H       
@<TRIPOS>BOND
   1    1    2 1
   2    1    7 1
   3    1    8 1
   4    1   60 1
   5    2    3 am
   6    2   15 2
   7    3    4 1
   8    3   61 1
   9    4    5 1
  10    4   16 1
  11    4   62 1
  12    5    6 am
  13    5   24 2
  14    6   25 1
  15    6   63 1
  16    7    9 1
  17    7   64 1
  18    7   65 1
  19    8   66 1
  20    8   67 1
  21    9   10 1
  22    9   68 1
  23    9   69 1
  24   10   11 1
  25   10   70 1
  26   10   71 1
  27   11   12 1
  28   11   72 1
  29   12   13 1
  30   12   14 2
  31   13   73 1
  32   13   74 1
  33   14   75 1
  34   16   17 1
  35   16   76 1
  36   16   77 1
  37   17   18 ar
  38   17   22 ar
  39   18   19 ar
  40   18   78 1
  41   19   20 ar
  42   19   79 1
  43   20   21 ar
  44   20   23 1
  45   21   22 ar
  46   21   80 1
  47   22   81 1
  48   23   82 1
  49   25   26 1
  50   25   30 1
  51   25   83 1
  52   26   27 am
  53   26   34 2
  54   27   28 1
  55   27   31 1
  56   28   29 1
  57   28   33 1
  58   28   84 1
  59   29   30 1
  60   29   85 1
  61   29   86 1
  62   30   87 1
  63   30   88 1
  64   31   32 1
  65   31   35 1
  66   31   89 1
  67   32   33 1
  68   32   90 1
  69   32   91 1
  70   33   92 1
  71   33   93 1
  72   35   36 2
  73   35   37 am
  74   37   38 1
  75   37   94 1
  76   38   39 1
  77   38   40 1
  78   38   95 1
  79   39   41 1
  80   39   96 1
  81   39   97 1
  82   40   42 am
  83   40   43 2
  84   41   57 1
  85   41   98 1
  86   41   99 1
  87   42   44 1
  88   42  100 1
  89   44   45 1
  90   44   46 1
  91   44  101 1
  92   45   47 2
  93   45   48 am
  94   46   49 1
  95   46  102 1
  96   46  103 1
  97   48   52 1
  98   48  104 1
  99   49   50 1
 100   49   51 1
 101   49  105 1
 102   50  106 1
 103   50  107 1
 104   50  108 1
 105   51  109 1
 106   51  110 1
 107   51  111 1
 108   52   53 1
 109   52   54 1
 110   52  112 1
 111   53   55 2
 112   53   56 am
 113   54  113 1
 114   54  114 1
 115   54  115 1
 116   56  116 1
 117   56  117 1
 118   57   58 2
 119   57   59 1
 120   59  118 1

#	End of record

