#	Name: ASD05720279
#	Creating user name:	WinNT
#	Creation time:	15. 06. 2019 21:02

#	Modifying user name:	WinNT
#	Modification time:	15. 06. 2019 21:02

#	Program:	/corina/corina34_cracker 3.40 0067  02.08.2006

@<TRIPOS>MOLECULE
ASD05720279
  40   40    0    0    0
SMALL
NO_CHARGES


@<TRIPOS>ATOM
   1 N1            -0.0179     1.4673     0.0101 N.am    
   2 C2             0.0021    -0.0041     0.0020 C.3     
   3 C3             0.9224    -0.4689    -1.1324 C.3     
   4 O4             2.1889     0.1826    -1.0079 O.3     
   5 C5             2.1299     1.6055    -1.1328 C.3     
   6 C6             1.2714     2.1765     0.0016 C.3     
   7 C7            -1.1826     2.1453     0.0194 C.2     
   8 O8            -2.2371     1.5415     0.0211 O.2     
   9 O9            -1.1778     3.4916     0.0266 O.3     
  10 C10            1.1163    -1.9840    -1.0449 C.3     
  11 O11            1.8778    -2.4325    -2.1678 O.3     
  12 S12            2.1326    -3.9329    -2.1836 S.o2    
  13 O13            3.1022    -4.1129    -3.2067 O.2     
  14 O14            2.4271    -4.2526    -0.8307 O.2     
  15 C15            0.5442    -4.6566    -2.6775 C.3     
  16 C16           -2.4692     4.1554     0.0364 C.3     
  17 C17           -3.2465     3.7403     1.2871 C.3     
  18 C18           -2.2633     5.6715     0.0437 C.3     
  19 C19           -3.2585     3.7539    -1.2113 C.3     
  20 H20            0.3808    -0.3713     0.9558 H       
  21 H21           -1.0060    -0.3840    -0.1641 H       
  22 H22            0.4743    -0.2133    -2.0926 H       
  23 H23            3.1367     2.0185    -1.0707 H       
  24 H24            1.6862     1.8686    -2.0930 H       
  25 H25            1.1039     3.2407    -0.1647 H       
  26 H26            1.7779     2.0288     0.9554 H       
  27 H27            1.6465    -2.2299    -0.1248 H       
  28 H28            0.1434    -2.4755    -1.0460 H       
  29 H29            0.2642    -4.2810    -3.6617 H       
  30 H30            0.6356    -5.7421    -2.7154 H       
  31 H31           -0.2216    -4.3815    -1.9522 H       
  32 H32           -2.6843     4.0264     2.1760 H       
  33 H33           -4.2160     4.2386     1.2945 H       
  34 H34           -3.3932     2.6602     1.2820 H       
  35 H35           -1.7095     5.9672    -0.8474 H       
  36 H36           -3.2327     6.1698     0.0510 H       
  37 H37           -1.7010     5.9575     0.9325 H       
  38 H38           -3.4051     2.6738    -1.2164 H       
  39 H39           -4.2279     4.2522    -1.2039 H       
  40 H40           -2.7047     4.0496    -2.1023 H       
@<TRIPOS>BOND
   1    1    2 1
   2    1    6 1
   3    1    7 am
   4    2    3 1
   5    2   20 1
   6    2   21 1
   7    3    4 1
   8    3   10 1
   9    3   22 1
  10    4    5 1
  11    5    6 1
  12    5   23 1
  13    5   24 1
  14    6   25 1
  15    6   26 1
  16    7    8 2
  17    7    9 1
  18    9   16 1
  19   10   11 1
  20   10   27 1
  21   10   28 1
  22   11   12 1
  23   12   13 2
  24   12   14 2
  25   12   15 1
  26   15   29 1
  27   15   30 1
  28   15   31 1
  29   16   17 1
  30   16   19 1
  31   16   18 1
  32   17   32 1
  33   17   33 1
  34   17   34 1
  35   18   35 1
  36   18   36 1
  37   18   37 1
  38   19   38 1
  39   19   39 1
  40   19   40 1

#	End of record

