#	Name: ASD02508190
#	Creating user name:	WinNT
#	Creation time:	15. 06. 2019 20:23

#	Modifying user name:	WinNT
#	Modification time:	15. 06. 2019 20:23

#	Program:	/corina/corina34_cracker 3.40 0067  02.08.2006

@<TRIPOS>MOLECULE
ASD02508190
  53   56    0    0    0
SMALL
NO_CHARGES


@<TRIPOS>ATOM
   1 C1             0.6178     1.4137     0.6257 C.ar    
   2 C2             0.5077     0.0320     0.4715 C.ar    
   3 C3            -0.7382    -0.5395     0.2653 C.ar    
   4 C4            -1.8630     0.2604     0.2137 C.ar    
   5 C5            -1.7527     1.6316     0.3664 C.ar    
   6 C6            -0.5160     2.2096     0.5777 C.ar    
   7 S7            -3.4457    -0.4682    -0.0485 S.o2    
   8 N8            -4.0714    -0.8306     1.4413 N.am    
   9 C9            -4.8897     0.1497     2.1682 C.3     
  10 N10            1.9723     1.6870     0.8143 N.am    
  11 C11            2.6322     0.5126     0.7725 C.2     
  12 O12            1.7574    -0.4845     0.5669 O.3     
  13 O13           -4.2717     0.5518    -0.5933 O.2     
  14 O14           -3.2131    -1.7100    -0.6989 O.2     
  15 O15            3.8337     0.3772     0.9012 O.2     
  16 C16           -4.2974     0.3456     3.5674 C.3     
  17 O17           -6.2134     1.6879     3.8787 O.2     
  18 C18           -5.1980     1.2459     4.3732 C.2     
  19 C19           -4.1793    -1.0130     4.2619 C.3     
  20 C20           -3.2389    -1.9170     3.4615 C.3     
  21 C21           -3.8239    -2.1406     2.0587 C.3     
  22 N22           -4.8750     1.5600     5.6435 N.am    
  23 C23           -5.6581     2.4722     6.3594 C.ar    
  24 C24           -7.0339     2.5062     6.1713 C.ar    
  25 C25           -5.0623     3.3414     7.2635 C.ar    
  26 C26           -5.8382     4.2407     7.9687 C.ar    
  27 C27           -7.2068     4.2756     7.7753 C.ar    
  28 C28           -7.8040     3.4076     6.8793 C.ar    
  29 C29           -9.2960     3.4491     6.6717 C.3     
  30 C30           -8.0503     5.2577     8.5467 C.3     
  31 H31           -0.8292    -1.6089     0.1449 H       
  32 H32           -2.6364     2.2510     0.3242 H       
  33 H33           -0.4318     3.2797     0.6971 H       
  34 H34           -4.8841     1.0991     1.6328 H       
  35 H35           -5.9121    -0.2187     2.2525 H       
  36 H36            2.3673     2.5624     0.9506 H       
  37 H37           -3.3095     0.7987     3.4840 H       
  38 H38           -3.7811    -0.8737     5.2669 H       
  39 H39           -5.1640    -1.4765     4.3227 H       
  40 H40           -2.2610    -1.4426     3.3792 H       
  41 H41           -3.1369    -2.8762     3.9691 H       
  42 H42           -4.7584    -2.6962     2.1368 H       
  43 H43           -3.1130    -2.7009     1.4515 H       
  44 H44           -4.0996     1.1537     6.0614 H       
  45 H45           -7.5008     1.8286     5.4718 H       
  46 H46           -3.9934     3.3141     7.4155 H       
  47 H47           -5.3754     4.9171     8.6720 H       
  48 H48           -9.5320     4.1494     5.8704 H       
  49 H49           -9.6531     2.4551     6.4024 H       
  50 H50           -9.7821     3.7729     7.5920 H       
  51 H51           -8.1303     6.1881     7.9845 H       
  52 H52           -9.0451     4.8397     8.7009 H       
  53 H53           -7.5857     5.4557     9.5126 H       
@<TRIPOS>BOND
   1    1    2 ar
   2    1   10 1
   3    1    6 ar
   4    2    3 ar
   5    2   12 1
   6    3    4 ar
   7    3   31 1
   8    4    5 ar
   9    4    7 1
  10    5    6 ar
  11    5   32 1
  12    6   33 1
  13    7    8 am
  14    7   13 2
  15    7   14 2
  16    8    9 1
  17    8   21 1
  18    9   16 1
  19    9   34 1
  20    9   35 1
  21   10   11 am
  22   10   36 1
  23   11   12 1
  24   11   15 2
  25   16   19 1
  26   16   18 1
  27   16   37 1
  28   17   18 2
  29   18   22 am
  30   19   20 1
  31   19   38 1
  32   19   39 1
  33   20   21 1
  34   20   40 1
  35   20   41 1
  36   21   42 1
  37   21   43 1
  38   22   23 1
  39   22   44 1
  40   23   24 ar
  41   23   25 ar
  42   24   28 ar
  43   24   45 1
  44   25   26 ar
  45   25   46 1
  46   26   27 ar
  47   26   47 1
  48   27   28 ar
  49   27   30 1
  50   28   29 1
  51   29   48 1
  52   29   49 1
  53   29   50 1
  54   30   51 1
  55   30   52 1
  56   30   53 1

#	End of record

