#	Name: ASD09310004
#	Creating user name:	WinNT
#	Creation time:	15. 06. 2019 21:21

#	Modifying user name:	WinNT
#	Modification time:	15. 06. 2019 21:21

#	Program:	/corina/corina34_cracker 3.40 0067  02.08.2006

@<TRIPOS>MOLECULE
ASD09310004
  41   44    0    0    0
SMALL
NO_CHARGES


@<TRIPOS>ATOM
   1 C1             1.5229     3.7171     2.0154 C.3     
   2 C2             1.6428     2.6877     0.8724 C.3     
   3 C3             0.8715     1.4445     1.3530 C.3     
   4 C4            -0.1526     1.9411     2.3907 C.3     
   5 C5             0.3325     3.2984     2.8684 C.3     
   6 C6             2.7125     3.7144     2.9249 C.2     
   7 O7             2.3671     3.1589     4.1010 O.3     
   8 C8             0.9227     3.2437     4.2998 C.3     
   9 O9             0.5985     4.5521     4.8621 O.3     
  10 C10           -0.5097     5.0476     4.2930 C.2     
  11 C11           -0.7612     4.3551     2.9682 C.3     
  12 O12           -1.2042     5.9160     4.7656 O.2     
  13 O13           -2.0505     3.7387     2.9658 O.3     
  14 C14           -0.2208     0.9655     3.5673 C.3     
  15 O15            0.1966     0.8307     0.2530 O.3     
  16 C16            1.3082     5.0412     1.2844 C.3     
  17 C17            0.9720     4.6414    -0.1390 C.2     
  18 O18            0.9182     3.3044    -0.2353 O.3     
  19 O19            0.7815     5.4117    -1.0502 O.2     
  20 O20            3.8077     4.1425     2.6471 O.2     
  21 C21            1.1914     0.7023     4.0940 C.3     
  22 C22           -1.0764     1.5703     4.6823 C.3     
  23 C23           -0.8454    -0.3515     3.1024 C.3     
  24 H24            2.6795     2.4605     0.6239 H       
  25 H25            1.5576     0.7339     1.8139 H       
  26 H26           -1.1350     2.0377     1.9284 H       
  27 H27            0.5303     2.4142     4.8880 H       
  28 H28           -0.6780     5.0663     2.1463 H       
  29 H29           -2.7835     4.3596     3.0765 H       
  30 H30            0.7873     0.5181    -0.4459 H       
  31 H31            0.4798     5.5917     1.7304 H       
  32 H32            2.2190     5.6396     1.3062 H       
  33 H33            1.8551     1.5041     3.7705 H       
  34 H34            1.1717     0.6641     5.1832 H       
  35 H35            1.5534    -0.2488     3.7036 H       
  36 H36           -2.1243     1.3242     4.5102 H       
  37 H37           -0.7610     1.1641     5.6433 H       
  38 H38           -0.9537     2.6533     4.6877 H       
  39 H39           -0.2359    -0.7823     2.3081 H       
  40 H40           -0.8940    -1.0465     3.9407 H       
  41 H41           -1.8515    -0.1639     2.7272 H       
@<TRIPOS>BOND
   1    1    2 1
   2    1    6 1
   3    1   16 1
   4    1    5 1
   5    2    3 1
   6    2   18 1
   7    2   24 1
   8    3   15 1
   9    3    4 1
  10    3   25 1
  11    4    5 1
  12    4   14 1
  13    4   26 1
  14    5    8 1
  15    5   11 1
  16    6    7 1
  17    6   20 2
  18    7    8 1
  19    8    9 1
  20    8   27 1
  21    9   10 1
  22   10   11 1
  23   10   12 2
  24   11   13 1
  25   11   28 1
  26   13   29 1
  27   14   21 1
  28   14   22 1
  29   14   23 1
  30   15   30 1
  31   16   17 1
  32   16   31 1
  33   16   32 1
  34   17   18 1
  35   17   19 2
  36   21   33 1
  37   21   34 1
  38   21   35 1
  39   22   36 1
  40   22   37 1
  41   22   38 1
  42   23   39 1
  43   23   40 1
  44   23   41 1

#	End of record

