#	Name: ASD01916490
#	Creating user name:	WinNT
#	Creation time:	15. 06. 2019 20:07

#	Modifying user name:	WinNT
#	Modification time:	15. 06. 2019 20:07

#	Program:	/corina/corina34_cracker 3.40 0067  02.08.2006

@<TRIPOS>MOLECULE
ASD01916490
  45   48    0    0    0
SMALL
NO_CHARGES


@<TRIPOS>ATOM
   1 C1            -0.0171     1.4100     0.0098 C.ar    
   2 C2             0.0021    -0.0041     0.0020 C.ar    
   3 C3            -1.1912    -0.7255     0.0414 C.ar    
   4 C4            -2.3838    -0.0642     0.0741 C.ar    
   5 C5            -2.4215     1.3385     0.0663 C.ar    
   6 C6            -1.2407     2.0764     0.0357 C.ar    
   7 N7             1.1598     2.0754     0.0021 N.2     
   8 C8             2.3197     1.4679    -0.0397 C.2     
   9 N9             2.4200     0.1197    -0.1575 N.am    
  10 C10            1.3104    -0.6628    -0.0625 C.2     
  11 C11           -3.6829     2.0160     0.0899 C.1     
  12 C12           -4.7170     2.5714     0.1093 C.1     
  13 C13           -5.9784     3.2489     0.1330 C.ar    
  14 N14           -6.0122     4.5752     0.1256 N.ar    
  15 C15           -7.1605     5.2388     0.1468 C.ar    
  16 C16           -8.3769     4.5563     0.1779 C.ar    
  17 C17           -8.3776     3.1693     0.1864 C.ar    
  18 C18           -7.1642     2.5057     0.1580 C.ar    
  19 O19            1.4017    -1.8763    -0.0316 O.2     
  20 C20            3.5357     2.3453     0.1020 C.3     
  21 C21            4.7921     1.6928    -0.4308 C.3     
  22 C22            4.8965     0.2363    -0.0271 C.3     
  23 C23            3.6795    -0.5617    -0.4368 C.3     
  24 C24            4.7904     1.7857    -1.9580 C.3     
  25 C25            6.0097     2.4460     0.1086 C.3     
  26 C26           -7.1516     6.6707     0.1383 C.1     
  27 N27           -7.1445     7.8067     0.1315 N.1     
  28 H28           -1.1708    -1.8053     0.0456 H       
  29 H29           -3.3065    -0.6247     0.1059 H       
  30 H30           -1.2730     3.1559     0.0324 H       
  31 H31           -9.3086     5.1023     0.1954 H       
  32 H32           -9.3064     2.6188     0.2107 H       
  33 H33           -7.1319     1.4262     0.1634 H       
  34 H34            3.3642     3.2746    -0.4412 H       
  35 H35            3.6804     2.5783     1.1569 H       
  36 H36            5.7787    -0.1982    -0.4972 H       
  37 H37            5.0098     0.1771     1.0554 H       
  38 H38            3.6887    -1.5120     0.0969 H       
  39 H39            3.7379    -0.7638    -1.5063 H       
  40 H40            4.7638     2.8332    -2.2583 H       
  41 H41            5.6928     1.3177    -2.3515 H       
  42 H42            3.9134     1.2723    -2.3523 H       
  43 H43            6.0080     2.4067     1.1979 H       
  44 H44            6.9207     1.9827    -0.2703 H       
  45 H45            5.9679     3.4852    -0.2175 H       
@<TRIPOS>BOND
   1    1    2 ar
   2    1    7 1
   3    1    6 ar
   4    2    3 ar
   5    2   10 1
   6    3    4 ar
   7    3   28 1
   8    4    5 ar
   9    4   29 1
  10    5    6 ar
  11    5   11 1
  12    6   30 1
  13    7    8 2
  14    8    9 1
  15    8   20 1
  16    9   10 am
  17    9   23 1
  18   10   19 2
  19   11   12 3
  20   12   13 1
  21   13   14 ar
  22   13   18 ar
  23   14   15 ar
  24   15   26 1
  25   15   16 ar
  26   16   17 ar
  27   16   31 1
  28   17   18 ar
  29   17   32 1
  30   18   33 1
  31   20   21 1
  32   20   34 1
  33   20   35 1
  34   21   22 1
  35   21   24 1
  36   21   25 1
  37   22   23 1
  38   22   36 1
  39   22   37 1
  40   23   38 1
  41   23   39 1
  42   24   40 1
  43   24   41 1
  44   24   42 1
  45   25   43 1
  46   25   44 1
  47   25   45 1
  48   26   27 3

#	End of record

