#	Name: ASD01420048
#	Creating user name:	WinNT
#	Creation time:	15. 06. 2019 19:20

#	Modifying user name:	WinNT
#	Modification time:	15. 06. 2019 19:20

#	Program:	/corina/corina34_cracker 3.40 0067  02.08.2006

@<TRIPOS>MOLECULE
ASD01420048
  51   53    0    0    0
SMALL
NO_CHARGES


@<TRIPOS>ATOM
   1 C1            -0.0178     1.4625     0.0101 C.2     
   2 C2             0.0021    -0.0041     0.0020 C.ar    
   3 C3             1.2272    -0.6939    -0.0134 C.ar    
   4 C4             1.2327    -2.0778    -0.0209 C.ar    
   5 C5             0.0328    -2.7749    -0.0132 C.ar    
   6 C6            -1.1785    -2.0889     0.0020 C.ar    
   7 C7            -1.1992    -0.7242     0.0154 C.ar    
   8 O8             1.0251     2.0837     0.0035 O.2     
   9 Cl9           -1.5329     2.3100     0.0219 Cl      
  10 C10           -2.4746    -2.8577     0.0097 C.3     
  11 C11           -3.2695    -2.5047     1.2685 C.3     
  12 C12           -3.2928    -2.4904    -1.2299 C.3     
  13 O13            0.0401    -4.1316    -0.0211 O.3     
  14 C14            1.3168    -4.7734    -0.0372 C.3     
  15 C15            1.1275    -6.2684    -0.0439 C.ar    
  16 C16            1.0291    -6.9473    -1.2441 C.ar    
  17 C17            0.8554    -8.3186    -1.2503 C.ar    
  18 C18            0.7806    -9.0112    -0.0563 C.ar    
  19 C19            0.8800    -8.3325     1.1439 C.ar    
  20 C20            1.0580    -6.9617     1.1500 C.ar    
  21 O21            2.3967    -0.0071    -0.0213 O.3     
  22 C22            3.6007    -0.7765    -0.0369 C.3     
  23 C23            4.7890     0.1503    -0.0437 C.ar    
  24 C24            5.3457     0.5693     1.1502 C.ar    
  25 C25            6.4356     1.4195     1.1439 C.ar    
  26 C26            6.9692     1.8503    -0.0563 C.ar    
  27 C27            6.4132     1.4306    -1.2502 C.ar    
  28 C28            5.3259     0.5770    -1.2440 C.ar    
  29 H29            2.1697    -2.6147    -0.0331 H       
  30 H30           -2.1428    -0.1991     0.0321 H       
  31 H31           -2.2629    -3.9269     0.0016 H       
  32 H32           -3.4812    -1.4355     1.2766 H       
  33 H33           -4.2070    -3.0608     1.2740 H       
  34 H34           -2.6866    -2.7664     2.1515 H       
  35 H35           -3.5045    -1.4211    -1.2218 H       
  36 H36           -2.7265    -2.7418    -2.1266 H       
  37 H37           -4.2303    -3.0464    -1.2243 H       
  38 H38            1.8636    -4.4723    -0.9308 H       
  39 H39            1.8809    -4.4826     0.8490 H       
  40 H40            1.0875    -6.4061    -2.1769 H       
  41 H41            0.7777    -8.8489    -2.1879 H       
  42 H42            0.6442   -10.0826    -0.0611 H       
  43 H43            0.8212    -8.8736     2.0767 H       
  44 H44            1.1393    -6.4319     2.0876 H       
  45 H45            3.6389    -1.4096     0.8496 H       
  46 H46            3.6216    -1.4006    -0.9303 H       
  47 H47            4.9288     0.2327     2.0879 H       
  48 H48            6.8701     1.7474     2.0768 H       
  49 H49            7.8204     2.5151    -0.0612 H       
  50 H50            6.8299     1.7675    -2.1879 H       
  51 H51            4.8937     0.2461    -2.1768 H       
@<TRIPOS>BOND
   1    1    2 1
   2    1    8 2
   3    1    9 1
   4    2    3 ar
   5    2    7 ar
   6    3    4 ar
   7    3   21 1
   8    4    5 ar
   9    4   29 1
  10    5    6 ar
  11    5   13 1
  12    6    7 ar
  13    6   10 1
  14    7   30 1
  15   10   11 1
  16   10   12 1
  17   10   31 1
  18   11   32 1
  19   11   33 1
  20   11   34 1
  21   12   35 1
  22   12   36 1
  23   12   37 1
  24   13   14 1
  25   14   15 1
  26   14   38 1
  27   14   39 1
  28   15   16 ar
  29   15   20 ar
  30   16   17 ar
  31   16   40 1
  32   17   18 ar
  33   17   41 1
  34   18   19 ar
  35   18   42 1
  36   19   20 ar
  37   19   43 1
  38   20   44 1
  39   21   22 1
  40   22   23 1
  41   22   45 1
  42   22   46 1
  43   23   24 ar
  44   23   28 ar
  45   24   25 ar
  46   24   47 1
  47   25   26 ar
  48   25   48 1
  49   26   27 ar
  50   26   49 1
  51   27   28 ar
  52   27   50 1
  53   28   51 1

#	End of record

