#	Name: ASD02198475
#	Creating user name:	WinNT
#	Creation time:	15. 06. 2019 20:19

#	Modifying user name:	WinNT
#	Modification time:	15. 06. 2019 20:19

#	Program:	/corina/corina34_cracker 3.40 0067  02.08.2006

@<TRIPOS>MOLECULE
ASD02198475
  38   41    0    0    0
SMALL
NO_CHARGES


@<TRIPOS>ATOM
   1 C1             0.0829     1.0111    -0.1352 C.2     
   2 C2             0.3412    -0.3180    -0.2208 C.2     
   3 N3             1.6127    -0.7784    -0.2225 N.pl3   
   4 N4             2.6386    -0.0137    -0.1455 N.2     
   5 C5             2.5301     1.2944    -0.0582 C.2     
   6 C6             1.1859     1.8944    -0.0486 C.2     
   7 C7             1.8190    -2.1590    -0.3125 C.ar    
   8 C8             3.3037    -4.0266    -0.5618 C.ar    
   9 C9             2.2253    -4.8910    -0.4912 C.ar    
  10 C10            0.9446    -4.3924    -0.3369 C.ar    
  11 C11            0.7383    -3.0300    -0.2474 C.ar    
  12 C12            3.7344     2.1451     0.0295 C.2     
  13 N13            4.8701     1.8739     0.7397 N.pl3   
  14 N14            5.7581     2.9396     0.5474 N.2     
  15 C15            5.1948     3.8199    -0.2411 C.2     
  16 C16            3.9266     3.3584    -0.5939 C.2     
  17 C17            5.1039     0.7346     1.5202 C.ar    
  18 C18            4.1031     0.2395     2.3459 C.ar    
  19 O19            1.0287     3.1035     0.0303 O.2     
  20 C20            3.1036    -2.6617    -0.4728 C.ar    
  21 C21            6.3350     0.0944     1.4657 C.ar    
  22 C22            6.5622    -1.0290     2.2362 C.ar    
  23 C23            5.5653    -1.5165     3.0614 C.ar    
  24 C24            4.3365    -0.8844     3.1139 C.ar    
  25 Cl25           4.9095    -4.6570    -0.7556 Cl      
  26 H26           -0.9309     1.3834    -0.1375 H       
  27 H27           -0.4791    -1.0173    -0.2881 H       
  28 H28            2.3842    -5.9573    -0.5568 H       
  29 H29            0.1052    -5.0697    -0.2821 H       
  30 H30           -0.2622    -2.6418    -0.1265 H       
  31 H31            5.6401     4.7480    -0.5679 H       
  32 H32            3.2199     3.8645    -1.2349 H       
  33 H33            3.1433     0.7330     2.3876 H       
  34 H34            3.9452    -1.9871    -0.5283 H       
  35 H35            7.1138     0.4745     0.8212 H       
  36 H36            7.5193    -1.5275     2.1940 H       
  37 H37            5.7453    -2.3954     3.6627 H       
  38 H38            3.5601    -1.2673     3.7596 H       
@<TRIPOS>BOND
   1    1    2 2
   2    1    6 1
   3    1   26 1
   4    2    3 1
   5    2   27 1
   6    3    4 1
   7    3    7 1
   8    4    5 2
   9    5    6 1
  10    5   12 1
  11    6   19 2
  12    7   20 ar
  13    7   11 ar
  14    8    9 ar
  15    8   25 1
  16    8   20 ar
  17    9   10 ar
  18    9   28 1
  19   10   11 ar
  20   10   29 1
  21   11   30 1
  22   12   13 1
  23   12   16 2
  24   13   14 1
  25   13   17 1
  26   14   15 2
  27   15   16 1
  28   15   31 1
  29   16   32 1
  30   17   21 ar
  31   17   18 ar
  32   18   24 ar
  33   18   33 1
  34   20   34 1
  35   21   22 ar
  36   21   35 1
  37   22   23 ar
  38   22   36 1
  39   23   24 ar
  40   23   37 1
  41   24   38 1

#	End of record

