#	Name: ASD01200231
#	Creating user name:	WinNT
#	Creation time:	15. 06. 2019 19:08

#	Modifying user name:	WinNT
#	Modification time:	15. 06. 2019 19:08

#	Program:	/corina/corina34_cracker 3.40 0067  02.08.2006

@<TRIPOS>MOLECULE
ASD01200231
  47   49    0    0    0
SMALL
NO_CHARGES


@<TRIPOS>ATOM
   1 C1             0.5685     1.0298    -0.0313 C.ar    
   2 C2             0.3639    -0.3379    -0.0085 C.ar    
   3 C3            -0.9223    -0.8446    -0.0133 C.ar    
   4 C4            -2.0045     0.0150    -0.0407 C.ar    
   5 C5            -1.8018     1.3823    -0.0635 C.ar    
   6 C6            -0.5158     1.8910    -0.0531 C.ar    
   7 C7            -1.1448    -2.3348     0.0111 C.3     
   8 C8            -1.9467    -2.7105     1.2587 C.3     
   9 C9            -1.9083    -2.7490    -1.2204 C.2     
  10 N10           -2.0912    -4.0563    -1.4921 N.am    
  11 O11           -2.3582    -1.9057    -1.9671 O.2     
  12 C12           -1.1114    -2.4227     2.5078 C.3     
  13 C13           -2.7112    -4.4402    -2.6754 C.2     
  14 C14           -1.9522    -2.6695     3.7726 C.3     
  15 C15           -1.2366    -3.7813     4.5674 C.3     
  16 C16            0.2342    -3.7045     4.0881 C.3     
  17 C17            0.0858    -3.3931     2.5781 C.3     
  18 Cl18           2.1835     1.6666    -0.0254 Cl      
  19 Cl19          -0.2607     3.6079    -0.0816 Cl      
  20 S20           -3.0067    -6.0570    -3.1464 S.3     
  21 C21           -3.7554    -5.4963    -4.6393 C.2     
  22 C22           -3.7151    -4.1625    -4.6468 C.2     
  23 N23           -3.1545    -3.6244    -3.5799 N.2     
  24 C24           -4.3393    -6.3703    -5.7193 C.3     
  25 C25           -4.2698    -3.3372    -5.7793 C.3     
  26 H26            1.2090    -1.0100     0.0126 H       
  27 H27           -3.0089    -0.3819    -0.0447 H       
  28 H28           -2.6478     2.0533    -0.0853 H       
  29 H29           -0.1820    -2.8456     0.0305 H       
  30 H30           -2.8640    -2.1226     1.2916 H       
  31 H31           -2.1959    -3.7711     1.2247 H       
  32 H32           -1.7902    -4.7294    -0.8617 H       
  33 H33           -0.7569    -1.3921     2.4902 H       
  34 H34           -2.0051    -1.7589     4.3694 H       
  35 H35           -2.9554    -2.9944     3.4966 H       
  36 H36           -1.2997    -3.5860     5.6379 H       
  37 H37           -1.6647    -4.7554     4.3306 H       
  38 H38            0.7651    -2.9005     4.5979 H       
  39 H39            0.7397    -4.6585     4.2379 H       
  40 H40           -0.1287    -4.3045     2.0199 H       
  41 H41            0.9878    -2.9145     2.1968 H       
  42 H42           -4.2298    -7.4176    -5.4378 H       
  43 H43           -5.3965    -6.1362    -5.8441 H       
  44 H44           -3.8138    -6.1892    -6.6569 H       
  45 H45           -5.3171    -3.1080    -5.5828 H       
  46 H46           -3.7043    -2.4092    -5.8634 H       
  47 H47           -4.1890    -3.8976    -6.7107 H       
@<TRIPOS>BOND
   1    1    2 ar
   2    1   18 1
   3    1    6 ar
   4    2    3 ar
   5    2   26 1
   6    3    4 ar
   7    3    7 1
   8    4    5 ar
   9    4   27 1
  10    5    6 ar
  11    5   28 1
  12    6   19 1
  13    7    8 1
  14    7    9 1
  15    7   29 1
  16    8   12 1
  17    8   30 1
  18    8   31 1
  19    9   10 am
  20    9   11 2
  21   10   13 1
  22   10   32 1
  23   12   14 1
  24   12   17 1
  25   12   33 1
  26   13   20 1
  27   13   23 2
  28   14   15 1
  29   14   34 1
  30   14   35 1
  31   15   16 1
  32   15   36 1
  33   15   37 1
  34   16   17 1
  35   16   38 1
  36   16   39 1
  37   17   40 1
  38   17   41 1
  39   20   21 1
  40   21   22 2
  41   21   24 1
  42   22   23 1
  43   22   25 1
  44   24   42 1
  45   24   43 1
  46   24   44 1
  47   25   45 1
  48   25   46 1
  49   25   47 1

#	End of record

