#	Name: ASD05380296
#	Creating user name:	WinNT
#	Creation time:	15. 06. 2019 20:59

#	Modifying user name:	WinNT
#	Modification time:	15. 06. 2019 20:59

#	Program:	/corina/corina34_cracker 3.40 0067  02.08.2006

@<TRIPOS>MOLECULE
ASD05380296
  42   44    0    0    0
SMALL
NO_CHARGES


@<TRIPOS>ATOM
   1 C1            -0.0167     1.3832     0.0096 C.ar    
   2 C2             0.0021    -0.0041     0.0020 C.ar    
   3 C3             1.1951    -0.6967    -0.0157 C.ar    
   4 C4             2.3963     0.0060    -0.0264 C.ar    
   5 C5             2.3719     1.4201    -0.0131 C.ar    
   6 C6             1.1628     2.1012     0.0022 C.ar    
   7 N7             3.6086    -0.6126    -0.0557 N.2     
   8 C8             4.7036     0.0489     0.1667 C.2     
   9 O9             4.7247     1.3619     0.4542 O.3     
  10 C10            3.6795     2.1041    -0.0114 C.2     
  11 C11            1.1374     3.6079     0.0103 C.3     
  12 N12            3.8265     3.3410    -0.4295 N.2     
  13 C13            6.0145    -0.6914     0.0997 C.3     
  14 C14            6.7796    -0.4934     1.4098 C.3     
  15 C15            5.0616     3.9282    -0.4072 C.ar    
  16 C16            5.5103     4.6611    -1.5086 C.ar    
  17 C17            5.8780     3.8027     0.7195 C.ar    
  18 C18            7.1222     4.3979     0.7351 C.ar    
  19 C19            7.5622     5.1180    -0.3616 C.ar    
  20 C20            6.7567     5.2509    -1.4789 C.ar    
  21 O21            6.8048    -0.1773    -1.0047 O.3     
  22 O22            7.7192    -2.1778    -1.2175 O.2     
  23 C23            7.6458    -1.0352    -1.6034 C.2     
  24 C24            8.4985    -0.5732    -2.7569 C.3     
  25 H25           -0.9618     1.9060     0.0169 H       
  26 H26           -0.9301    -0.5493     0.0104 H       
  27 H27            1.1969    -1.7767    -0.0209 H       
  28 H28            1.1212     3.9765    -1.0154 H       
  29 H29            0.2465     3.9535     0.5347 H       
  30 H30            2.0261     3.9836     0.5174 H       
  31 H31            5.8245    -1.7537    -0.0531 H       
  32 H32            6.1864    -0.8793     2.2388 H       
  33 H33            7.7278    -1.0289     1.3613 H       
  34 H34            6.9697     0.5689     1.5626 H       
  35 H35            4.8828     4.7653    -2.3814 H       
  36 H36            5.5357     3.2413     1.5762 H       
  37 H37            7.7543     4.3021     1.6056 H       
  38 H38            8.5373     5.5819    -0.3438 H       
  39 H39            7.1067     5.8140    -2.3314 H       
  40 H40            8.2962     0.4784    -2.9599 H       
  41 H41            9.5512    -0.6985    -2.5036 H       
  42 H42            8.2647    -1.1655    -3.6416 H       
@<TRIPOS>BOND
   1    1    2 ar
   2    1    6 ar
   3    1   25 1
   4    2    3 ar
   5    2   26 1
   6    3    4 ar
   7    3   27 1
   8    4    5 ar
   9    4    7 1
  10    5    6 ar
  11    5   10 1
  12    6   11 1
  13    7    8 2
  14    8   13 1
  15    8    9 1
  16    9   10 1
  17   10   12 2
  18   11   28 1
  19   11   29 1
  20   11   30 1
  21   12   15 1
  22   13   14 1
  23   13   21 1
  24   13   31 1
  25   14   32 1
  26   14   33 1
  27   14   34 1
  28   15   16 ar
  29   15   17 ar
  30   16   20 ar
  31   16   35 1
  32   17   18 ar
  33   17   36 1
  34   18   19 ar
  35   18   37 1
  36   19   20 ar
  37   19   38 1
  38   20   39 1
  39   21   23 1
  40   22   23 2
  41   23   24 1
  42   24   40 1
  43   24   41 1
  44   24   42 1

#	End of record

