#	Name: ASD03080076
#	Creating user name:	WinNT
#	Creation time:	15. 06. 2019 20:26

#	Modifying user name:	WinNT
#	Modification time:	15. 06. 2019 20:26

#	Program:	/corina/corina34_cracker 3.40 0067  02.08.2006

@<TRIPOS>MOLECULE
ASD03080076
  26   28    0    0    0
SMALL
NO_CHARGES


@<TRIPOS>ATOM
   1 O1            -0.0144     1.2085     0.0087 O.3     
   2 N2             0.0021    -0.0041     0.0020 N.2     
   3 C3             1.2351    -0.4419    -0.0121 C.2     
   4 N4             2.0457     0.6371    -0.0141 N.2     
   5 C5             1.2409     1.6829    -0.0008 C.2     
   6 C6             2.9949     3.4591    -0.0085 C.ar    
   7 C7             1.6450     3.1050     0.0030 C.ar    
   8 C8             0.6802     4.1189     0.0177 C.ar    
   9 C9             1.1109     5.4342     0.0202 C.ar    
  10 C10            2.4677     5.7023     0.0082 C.ar    
  11 N11            3.3549     4.7257    -0.0055 N.ar    
  12 C12            1.6632    -1.8629    -0.0238 C.ar    
  13 C13            0.7105    -2.8797    -0.0207 C.ar    
  14 C14            1.1127    -4.1993    -0.0316 C.ar    
  15 C15            2.4620    -4.5142    -0.0451 C.ar    
  16 C16            3.4128    -3.5062    -0.0478 C.ar    
  17 C17            3.0191    -2.1839    -0.0437 C.ar    
  18 F18            2.8518    -5.8077    -0.0553 F       
  19 H19            3.7507     2.6878    -0.0154 H       
  20 H20           -0.3732     3.8810     0.0266 H       
  21 H21            0.3950     6.2427     0.0311 H       
  22 H22            2.8065     6.7277     0.0098 H       
  23 H23           -0.3414    -2.6351    -0.0094 H       
  24 H24            0.3749    -4.9880    -0.0292 H       
  25 H25            4.4635    -3.7559    -0.0577 H       
  26 H26            3.7607    -1.3988    -0.0507 H       
@<TRIPOS>BOND
   1    1    2 1
   2    1    5 1
   3    2    3 2
   4    3    4 1
   5    3   12 1
   6    4    5 2
   7    5    7 1
   8    6    7 ar
   9    6   11 ar
  10    6   19 1
  11    7    8 ar
  12    8    9 ar
  13    8   20 1
  14    9   10 ar
  15    9   21 1
  16   10   11 ar
  17   10   22 1
  18   12   13 ar
  19   12   17 ar
  20   13   14 ar
  21   13   23 1
  22   14   15 ar
  23   14   24 1
  24   15   16 ar
  25   15   18 1
  26   16   17 ar
  27   16   25 1
  28   17   26 1

#	End of record

