#	Name: ASD05313174
#	Creating user name:	WinNT
#	Creation time:	15. 06. 2019 20:58

#	Modifying user name:	WinNT
#	Modification time:	15. 06. 2019 20:58

#	Program:	/corina/corina34_cracker 3.40 0067  02.08.2006

@<TRIPOS>MOLECULE
ASD05313174
  38   41    0    0    0
SMALL
NO_CHARGES


@<TRIPOS>ATOM
   1 C1            -0.0724     0.8195     1.0216 C.2     
   2 C2             0.1133    -0.6172     0.5951 C.3     
   3 N3             0.9307     1.7326     1.0477 N.pl3   
   4 N4             1.4567    -0.7175    -0.0059 N.am    
   5 C5             2.5710    -0.0360     0.6702 C.3     
   6 C6             2.3174     1.4763     0.6623 C.3     
   7 N7            -0.9037     2.6433     1.7040 N.2     
   8 N8            -1.1571     1.4112     1.4232 N.2     
   9 C9             0.3725     2.8928     1.4912 C.2     
  10 C10            1.0656     4.1827     1.6978 C.ar    
  11 C11            0.3487     5.2888     2.1609 C.ar    
  12 C12            1.0142     6.4902     2.3494 C.ar    
  13 C13            2.3719     6.5459     2.0694 C.ar    
  14 C14            3.0188     5.4114     1.6136 C.ar    
  15 N15            2.3660     4.2798     1.4471 N.ar    
  16 F16           -0.9734     5.1893     2.4206 F       
  17 C17            1.6574    -1.4141    -1.1421 C.2     
  18 O18            2.7494    -1.4042    -1.6763 O.2     
  19 C19            0.5505    -2.1896    -1.7382 C.ar    
  20 C20            0.3194    -2.1372    -3.1154 C.ar    
  21 C21           -0.7183    -2.8662    -3.6663 C.ar    
  22 C22           -1.5271    -3.6464    -2.8542 C.ar    
  23 C23           -1.3009    -3.7002    -1.4889 C.ar    
  24 C24           -0.2653    -2.9825    -0.9287 C.ar    
  25 F25           -0.9446    -2.8179    -4.9974 F       
  26 Cl26          -2.8288    -4.5592    -3.5514 Cl      
  27 Cl27           1.3317    -1.1593    -4.1315 Cl      
  28 H28            0.0435    -1.2745     1.4618 H       
  29 H29           -0.6444    -0.8879    -0.1402 H       
  30 H30            2.6422    -0.3878     1.6994 H       
  31 H31            3.5018    -0.2518     0.1457 H       
  32 H32            2.4962     1.8703    -0.3381 H       
  33 H33            2.9881     1.9618     1.3712 H       
  34 H34            0.4877     7.3631     2.7060 H       
  35 H35            2.9189     7.4671     2.2056 H       
  36 H36            4.0756     5.4532     1.3948 H       
  37 H37           -1.9350    -4.3093    -0.8617 H       
  38 H38           -0.0885    -3.0297     0.1357 H       
@<TRIPOS>BOND
   1    1    2 1
   2    1    3 1
   3    1    8 2
   4    2    4 1
   5    2   28 1
   6    2   29 1
   7    3    6 1
   8    3    9 1
   9    4    5 1
  10    4   17 am
  11    5    6 1
  12    5   30 1
  13    5   31 1
  14    6   32 1
  15    6   33 1
  16    7    8 1
  17    7    9 2
  18    9   10 1
  19   10   11 ar
  20   10   15 ar
  21   11   12 ar
  22   11   16 1
  23   12   13 ar
  24   12   34 1
  25   13   14 ar
  26   13   35 1
  27   14   15 ar
  28   14   36 1
  29   17   18 2
  30   17   19 1
  31   19   20 ar
  32   19   24 ar
  33   20   21 ar
  34   20   27 1
  35   21   22 ar
  36   21   25 1
  37   22   23 ar
  38   22   26 1
  39   23   24 ar
  40   23   37 1
  41   24   38 1

#	End of record

