#	Name: ASD01908087
#	Creating user name:	WinNT
#	Creation time:	15. 06. 2019 19:54

#	Modifying user name:	WinNT
#	Modification time:	15. 06. 2019 19:54

#	Program:	/corina/corina34_cracker 3.40 0067  02.08.2006

@<TRIPOS>MOLECULE
ASD01908087
  32   34    0    0    0
SMALL
NO_CHARGES


@<TRIPOS>ATOM
   1 S1            -0.0220     1.7596     0.0535 S.3     
   2 C2             0.0005    -0.0023     0.0408 C.2     
   3 C3             1.7384     1.7827     0.0068 C.2     
   4 N4             2.1838     0.5638    -0.0135 N.2     
   5 C5             1.2807    -0.4063     0.0039 C.2     
   6 C6             1.6590    -1.8428    -0.0156 C.2     
   7 C7             0.9884    -2.8886     0.6470 C.2     
   8 N8             1.6194    -4.0039     0.3896 N.2     
   9 N9             2.7093    -3.7166    -0.4411 N.pl3   
  10 C10            2.7154    -2.3886    -0.6834 C.2     
  11 N11            2.5256     2.9247    -0.0068 N.pl3   
  12 C12            1.9303     4.1789    -0.0993 C.ar    
  13 N13            0.6220     4.2726    -0.2798 N.ar    
  14 C14            0.0183     5.4422    -0.3728 C.ar    
  15 C15            0.7358     6.6182    -0.2849 C.ar    
  16 C16            2.1105     6.5638    -0.0956 C.ar    
  17 C17            2.7144     5.3235     0.0043 C.ar    
  18 C18            0.0345     7.9477    -0.3936 C.3     
  19 C19           -1.2088    -0.9012     0.0676 C.3     
  20 H20            0.1062    -2.7868     1.2617 H       
  21 H21            3.3477    -4.3607    -0.7853 H       
  22 H22            3.4310    -1.8543    -1.2907 H       
  23 H23            3.4911     2.8489     0.0483 H       
  24 H24           -1.0510     5.4799    -0.5200 H       
  25 H25            2.6943     7.4696    -0.0236 H       
  26 H26            3.7814     5.2445     0.1517 H       
  27 H27           -0.2747     8.2776     0.5982 H       
  28 H28            0.7138     8.6826    -0.8256 H       
  29 H29           -0.8429     7.8445    -1.0321 H       
  30 H30           -2.1130    -0.2931     0.0960 H       
  31 H31           -1.2181    -1.5245    -0.8265 H       
  32 H32           -1.1700    -1.5361     0.9527 H       
@<TRIPOS>BOND
   1    1    2 1
   2    1    3 1
   3    2   19 1
   4    2    5 2
   5    3    4 2
   6    3   11 1
   7    4    5 1
   8    5    6 1
   9    6    7 1
  10    6   10 2
  11    7    8 2
  12    7   20 1
  13    8    9 1
  14    9   10 1
  15    9   21 1
  16   10   22 1
  17   11   12 1
  18   11   23 1
  19   12   13 ar
  20   12   17 ar
  21   13   14 ar
  22   14   15 ar
  23   14   24 1
  24   15   16 ar
  25   15   18 1
  26   16   17 ar
  27   16   25 1
  28   17   26 1
  29   18   27 1
  30   18   28 1
  31   18   29 1
  32   19   30 1
  33   19   31 1
  34   19   32 1

#	End of record

