#	Name: ASD01410162
#	Creating user name:	WinNT
#	Creation time:	15. 06. 2019 19:16

#	Modifying user name:	WinNT
#	Modification time:	15. 06. 2019 19:16

#	Program:	/corina/corina34_cracker 3.40 0067  02.08.2006

@<TRIPOS>MOLECULE
ASD01410162
  46   49    0    0    0
SMALL
NO_CHARGES


@<TRIPOS>ATOM
   1 C1             0.2589     1.4560    -0.4422 C.3     
   2 C2             0.3842    -0.0679    -0.4977 C.3     
   3 C3             1.4098    -0.4568    -1.5644 C.3     
   4 C4             2.7678     0.1541    -1.2129 C.3     
   5 C5             2.6426     1.6780    -1.1573 C.3     
   6 C6             1.6169     2.0668    -0.0907 C.3     
   7 C7             2.0389     3.7875     3.5508 C.ar    
   8 C8             2.4700     3.5121     2.2539 C.ar    
   9 C9             3.4296     2.5237     2.0392 C.ar    
  10 C10            3.9470     1.8240     3.1101 C.ar    
  11 C11            3.5154     2.1017     4.3948 C.ar    
  12 C12            2.5632     3.0810     4.6139 C.ar    
  13 C13            0.8782     5.6541    -1.0048 C.ar    
  14 C14            0.9767     4.2503    -1.0969 C.ar    
  15 C15            1.4935     3.5678    -0.0360 C.ar    
  16 C16            1.9099     4.2670     1.1075 C.ar    
  17 N17            1.8139     5.5810     1.1859 N.ar    
  18 C18            1.3162     6.3019     0.1789 C.ar    
  19 C19            1.2201     7.7037     0.2762 C.ar    
  20 C20            0.7122     8.4247    -0.7548 C.ar    
  21 C21            0.2747     7.7918    -1.9326 C.ar    
  22 C22            0.3505     6.4128    -2.0576 C.ar    
  23 C23           -0.2748     8.5997    -3.0389 C.2     
  24 O24           -0.6537     8.0568    -4.0576 O.2     
  25 O25           -0.3562     9.9392    -2.9191 O.3     
  26 H26           -0.0671     1.8293    -1.4130 H       
  27 H27           -0.4717     1.7330     0.3177 H       
  28 H28            0.7102    -0.4413     0.4730 H       
  29 H29           -0.5833    -0.5031    -0.7482 H       
  30 H30            1.4991    -1.5424    -1.6040 H       
  31 H31            1.0838    -0.0834    -2.5352 H       
  32 H32            3.0939    -0.2193    -0.2421 H       
  33 H33            3.4985    -0.1229    -1.9728 H       
  34 H34            3.6100     2.1132    -0.9069 H       
  35 H35            2.3165     2.0514    -2.1281 H       
  36 H36            1.9430     1.6935     0.8801 H       
  37 H37            1.2990     4.5551     3.7235 H       
  38 H38            3.7670     2.3059     1.0366 H       
  39 H39            4.6901     1.0579     2.9450 H       
  40 H40            3.9232     1.5515     5.2299 H       
  41 H41            2.2297     3.2932     5.6190 H       
  42 H42            0.6511     3.7294    -1.9851 H       
  43 H43            1.5511     8.2057     1.1734 H       
  44 H44            0.6425     9.4991    -0.6700 H       
  45 H45            0.0142     5.9286    -2.9625 H       
  46 H46           -0.7231    10.4256    -3.6700 H       
@<TRIPOS>BOND
   1    1    2 1
   2    1    6 1
   3    1   26 1
   4    1   27 1
   5    2    3 1
   6    2   28 1
   7    2   29 1
   8    3    4 1
   9    3   30 1
  10    3   31 1
  11    4    5 1
  12    4   32 1
  13    4   33 1
  14    5    6 1
  15    5   34 1
  16    5   35 1
  17    6   15 1
  18    6   36 1
  19    7    8 ar
  20    7   12 ar
  21    7   37 1
  22    8    9 ar
  23    8   16 1
  24    9   10 ar
  25    9   38 1
  26   10   11 ar
  27   10   39 1
  28   11   12 ar
  29   11   40 1
  30   12   41 1
  31   13   14 ar
  32   13   18 ar
  33   13   22 ar
  34   14   15 ar
  35   14   42 1
  36   15   16 ar
  37   16   17 ar
  38   17   18 ar
  39   18   19 ar
  40   19   20 ar
  41   19   43 1
  42   20   21 ar
  43   20   44 1
  44   21   22 ar
  45   21   23 1
  46   22   45 1
  47   23   24 2
  48   23   25 1
  49   25   46 1

#	End of record

