#	Name: ASD01028723
#	Creating user name:	WinNT
#	Creation time:	15. 06. 2019 18:58

#	Modifying user name:	WinNT
#	Modification time:	15. 06. 2019 18:58

#	Program:	/corina/corina34_cracker 3.40 0067  02.08.2006

@<TRIPOS>MOLECULE
ASD01028723
  39   40    0    0    0
SMALL
NO_CHARGES


@<TRIPOS>ATOM
   1 C1            -0.0184     1.5028     0.0103 C.2     
   2 C2             0.0021    -0.0041     0.0020 C.3     
   3 O3             1.0197     2.1211     0.0037 O.2     
   4 O4            -1.1898     2.1580     0.0194 O.3     
   5 N5             4.8731    -1.8244     2.1386 N.ar    
   6 C6             5.0050    -2.0581     3.4210 C.ar    
   7 C7             3.9464    -1.8671     4.3148 C.ar    
   8 C8             2.7353    -1.4248     3.8517 C.ar    
   9 C9             2.6027    -1.1765     2.4733 C.ar    
  10 C10            1.3916    -0.7222     1.9265 C.ar    
  11 C11            1.3021    -0.4920     0.5875 C.ar    
  12 C12            2.3967    -0.7022    -0.2485 C.ar    
  13 C13            3.5851    -1.1429     0.2475 C.ar    
  14 C14            3.7173    -1.3915     1.6246 C.ar    
  15 O15            4.1186    -2.1199     5.6390 O.3     
  16 C16            5.4081    -2.5788     6.0496 C.3     
  17 F17           -1.0647    -0.4891     0.7662 F       
  18 F18           -0.1191    -0.4649    -1.3134 F       
  19 C19           -1.1335     3.6089     0.0270 C.3     
  20 C20           -0.3989     4.0974    -1.2231 C.3     
  21 C21           -2.5551     4.1744     0.0369 C.3     
  22 C22           -0.3871     4.0838     1.2754 C.3     
  23 H23            5.9551    -2.4074     3.7974 H       
  24 H24            1.9055    -1.2715     4.5258 H       
  25 H25            0.5362    -0.5560     2.5645 H       
  26 H26            2.3004    -0.5128    -1.3074 H       
  27 H27            4.4234    -1.3013    -0.4147 H       
  28 H28            6.1584    -1.8304     5.7943 H       
  29 H29            5.4096    -2.7419     7.1273 H       
  30 H30            5.6400    -3.5142     5.5403 H       
  31 H31           -0.9307     3.7591    -2.1124 H       
  32 H32           -0.3567     5.1865    -1.2173 H       
  33 H33            0.6139     3.6945    -1.2301 H       
  34 H34           -3.0784     3.8265     0.9275 H       
  35 H35           -2.5128     5.2636     0.0426 H       
  36 H36           -3.0869     3.8361    -0.8525 H       
  37 H37            0.6257     3.6809     1.2684 H       
  38 H38           -0.3448     5.1730     1.2811 H       
  39 H39           -0.9104     3.7358     2.1659 H       
@<TRIPOS>BOND
   1    1    2 1
   2    1    3 2
   3    1    4 1
   4    2   11 1
   5    2   17 1
   6    2   18 1
   7    4   19 1
   8    5    6 ar
   9    5   14 ar
  10    6    7 ar
  11    6   23 1
  12    7    8 ar
  13    7   15 1
  14    8    9 ar
  15    8   24 1
  16    9   10 ar
  17    9   14 ar
  18   10   11 ar
  19   10   25 1
  20   11   12 ar
  21   12   13 ar
  22   12   26 1
  23   13   14 ar
  24   13   27 1
  25   15   16 1
  26   16   28 1
  27   16   29 1
  28   16   30 1
  29   19   20 1
  30   19   22 1
  31   19   21 1
  32   20   31 1
  33   20   32 1
  34   20   33 1
  35   21   34 1
  36   21   35 1
  37   21   36 1
  38   22   37 1
  39   22   38 1
  40   22   39 1

#	End of record

