#	Name: ASD01916251
#	Creating user name:	WinNT
#	Creation time:	15. 06. 2019 20:07

#	Modifying user name:	WinNT
#	Modification time:	15. 06. 2019 20:07

#	Program:	/corina/corina34_cracker 3.40 0067  02.08.2006

@<TRIPOS>MOLECULE
ASD01916251
  34   36    0    0    0
SMALL
NO_CHARGES


@<TRIPOS>ATOM
   1 C1            -0.0530     1.3263    -0.2459 C.ar    
   2 C2             0.0327    -0.0535    -0.1709 C.ar    
   3 C3             1.2278    -0.6576     0.1724 C.ar    
   4 C4             2.3511     0.1250     0.4439 C.ar    
   5 C5             2.2621     1.5154     0.3672 C.ar    
   6 C6             1.0603     2.1111     0.0228 C.ar    
   7 O7             0.9707     3.4649    -0.0527 O.3     
   8 C8             1.4667     4.0764    -1.1605 C.ar    
   9 C9             1.4014     5.4589    -1.3020 C.ar    
  10 N10            1.8958     6.0163    -2.3950 N.ar    
  11 C11            2.4439     5.2804    -3.3410 C.ar    
  12 N12            2.5241     3.9685    -3.2441 N.ar    
  13 C13            2.0579     3.3366    -2.1796 C.ar    
  14 F14           -1.0544    -0.8115    -0.4336 F       
  15 C15            3.6307    -0.5171     0.8119 C.2     
  16 N16            3.7141    -1.8602     0.8857 N.am    
  17 O17            4.6078     0.1664     1.0479 O.2     
  18 C18            4.9437    -2.4698     1.1282 C.ar    
  19 C19            5.0449    -3.8556     1.0877 C.ar    
  20 C20            6.2715    -4.4486     1.3303 C.ar    
  21 C21            7.3596    -3.6307     1.6065 C.ar    
  22 C22            7.1861    -2.2596     1.6305 C.ar    
  23 N23            6.0052    -1.7234     1.3897 N.ar    
  24 Cl24           8.9207    -4.3231     1.9187 Cl      
  25 H25           -0.9878     1.7935    -0.5185 H       
  26 H26            1.2921    -1.7341     0.2310 H       
  27 H27            3.1283     2.1255     0.5766 H       
  28 H28            0.9534     6.0680    -0.5309 H       
  29 H29            2.8383     5.7664    -4.2212 H       
  30 H30            2.1272     2.2613    -2.1066 H       
  31 H31            2.9183    -2.4026     0.7700 H       
  32 H32            4.1777    -4.4615     0.8700 H       
  33 H33            6.3802    -5.5229     1.3059 H       
  34 H34            8.0289    -1.6192     1.8447 H       
@<TRIPOS>BOND
   1    1    2 ar
   2    1    6 ar
   3    1   25 1
   4    2    3 ar
   5    2   14 1
   6    3    4 ar
   7    3   26 1
   8    4    5 ar
   9    4   15 1
  10    5    6 ar
  11    5   27 1
  12    6    7 1
  13    7    8 1
  14    8    9 ar
  15    8   13 ar
  16    9   10 ar
  17    9   28 1
  18   10   11 ar
  19   11   12 ar
  20   11   29 1
  21   12   13 ar
  22   13   30 1
  23   15   16 am
  24   15   17 2
  25   16   18 1
  26   16   31 1
  27   18   19 ar
  28   18   23 ar
  29   19   20 ar
  30   19   32 1
  31   20   21 ar
  32   20   33 1
  33   21   22 ar
  34   21   24 1
  35   22   23 ar
  36   22   34 1

#	End of record

