#	Name: ASD01900372
#	Creating user name:	WinNT
#	Creation time:	15. 06. 2019 19:51

#	Modifying user name:	WinNT
#	Modification time:	15. 06. 2019 19:51

#	Program:	/corina/corina34_cracker 3.40 0067  02.08.2006

@<TRIPOS>MOLECULE
ASD01900372
  26   28    0    0    0
SMALL
NO_CHARGES


@<TRIPOS>ATOM
   1 C1             0.0220     1.4063     0.3788 C.ar    
   2 C2             0.0580     0.0273     0.5390 C.ar    
   3 N3             1.1756    -0.6485     0.3975 N.ar    
   4 C4             2.3206    -0.0415     0.0949 C.ar    
   5 C5             2.3584     1.3548    -0.0822 C.ar    
   6 C6             1.1812     2.0879     0.0643 C.ar    
   7 C7             3.6896    -0.5153    -0.1218 C.2     
   8 N8             4.4319     0.5242    -0.3967 N.2     
   9 N9             3.6534     1.6861    -0.3818 N.pl3   
  10 N10            4.1242    -1.8424    -0.0478 N.pl3   
  11 C11            5.4849    -2.1401    -0.1684 C.ar    
  12 C12            6.4376    -1.2131     0.2333 C.ar    
  13 C13            5.8855    -3.3660    -0.6850 C.ar    
  14 C14            7.2300    -3.6592    -0.8032 C.ar    
  15 C15            8.1795    -2.7329    -0.4075 C.ar    
  16 C16            7.7831    -1.5104     0.1134 C.ar    
  17 F17            8.7113    -0.6074     0.4986 F       
  18 F18            9.4940    -3.0222    -0.5242 F       
  19 H19           -0.9083     1.9424     0.4952 H       
  20 H20           -0.8515    -0.5004     0.7853 H       
  21 H21            1.1761     3.1601    -0.0652 H       
  22 H22            3.9786     2.5833    -0.5555 H       
  23 H23            3.4816    -2.5563     0.0872 H       
  24 H24            6.1284    -0.2610     0.6387 H       
  25 H25            5.1457    -4.0897    -0.9937 H       
  26 H26            7.5409    -4.6125    -1.2045 H       
@<TRIPOS>BOND
   1    1    2 ar
   2    1    6 ar
   3    1   19 1
   4    2    3 ar
   5    2   20 1
   6    3    4 ar
   7    4    5 ar
   8    4    7 1
   9    5    6 ar
  10    5    9 1
  11    6   21 1
  12    7    8 2
  13    7   10 1
  14    8    9 1
  15    9   22 1
  16   10   11 1
  17   10   23 1
  18   11   12 ar
  19   11   13 ar
  20   12   16 ar
  21   12   24 1
  22   13   14 ar
  23   13   25 1
  24   14   15 ar
  25   14   26 1
  26   15   16 ar
  27   15   18 1
  28   16   17 1

#	End of record

