#	Name: ASD01813297
#	Creating user name:	WinNT
#	Creation time:	15. 06. 2019 19:30

#	Modifying user name:	WinNT
#	Modification time:	15. 06. 2019 19:30

#	Program:	/corina/corina34_cracker 3.40 0067  02.08.2006

@<TRIPOS>MOLECULE
ASD01813297
  58   61    0    0    0
SMALL
NO_CHARGES


@<TRIPOS>ATOM
   1 C1            -0.0184     1.5028     0.0103 C.3     
   2 C2             0.0021    -0.0041     0.0020 C.ar    
   3 N3             0.0054    -0.6463    -1.1454 N.ar    
   4 C4             0.0236    -1.9724    -1.2012 C.ar    
   5 C5             0.0394    -2.7301    -0.0328 C.ar    
   6 C6             0.0363    -2.0798     1.1915 C.ar    
   7 C7             0.0535    -2.8618     2.4796 C.3     
   8 C8            -1.3572    -3.0364     2.9802 C.ar    
   9 C9            -1.9108    -2.0907     3.8242 C.ar    
  10 C10           -3.2024    -2.2456     4.2856 C.ar    
  11 C11           -3.9486    -3.3571     3.8997 C.ar    
  12 C12           -3.3860    -4.3065     3.0494 C.ar    
  13 C13           -2.0955    -4.1388     2.5894 C.ar    
  14 C14           -5.3378    -3.5292     4.3931 C.2     
  15 C15           -6.1983    -4.6019     4.0887 C.2     
  16 C16           -7.3680    -4.3892     4.7300 C.2     
  17 N17           -7.2627    -3.2308     5.4158 N.pl3   
  18 C18           -8.3055    -2.6274     6.2493 C.3     
  19 N19           -5.9812    -2.7093     5.1969 N.2     
  20 C20            0.0229    -0.6940     1.2039 C.ar    
  21 C21            0.0251     0.0553     2.5115 C.3     
  22 C22            0.0266    -2.6523    -2.5177 C.2     
  23 O23            0.0433    -3.8660    -2.5747 O.2     
  24 N24            0.0110    -1.9246    -3.6520 N.am    
  25 C25            0.0140    -2.5969    -4.9537 C.3     
  26 H26            0.6042    -3.5117    -4.8998 H       
  27 C27           -1.4312    -2.9248    -5.3824 C.3     
  28 C28           -1.8336    -1.7419    -6.2977 C.3     
  29 C29           -0.5257    -1.4507    -7.0747 C.3     
  30 C30            0.5909    -1.6600    -6.0294 C.3     
  31 H31            0.8686    -0.7052    -5.5830 H       
  32 O32            1.7310    -2.2638    -6.6440 O.3     
  33 H33            1.0042     1.8801     0.0026 H       
  34 H34           -0.5455     1.8639    -0.8728 H       
  35 H35           -0.5286     1.8543     0.9071 H       
  36 H36            0.0535    -3.8090    -0.0798 H       
  37 H37            0.5007    -3.8404     2.3046 H       
  38 H38            0.6392    -2.3227     3.2242 H       
  39 H39           -1.3313    -1.2297     4.1230 H       
  40 H40           -3.6336    -1.5068     4.9449 H       
  41 H41           -3.9600    -5.1701     2.7475 H       
  42 H42           -1.6600    -4.8718     1.9264 H       
  43 H43           -5.9645    -5.4446     3.4549 H       
  44 H44           -8.2350    -5.0326     4.6995 H       
  45 H45           -8.2102    -2.9929     7.2718 H       
  46 H46           -8.1963    -1.5429     6.2395 H       
  47 H47           -9.2859    -2.8974     5.8569 H       
  48 H48           -1.0019     0.2220     2.8364 H       
  49 H49            0.5541    -0.5292     3.2642 H       
  50 H50            0.5247     1.0150     2.3794 H       
  51 H51           -0.0023    -0.9558    -3.6066 H       
  52 H52           -1.4611    -3.8631    -5.9363 H       
  53 H53           -2.0855    -2.9735    -4.5120 H       
  54 H54           -2.6311    -2.0355    -6.9802 H       
  55 H55           -2.1306    -0.8776    -5.7037 H       
  56 H56           -0.4094    -2.1509    -7.9019 H       
  57 H57           -0.5193    -0.4235    -7.4393 H       
  58 H58            2.1403    -1.7214    -7.3320 H       
@<TRIPOS>BOND
   1    1    2 1
   2    1   33 1
   3    1   34 1
   4    1   35 1
   5    2   20 ar
   6    2    3 ar
   7    3    4 ar
   8    4    5 ar
   9    4   22 1
  10    5    6 ar
  11    5   36 1
  12    6    7 1
  13    6   20 ar
  14    7    8 1
  15    7   37 1
  16    7   38 1
  17    8   13 ar
  18    8    9 ar
  19    9   10 ar
  20    9   39 1
  21   10   11 ar
  22   10   40 1
  23   11   12 ar
  24   11   14 1
  25   12   13 ar
  26   12   41 1
  27   13   42 1
  28   14   19 2
  29   14   15 1
  30   15   16 2
  31   15   43 1
  32   16   17 1
  33   16   44 1
  34   17   18 1
  35   17   19 1
  36   18   45 1
  37   18   46 1
  38   18   47 1
  39   20   21 1
  40   21   48 1
  41   21   49 1
  42   21   50 1
  43   22   23 2
  44   22   24 am
  45   24   25 1
  46   24   51 1
  47   25   26 1
  48   25   30 1
  49   25   27 1
  50   27   28 1
  51   27   52 1
  52   27   53 1
  53   28   29 1
  54   28   54 1
  55   28   55 1
  56   29   30 1
  57   29   56 1
  58   29   57 1
  59   30   31 1
  60   30   32 1
  61   32   58 1

#	End of record

