#	Name: ASD01812169
#	Creating user name:	WinNT
#	Creation time:	15. 06. 2019 19:28

#	Modifying user name:	WinNT
#	Modification time:	15. 06. 2019 19:28

#	Program:	/corina/corina34_cracker 3.40 0067  02.08.2006

@<TRIPOS>MOLECULE
ASD01812169
  60   64    0    0    0
SMALL
NO_CHARGES


@<TRIPOS>ATOM
   1 C1             0.0759     1.5363     0.4462 C.ar    
   2 C2             0.0278     0.1675     0.6316 C.ar    
   3 C3             1.1532    -0.6019     0.4098 C.ar    
   4 C4             2.3404    -0.0045    -0.0006 C.ar    
   5 C5             2.3874     1.3728    -0.1822 C.ar    
   6 C6             1.2520     2.1384     0.0404 C.ar    
   7 N7             3.4561    -0.8172    -0.2253 N.3     
   8 C8             4.7105    -0.0564    -0.1884 C.3     
   9 C9             4.5690     1.1663    -1.1041 C.3     
  10 O10            3.5326     1.9977    -0.5715 O.3     
  11 C11            5.8677     1.9300    -1.1392 C.2     
  12 N12            6.9687     1.3629    -1.6707 N.am    
  13 H13            6.9253     0.4633    -2.0307 H       
  14 C14            8.2313     2.1053    -1.7048 C.3     
  15 C15            3.4915    -1.9372     0.7246 C.3     
  16 C16            4.6396    -2.8510     0.3813 C.ar    
  17 C17            5.8520    -2.7097     1.0310 C.ar    
  18 C18            6.9063    -3.5454     0.7182 C.ar    
  19 C19            6.7476    -4.5283    -0.2494 C.ar    
  20 C20            5.5289    -4.6680    -0.8997 C.ar    
  21 C21            4.4768    -3.8327    -0.5789 C.ar    
  22 N22            7.8159    -5.3778    -0.5694 N.pl3   
  23 C23            7.7957    -6.3709    -1.4870 C.2     
  24 C24            9.0186    -6.9502    -1.4936 C.2     
  25 C25            9.8130    -6.2903    -0.5495 C.2     
  26 N26            9.0952    -5.3442     0.0004 N.2     
  27 C27            8.9626     1.9292    -0.3726 C.3     
  28 C28            9.2502     0.4444    -0.1410 C.3     
  29 C29           10.1249    -0.0889    -1.2774 C.3     
  30 C30            9.3935     0.0872    -2.6097 C.3     
  31 C31            9.1060     1.5720    -2.8412 C.3     
  32 O32            8.4229     1.7365    -4.0856 O.3     
  33 O33            5.9221     3.0549    -0.6891 O.2     
  34 H34           -0.8070     2.1351     0.6143 H       
  35 H35           -0.8913    -0.3013     0.9507 H       
  36 H36            1.1113    -1.6712     0.5559 H       
  37 H37            1.2873     3.2082    -0.1036 H       
  38 H38            4.9095     0.2717     0.8319 H       
  39 H39            5.5295    -0.6839    -0.5399 H       
  40 H40            4.3025     0.8442    -2.1107 H       
  41 H41            8.0264     3.1631    -1.8698 H       
  42 H42            3.6235    -1.5520     1.7357 H       
  43 H43            2.5553    -2.4924     0.6666 H       
  44 H44            5.9748    -1.9449     1.7836 H       
  45 H45            7.8532    -3.4341     1.2255 H       
  46 H46            5.4027    -5.4315    -1.6531 H       
  47 H47            3.5286    -3.9409    -1.0844 H       
  48 H48            6.9545    -6.6516    -2.1034 H       
  49 H49            9.3270    -7.7761    -2.1174 H       
  50 H50           10.8427    -6.5194    -0.3177 H       
  51 H51            9.9020     2.4815    -0.3979 H       
  52 H52            8.3394     2.3092     0.4370 H       
  53 H53            9.7712     0.3189     0.8081 H       
  54 H54            8.3108    -0.1080    -0.1156 H       
  55 H55           11.0642     0.4634    -1.3028 H       
  56 H56           10.3297    -1.1467    -1.1124 H       
  57 H57           10.0167    -0.2928    -3.4192 H       
  58 H58            8.4542    -0.4652    -2.5843 H       
  59 H59           10.0453     2.1243    -2.8666 H       
  60 H60            8.9199     1.4192    -4.8520 H       
@<TRIPOS>BOND
   1    1    2 ar
   2    1    6 ar
   3    1   34 1
   4    2    3 ar
   5    2   35 1
   6    3    4 ar
   7    3   36 1
   8    4    5 ar
   9    4    7 1
  10    5    6 ar
  11    5   10 1
  12    6   37 1
  13    7    8 1
  14    7   15 1
  15    8    9 1
  16    8   38 1
  17    8   39 1
  18    9   10 1
  19    9   11 1
  20    9   40 1
  21   11   12 am
  22   11   33 2
  23   12   13 1
  24   12   14 1
  25   14   27 1
  26   14   31 1
  27   14   41 1
  28   15   16 1
  29   15   42 1
  30   15   43 1
  31   16   17 ar
  32   16   21 ar
  33   17   18 ar
  34   17   44 1
  35   18   19 ar
  36   18   45 1
  37   19   20 ar
  38   19   22 1
  39   20   21 ar
  40   20   46 1
  41   21   47 1
  42   22   23 1
  43   22   26 1
  44   23   24 2
  45   23   48 1
  46   24   25 1
  47   24   49 1
  48   25   26 2
  49   25   50 1
  50   27   28 1
  51   27   51 1
  52   27   52 1
  53   28   29 1
  54   28   53 1
  55   28   54 1
  56   29   30 1
  57   29   55 1
  58   29   56 1
  59   30   31 1
  60   30   57 1
  61   30   58 1
  62   31   32 1
  63   31   59 1
  64   32   60 1

#	End of record

