#	Name: ASD00840722
#	Creating user name:	WinNT
#	Creation time:	15. 06. 2019 18:39

#	Modifying user name:	WinNT
#	Modification time:	15. 06. 2019 18:39

#	Program:	/corina/corina34_cracker 3.40 0067  02.08.2006

@<TRIPOS>MOLECULE
ASD00840722
  89   94    0    0    0
SMALL
NO_CHARGES


@<TRIPOS>ATOM
   1 F1             6.0852    -1.9599    -1.9975 F       
   2 N2             1.0861     1.4625    -0.7383 N.ar    
   3 C3             1.3436     0.1701    -0.8497 C.ar    
   4 C4             1.2534    -0.6673     0.2551 C.ar    
   5 C5             0.8897    -0.1315     1.4780 C.ar    
   6 C6             0.6278     1.2298     1.5530 C.ar    
   7 C7             0.7371     2.0023     0.4142 C.ar    
   8 C8             1.5472    -2.1395     0.1234 C.3     
   9 C9             1.2537    -2.8572     1.4235 C.2     
  10 C10            0.7322    -2.7471    -1.0201 C.3     
  11 C11           -0.7305    -2.4548    -0.8050 C.2     
  12 N12           -1.6514    -2.9736    -1.6412 N.am    
  13 O13           -1.0789    -1.7528     0.1206 O.2     
  14 C14           -3.0720    -2.6132    -1.5170 C.3     
  15 C15           -3.5835    -2.1694    -2.8917 C.3     
  16 N16           -3.2923    -3.2162    -3.8803 N.3     
  17 C17           -1.8453    -3.4202    -4.0300 C.3     
  18 C18           -1.2617    -3.9105    -2.7059 C.3     
  19 C19           -3.9170    -2.9074    -5.1735 C.3     
  20 C20           -3.4911    -3.9512    -6.2097 C.3     
  21 C21           -4.1925    -3.6596    -7.5383 C.3     
  22 N22           -5.6476    -3.7013    -7.3446 N.3     
  23 C23           -6.0856    -2.6760    -6.3890 C.3     
  24 C24           -5.4408    -2.9382    -5.0261 C.3     
  25 C25           -6.3534    -3.5630    -8.6255 C.3     
  26 O26            0.1776    -2.9318     1.9782 O.2     
  27 N27            2.4090    -3.3968     1.8473 N.am    
  28 C28            3.0251    -2.3668    -0.0969 C.ar    
  29 C29            3.4681    -3.1276     0.9778 C.ar    
  30 C30            3.8939    -1.9757    -1.0906 C.ar    
  31 C31            5.2289    -2.3418    -1.0249 C.ar    
  32 C32            5.6824    -3.1005     0.0422 C.ar    
  33 C33            4.8110    -3.4928     1.0388 C.ar    
  34 Cl34           7.3543    -3.5602     0.1265 Cl      
  35 C35            2.2634    -5.9652     2.8253 C.ar    
  36 C36            3.3140    -6.7772     2.4408 C.ar    
  37 C37            0.9812    -6.4778     2.8892 C.ar    
  38 C38            0.7496    -7.8024     2.5688 C.ar    
  39 C39            1.8001    -8.6143     2.1839 C.ar    
  40 C40            3.0823    -8.1017     2.1199 C.ar    
  41 H41            1.6191    -9.6491     1.9335 H       
  42 H42            4.3158    -6.3768     2.3908 H       
  43 C43           -7.8569    -3.7356    -8.4005 C.3     
  44 C44           -6.0811    -2.1758    -9.2106 C.3     
  45 S45            2.5598    -4.2787     3.2407 S.o2    
  46 O46            3.9256    -4.1938     3.6235 O.2     
  47 O47            1.4895    -3.8797     4.0860 O.2     
  48 O48            1.6987    -0.3429    -2.0544 O.3     
  49 C49            2.2059    -0.1729    -4.4112 C.3     
  50 C50            1.6657     0.5457    -3.1731 C.3     
  51 H51            0.8111    -0.7582     2.3541 H       
  52 H52            0.3412     1.6795     2.4922 H       
  53 H53            0.5348     3.0618     0.4672 H       
  54 H54            1.0541    -2.3127    -1.9665 H       
  55 H55            0.8875    -3.8257    -1.0438 H       
  56 H56           -3.6408    -3.4784    -1.1765 H       
  57 H57           -3.1814    -1.7959    -0.8043 H       
  58 H58           -4.6598    -2.0041    -2.8433 H       
  59 H59           -3.0858    -1.2447    -3.1838 H       
  60 H60           -1.6610    -4.1620    -4.8071 H       
  61 H61           -1.3718    -2.4781    -4.3062 H       
  62 H62           -0.1749    -3.9535    -2.7783 H       
  63 H63           -1.6556    -4.9006    -2.4764 H       
  64 H64           -3.6019    -1.9173    -5.5030 H       
  65 H65           -2.4112    -3.9047    -6.3504 H       
  66 H66           -3.7708    -4.9453    -5.8611 H       
  67 H67           -3.9016    -2.6709    -7.8932 H       
  68 H68           -3.9025    -4.4094    -8.2743 H       
  69 H69           -5.7858    -1.6919    -6.7493 H       
  70 H70           -7.1706    -2.7114    -6.2902 H       
  71 H71           -5.7511    -3.9164    -4.6588 H       
  72 H72           -5.7538    -2.1680    -4.3212 H       
  73 H73           -5.9999    -4.3258    -9.3193 H       
  74 H74            3.5355    -1.3847    -1.9205 H       
  75 H75            5.1713    -4.0841     1.8676 H       
  76 H76            0.1605    -5.8434     3.1899 H       
  77 H77           -0.2521    -8.2030     2.6194 H       
  78 H78            3.9031    -8.7361     1.8195 H       
  79 H79           -8.2103    -2.9728    -7.7067 H       
  80 H80           -8.3806    -3.6330    -9.3510 H       
  81 H81           -8.0508    -4.7239    -7.9837 H       
  82 H82           -6.4346    -1.4131    -8.5168 H       
  83 H83           -5.0100    -2.0529    -9.3709 H       
  84 H84           -6.6048    -2.0732   -10.1610 H       
  85 H85            2.2626     0.5293    -5.2430 H       
  86 H86            3.2003    -0.5654    -4.1986 H       
  87 H87            1.5395    -0.9944    -4.6741 H       
  88 H88            0.6388     0.8620    -3.3557 H       
  89 H89            2.2828     1.4190    -2.9618 H       
@<TRIPOS>BOND
   1    1   31 1
   2    2    3 ar
   3    2    7 ar
   4    3    4 ar
   5    3   48 1
   6    4    5 ar
   7    4    8 1
   8    5    6 ar
   9    5   51 1
  10    6    7 ar
  11    6   52 1
  12    7   53 1
  13    8    9 1
  14    8   10 1
  15    8   28 1
  16    9   26 2
  17    9   27 am
  18   10   11 1
  19   10   54 1
  20   10   55 1
  21   11   12 am
  22   11   13 2
  23   12   14 1
  24   12   18 1
  25   14   15 1
  26   14   56 1
  27   14   57 1
  28   15   16 1
  29   15   58 1
  30   15   59 1
  31   16   17 1
  32   16   19 1
  33   17   18 1
  34   17   60 1
  35   17   61 1
  36   18   62 1
  37   18   63 1
  38   19   20 1
  39   19   24 1
  40   19   64 1
  41   20   21 1
  42   20   65 1
  43   20   66 1
  44   21   22 1
  45   21   67 1
  46   21   68 1
  47   22   23 1
  48   22   25 1
  49   23   24 1
  50   23   69 1
  51   23   70 1
  52   24   71 1
  53   24   72 1
  54   25   43 1
  55   25   44 1
  56   25   73 1
  57   27   45 am
  58   27   29 1
  59   28   29 ar
  60   28   30 ar
  61   29   33 ar
  62   30   31 ar
  63   30   74 1
  64   31   32 ar
  65   32   33 ar
  66   32   34 1
  67   33   75 1
  68   35   36 ar
  69   35   37 ar
  70   35   45 1
  71   36   42 1
  72   36   40 ar
  73   37   38 ar
  74   37   76 1
  75   38   39 ar
  76   38   77 1
  77   39   40 ar
  78   39   41 1
  79   40   78 1
  80   43   79 1
  81   43   80 1
  82   43   81 1
  83   44   82 1
  84   44   83 1
  85   44   84 1
  86   45   46 2
  87   45   47 2
  88   48   50 1
  89   49   50 1
  90   49   85 1
  91   49   86 1
  92   49   87 1
  93   50   88 1
  94   50   89 1

#	End of record

