#	Name: ASD01901364
#	Creating user name:	WinNT
#	Creation time:	15. 06. 2019 19:53

#	Modifying user name:	WinNT
#	Modification time:	15. 06. 2019 19:53

#	Program:	/corina/corina34_cracker 3.40 0067  02.08.2006

@<TRIPOS>MOLECULE
ASD01901364
  38   41    0    0    0
SMALL
NO_CHARGES


@<TRIPOS>ATOM
   1 C1            -0.0168     1.3891     0.0097 C.ar    
   2 C2             1.1698     2.0933     0.0021 C.ar    
   3 C3             2.3788     1.4169    -0.0135 C.ar    
   4 C4             2.4022     0.0318    -0.0216 C.ar    
   5 C5             1.2202    -0.6802    -0.0137 C.ar    
   6 C6             0.0021    -0.0041     0.0020 C.ar    
   7 C7            -1.2718    -0.7657     0.0106 C.2     
   8 N8            -3.2656    -1.3673     1.1229 N.2     
   9 C9            -2.1419    -0.6929     1.1201 C.2     
  10 C10           -1.6218    -1.5429    -1.0579 C.2     
  11 N11           -2.7993    -2.2292    -1.0177 N.pl3   
  12 C12           -3.6148    -2.1365     0.0807 C.2     
  13 C13           -3.4129    -3.0694    -1.9073 C.2     
  14 C14           -4.5729    -3.4664    -1.3424 C.2     
  15 N15           -4.6794    -2.8948    -0.1392 N.2     
  16 C16           -5.5791    -4.4003    -1.9641 C.3     
  17 O17           -5.1178    -4.8073    -3.2539 O.3     
  18 C18           -5.9143    -5.6570    -3.9543 C.ar    
  19 C19           -7.1179    -6.0856    -3.4136 C.ar    
  20 C20           -5.5279    -6.0927    -5.2134 C.ar    
  21 C21           -6.3393    -6.9564    -5.9233 C.ar    
  22 C22           -7.5359    -7.3863    -5.3800 C.ar    
  23 C23           -7.9257    -6.9494    -4.1275 C.ar    
  24 F24            3.5384     2.1102    -0.0213 F       
  25 H25           -8.1692    -8.0610    -5.9369 H       
  26 H26           -7.4228    -5.7446    -2.4352 H       
  27 H27           -8.8628    -7.2834    -3.7070 H       
  28 H28           -4.5937    -5.7566    -5.6385 H       
  29 H29           -6.0390    -7.2959    -6.9036 H       
  30 H30           -0.9588     1.9171     0.0260 H       
  31 H31            1.1561     3.1732     0.0081 H       
  32 H32            3.3469    -0.4915    -0.0345 H       
  33 H33            1.2393    -1.7600    -0.0204 H       
  34 H34           -1.8803    -0.0796     1.9696 H       
  35 H35           -0.9758    -1.6121    -1.9207 H       
  36 H36           -3.0394    -3.3599    -2.8781 H       
  37 H37           -5.7018    -5.2774    -1.3287 H       
  38 H38           -6.5360    -3.8883    -2.0654 H       
@<TRIPOS>BOND
   1    1    6 ar
   2    1    2 ar
   3    1   30 1
   4    2    3 ar
   5    2   31 1
   6    3    4 ar
   7    3   24 1
   8    4    5 ar
   9    4   32 1
  10    5    6 ar
  11    5   33 1
  12    6    7 1
  13    7   10 2
  14    7    9 1
  15    8    9 2
  16    8   12 1
  17    9   34 1
  18   10   11 1
  19   10   35 1
  20   11   13 1
  21   11   12 1
  22   12   15 2
  23   13   14 2
  24   13   36 1
  25   14   15 1
  26   14   16 1
  27   16   17 1
  28   16   37 1
  29   16   38 1
  30   17   18 1
  31   18   20 ar
  32   18   19 ar
  33   19   23 ar
  34   19   26 1
  35   20   21 ar
  36   20   28 1
  37   21   22 ar
  38   21   29 1
  39   22   23 ar
  40   22   25 1
  41   23   27 1

#	End of record

