#	Name: ASD03090063
#	Creating user name:	WinNT
#	Creation time:	15. 06. 2019 20:28

#	Modifying user name:	WinNT
#	Modification time:	15. 06. 2019 20:28

#	Program:	/corina/corina34_cracker 3.40 0067  02.08.2006

@<TRIPOS>MOLECULE
ASD03090063
  51   53    0    0    0
SMALL
NO_CHARGES


@<TRIPOS>ATOM
   1 C1            -1.0365     2.2669    -1.6019 C.ar    
   2 C2            -0.9486     1.0852    -2.3397 C.ar    
   3 C3            -0.5355     1.1262    -3.6553 C.ar    
   4 C4            -0.2082     2.3351    -4.2435 C.ar    
   5 C5            -0.2932     3.5101    -3.5178 C.ar    
   6 C6            -0.7053     3.4831    -2.2015 C.ar    
   7 C7            -0.1705     4.0666     0.9753 C.2     
   8 C8            -1.4557     3.4533     0.6169 C.2     
   9 C9            -1.4844     2.2311    -0.1928 C.2     
  10 O10           -0.1474     5.1345     1.5581 O.2     
  11 N11            0.9836     3.4467     0.6586 N.am    
  12 C12            2.2057     4.0928     0.8711 C.ar    
  13 C13            3.3259     3.3592     1.2396 C.ar    
  14 C14            4.5313     4.0003     1.4482 C.ar    
  15 C15            4.6235     5.3711     1.2910 C.ar    
  16 C16            3.5099     6.1044     0.9242 C.ar    
  17 C17            2.3029     5.4687     0.7085 C.ar    
  18 O18           -1.8768     1.1873     0.2947 O.2     
  19 C19           -2.6386     4.0282     1.0429 C.2     
  20 N20           -3.8156     3.4226     0.7814 N.pl3   
  21 C21           -5.0176     4.0561     1.1148 C.ar    
  22 C22           -6.2295     3.4330     0.8457 C.ar    
  23 C23           -7.4152     4.0587     1.1754 C.ar    
  24 C24           -7.3964     5.3096     1.7754 C.ar    
  25 C25           -6.1864     5.9329     2.0442 C.ar    
  26 C26           -4.9996     5.3061     1.7203 C.ar    
  27 O27           -8.5645     5.9250     2.0998 O.3     
  28 C28           -8.4710     7.2114     2.7150 C.3     
  29 C29           -9.8766     7.7418     3.0045 C.3     
  30 H30           -1.2031     0.1409    -1.8816 H       
  31 H31           -0.4671     0.2126    -4.2273 H       
  32 H32            0.1153     2.3616    -5.2736 H       
  33 H33           -0.0359     4.4503    -3.9827 H       
  34 H34           -0.7711     4.4010    -1.6362 H       
  35 H35            0.9666     2.5524     0.2833 H       
  36 H36            3.2545     2.2887     1.3633 H       
  37 H37            5.4028     3.4304     1.7348 H       
  38 H38            5.5670     5.8701     1.4554 H       
  39 H39            3.5852     7.1748     0.8022 H       
  40 H40            1.4346     6.0415     0.4180 H       
  41 H41           -2.6206     4.9621     1.5851 H       
  42 H42           -3.8283     2.5479     0.3622 H       
  43 H43           -6.2443     2.4595     0.3783 H       
  44 H44           -8.3576     3.5745     0.9660 H       
  45 H45           -6.1727     6.9069     2.5106 H       
  46 H46           -4.0577     5.7895     1.9336 H       
  47 H47           -7.9147     7.1281     3.6487 H       
  48 H48           -7.9545     7.8982     2.0445 H       
  49 H49          -10.4329     7.8251     2.0708 H       
  50 H50          -10.3931     7.0550     3.6751 H       
  51 H51           -9.8052     8.7230     3.4737 H       
@<TRIPOS>BOND
   1    1    2 ar
   2    1    6 ar
   3    1    9 1
   4    2    3 ar
   5    2   30 1
   6    3    4 ar
   7    3   31 1
   8    4    5 ar
   9    4   32 1
  10    5    6 ar
  11    5   33 1
  12    6   34 1
  13    7    8 1
  14    7   10 2
  15    7   11 am
  16    8    9 1
  17    8   19 2
  18    9   18 2
  19   11   12 1
  20   11   35 1
  21   12   13 ar
  22   12   17 ar
  23   13   14 ar
  24   13   36 1
  25   14   15 ar
  26   14   37 1
  27   15   16 ar
  28   15   38 1
  29   16   17 ar
  30   16   39 1
  31   17   40 1
  32   19   20 1
  33   19   41 1
  34   20   21 1
  35   20   42 1
  36   21   22 ar
  37   21   26 ar
  38   22   23 ar
  39   22   43 1
  40   23   24 ar
  41   23   44 1
  42   24   25 ar
  43   24   27 1
  44   25   26 ar
  45   25   45 1
  46   26   46 1
  47   27   28 1
  48   28   29 1
  49   28   47 1
  50   28   48 1
  51   29   49 1
  52   29   50 1
  53   29   51 1

#	End of record

