#	Name: ASD07930314
#	Creating user name:	WinNT
#	Creation time:	15. 06. 2019 21:12

#	Modifying user name:	WinNT
#	Modification time:	15. 06. 2019 21:12

#	Program:	/corina/corina34_cracker 3.40 0067  02.08.2006

@<TRIPOS>MOLECULE
ASD07930314
  29   30    0    0    0
SMALL
NO_CHARGES


@<TRIPOS>ATOM
   1 N1            -0.0178     1.4624     0.0101 N.pl3   
   2 C2             0.0021    -0.0041     0.0020 C.3     
   3 C3             0.7733    -0.5065     1.2304 C.3     
   4 S4             2.4363     0.2339     1.2028 S.o2    
   5 N5             2.1138     1.8519     0.9691 N.am    
   6 C6             1.1691     2.1662     0.0025 C.2     
   7 C7            -1.4107    -0.5268     0.0464 C.2     
   8 C8            -2.3506    -0.2818    -0.8686 C.2     
   9 N9             1.3955     3.0951    -0.8833 N.2     
  10 C10            2.7940     2.8912     1.7459 C.3     
  11 O11            3.0376     0.1712     2.4887 O.2     
  12 O12            3.1450    -0.1615     0.0363 O.2     
  13 C13            0.6911    -0.4987    -1.2714 C.3     
  14 S14           -2.0706    -1.5592     1.3081 S.3     
  15 C15           -3.6337    -1.5957     0.5028 C.2     
  16 C16           -3.5780    -0.8710    -0.6159 C.2     
  17 Cl17          -2.0571     0.7012    -2.2691 Cl      
  18 H18           -0.8639     1.9368     0.0167 H       
  19 H19            0.2524    -0.2060     2.1395 H       
  20 H20            0.8541    -1.5929     1.1945 H       
  21 H21            0.7237     3.3018    -1.5519 H       
  22 H22            3.7043     3.1942     1.2285 H       
  23 H23            2.1349     3.7523     1.8561 H       
  24 H24            3.0490     2.5003     2.7309 H       
  25 H25            1.7134    -0.1216    -1.3012 H       
  26 H26            0.7056    -1.5886    -1.2767 H       
  27 H27            0.1453    -0.1383    -2.1433 H       
  28 H28           -4.5047    -2.1264     0.8579 H       
  29 H29           -4.4263    -0.7513    -1.2734 H       
@<TRIPOS>BOND
   1    1    2 1
   2    1    6 1
   3    1   18 1
   4    2    3 1
   5    2    7 1
   6    2   13 1
   7    3    4 1
   8    3   19 1
   9    3   20 1
  10    4    5 am
  11    4   11 2
  12    4   12 2
  13    5    6 1
  14    5   10 1
  15    6    9 2
  16    7   14 1
  17    7    8 2
  18    8   17 1
  19    8   16 1
  20    9   21 1
  21   10   22 1
  22   10   23 1
  23   10   24 1
  24   13   25 1
  25   13   26 1
  26   13   27 1
  27   14   15 1
  28   15   16 2
  29   15   28 1
  30   16   29 1

#	End of record

