#	Name: ASD01884019
#	Creating user name:	WinNT
#	Creation time:	15. 06. 2019 19:47

#	Modifying user name:	WinNT
#	Modification time:	15. 06. 2019 19:47

#	Program:	/corina/corina34_cracker 3.40 0067  02.08.2006

@<TRIPOS>MOLECULE
ASD01884019
  54   58    0    0    0
SMALL
NO_CHARGES


@<TRIPOS>ATOM
   1 C1            -0.7676     1.4115    -1.0612 C.2     
   2 C2            -0.7651     0.0060    -1.0934 C.2     
   3 C3            -1.1844    -0.6871     0.0102 C.2     
   4 C4            -1.6099     0.0190     1.1561 C.2     
   5 C5            -1.6041     1.3664     1.1650 C.2     
   6 N6            -1.1825     2.0670     0.0725 N.pl3   
   7 C7            -1.0704     3.3976    -0.2053 C.2     
   8 N8            -0.6178     3.5073    -1.4265 N.2     
   9 N9            -0.4305     2.3427    -1.9406 N.2     
  10 N10           -1.1914    -2.0799     0.0024 N.pl3   
  11 C11           -1.4077     4.5337     0.7256 C.3     
  12 Cl12          -0.2376    -0.8398    -2.5147 Cl      
  13 C13           -0.1694     4.9090     1.5420 C.3     
  14 C14           -2.4539    -2.8222     0.1213 C.3     
  15 C15           -2.3364    -3.8085     1.2890 C.3     
  16 C16           -1.0950    -4.6703     1.1036 C.3     
  17 C17            0.1662    -3.8191     1.0442 C.3     
  18 C18            0.0630    -2.8335    -0.1311 C.3     
  19 C19           -0.2739     6.1238     2.4661 C.3     
  20 C20           -0.2367     4.7134     3.0579 C.3     
  21 C21           -0.9920    -5.7086     2.1940 C.ar    
  22 C22           -1.4005    -6.9193     1.6411 C.ar    
  23 O23           -1.7655    -6.7650     0.3394 O.3     
  24 C24           -1.2225    -5.5325    -0.1671 C.3     
  25 N25           -1.3930    -8.0136     2.3955 N.ar    
  26 C26           -1.0178    -7.9906     3.6579 C.ar    
  27 C27           -0.6113    -6.8177     4.2621 C.ar    
  28 C28           -0.5969    -5.6476     3.5127 C.ar    
  29 H29           -1.9419    -0.5231     2.0292 H       
  30 H30           -1.9317     1.8969     2.0469 H       
  31 H31           -1.7341     5.3956     0.1435 H       
  32 H32           -2.2076     4.2263     1.3992 H       
  33 H33            0.7882     4.7295     1.0531 H       
  34 H34           -3.2708    -2.1260     0.3116 H       
  35 H35           -2.6445    -3.3695    -0.8018 H       
  36 H36           -2.2582    -3.2555     2.2250 H       
  37 H37           -3.2202    -4.4458     1.3164 H       
  38 H38            0.2752    -3.2657     1.9770 H       
  39 H39            1.0332    -4.4639     0.9009 H       
  40 H40            0.0615    -3.3822    -1.0729 H       
  41 H41            0.9075    -2.1448    -0.1079 H       
  42 H42            0.6149     6.7433     2.5855 H       
  43 H43           -1.2250     6.6557     2.4925 H       
  44 H44           -1.1632     4.3174     3.4736 H       
  45 H45            0.6766     4.4050     3.5667 H       
  46 H46           -1.9075    -5.0722    -0.8792 H       
  47 H47           -0.2455    -5.6983    -0.6211 H       
  48 H48           -1.0286    -8.9059     4.2309 H       
  49 H49           -0.3091    -6.8099     5.2989 H       
  50 H50           -0.2838    -4.7126     3.9534 H       
  51 N51            6.5716    12.7522    11.0733 N.3     
  52 H52            6.5853    11.7433    11.0677 H       
  53 H53            7.5086    13.1266    11.0663 H       
  54 H54            6.0332    13.1108    10.2989 H       
@<TRIPOS>BOND
   1    1    2 1
   2    1    9 2
   3    1    6 1
   4    2    3 2
   5    2   12 1
   6    3    4 1
   7    3   10 1
   8    4    5 2
   9    4   29 1
  10    5    6 1
  11    5   30 1
  12    6    7 1
  13    7    8 2
  14    7   11 1
  15    8    9 1
  16   10   14 1
  17   10   18 1
  18   11   13 1
  19   11   31 1
  20   11   32 1
  21   13   19 1
  22   13   20 1
  23   13   33 1
  24   14   15 1
  25   14   34 1
  26   14   35 1
  27   15   16 1
  28   15   36 1
  29   15   37 1
  30   16   17 1
  31   16   21 1
  32   16   24 1
  33   17   18 1
  34   17   38 1
  35   17   39 1
  36   18   40 1
  37   18   41 1
  38   19   20 1
  39   19   42 1
  40   19   43 1
  41   20   44 1
  42   20   45 1
  43   21   28 ar
  44   21   22 ar
  45   22   23 1
  46   22   25 ar
  47   23   24 1
  48   24   46 1
  49   24   47 1
  50   25   26 ar
  51   26   27 ar
  52   26   48 1
  53   27   28 ar
  54   27   49 1
  55   28   50 1
  56   51   52 1
  57   51   53 1
  58   51   54 1

#	End of record

