#	Name: ASD08178243
#	Creating user name:	WinNT
#	Creation time:	15. 06. 2019 21:18

#	Modifying user name:	WinNT
#	Modification time:	15. 06. 2019 21:18

#	Program:	/corina/corina34_cracker 3.40 0067  02.08.2006

@<TRIPOS>MOLECULE
ASD08178243
  84   88    0    0    0
SMALL
NO_CHARGES


@<TRIPOS>ATOM
   1 N1            -0.7878     2.0574     3.2259 N.am    
   2 C2            -0.6938     0.6798     3.0311 C.ar    
   3 C3             0.5545     0.0616     2.9957 C.ar    
   4 N4            -1.7909    -0.0478     2.8844 N.ar    
   5 N5            -1.7475    -1.3177     2.7037 N.ar    
   6 C6            -0.6102    -1.9830     2.6518 C.ar    
   7 C7             0.5941    -1.3105     2.7998 C.ar    
   8 C8            -0.6189    -3.4747     2.4377 C.3     
   9 C9            -1.4933    -4.1379     3.5037 C.3     
  10 C10           -1.5022    -5.6523     3.2864 C.3     
  11 C11           -2.3765    -6.3155     4.3524 C.3     
  12 C12           -2.3852    -7.8072     4.1383 C.2     
  13 N13           -1.5564    -8.6579     4.6549 N.2     
  14 N14           -1.7308    -9.8713     4.3526 N.2     
  15 C15           -2.7166   -10.1589     3.5574 C.2     
  16 S16           -3.5306    -8.7090     3.1452 S.3     
  17 N17           -3.0582   -11.4334     3.1179 N.am    
  18 C18           -2.3394   -12.5002     3.5203 C.2     
  19 C19           -2.7096   -13.8812     3.0440 C.3     
  20 O20           -1.3947   -12.3487     4.2656 O.2     
  21 C21           -1.7565   -14.8883     3.6343 C.ar    
  22 C22           -2.0434   -15.4819     4.8494 C.ar    
  23 C23           -1.1691   -16.4056     5.3908 C.ar    
  24 C24           -0.0083   -16.7363     4.7170 C.ar    
  25 C25            0.2781   -16.1434     3.5015 C.ar    
  26 C26           -0.5983   -15.2229     2.9580 C.ar    
  27 C27           -1.9868     2.6683     3.1506 C.2     
  28 O28           -2.9692     2.0376     2.8223 O.2     
  29 C29           -2.1067     4.1353     3.4743 C.3     
  30 C30           -3.5409     4.5694     3.3142 C.ar    
  31 C31           -4.4085     4.4983     4.3880 C.ar    
  32 C32           -5.7241     4.8965     4.2412 C.ar    
  33 C33           -6.1720     5.3663     3.0207 C.ar    
  34 C34           -5.3041     5.4383     1.9472 C.ar    
  35 C35           -3.9874     5.0441     2.0951 C.ar    
  36 C36            0.9453   -17.7426     5.3078 C.3     
  37 N37            0.5856   -19.0857     4.8462 N.am    
  38 C38            1.3048   -20.1519     5.2492 C.2     
  39 C39            0.9348   -21.5334     4.7744 C.3     
  40 O40            2.2498   -19.9995     5.9940 O.2     
  41 N41            1.9525   -22.4938     5.2216 N.3     
  42 C42            3.2400   -22.2449     4.5571 C.3     
  43 C43            4.2841   -23.2270     5.0949 C.3     
  44 O44            3.8207   -24.5650     4.8938 O.3     
  45 C45            2.5693   -24.8423     5.5280 C.3     
  46 C46            1.5078   -23.8766     4.9946 C.3     
  47 H47            0.0091     2.5754     3.4196 H       
  48 H48            1.4628     0.6333     3.1166 H       
  49 H49            1.5348    -1.8395     2.7597 H       
  50 H50           -1.0198    -3.6975     1.4488 H       
  51 H51            0.3986    -3.8584     2.5121 H       
  52 H52           -1.0924    -3.9151     4.4926 H       
  53 H53           -2.5108    -3.7542     3.4293 H       
  54 H54           -1.9030    -5.8751     2.2975 H       
  55 H55           -0.4846    -6.0360     3.3608 H       
  56 H56           -1.9757    -6.0927     5.3413 H       
  57 H57           -3.3941    -5.9318     4.2780 H       
  58 H58           -3.8138   -11.5546     2.5218 H       
  59 H59           -3.7263   -14.1143     3.3604 H       
  60 H60           -2.6499   -13.9186     1.9563 H       
  61 H61           -2.9503   -15.2235     5.3758 H       
  62 H62           -1.3928   -16.8688     6.3405 H       
  63 H63            1.1852   -16.4015     2.9753 H       
  64 H64           -0.3745   -14.7597     2.0084 H       
  65 H65           -1.7874     4.3079     4.5020 H       
  66 H66           -1.4754     4.7097     2.7963 H       
  67 H67           -4.0586     4.1313     5.3416 H       
  68 H68           -6.4021     4.8402     5.0800 H       
  69 H69           -7.2000     5.6767     2.9058 H       
  70 H70           -5.6541     5.8050     0.9935 H       
  71 H71           -3.3094     5.1004     1.2564 H       
  72 H72            1.9618   -17.5096     4.9908 H       
  73 H73            0.8861   -17.7043     6.3955 H       
  74 H74           -0.1702   -19.2076     4.2505 H       
  75 H75           -0.0344   -21.8122     5.1878 H       
  76 H76            0.8814   -21.5413     3.6857 H       
  77 H77            3.1279   -22.3854     3.4820 H       
  78 H78            3.5627   -21.2236     4.7596 H       
  79 H79            5.2254   -23.0842     4.5643 H       
  80 H80            4.4353   -23.0504     6.1598 H       
  81 H81            2.2705   -25.8678     5.3107 H       
  82 H82            2.6707   -24.7127     6.6055 H       
  83 H83            0.5661   -24.0464     5.5165 H       
  84 H84            1.3680   -24.0432     3.9265 H       
@<TRIPOS>BOND
   1    1    2 1
   2    1   27 am
   3    1   47 1
   4    2    3 ar
   5    2    4 ar
   6    3    7 ar
   7    3   48 1
   8    4    5 ar
   9    5    6 ar
  10    6    7 ar
  11    6    8 1
  12    7   49 1
  13    8    9 1
  14    8   50 1
  15    8   51 1
  16    9   10 1
  17    9   52 1
  18    9   53 1
  19   10   11 1
  20   10   54 1
  21   10   55 1
  22   11   12 1
  23   11   56 1
  24   11   57 1
  25   12   13 2
  26   12   16 1
  27   13   14 1
  28   14   15 2
  29   15   16 1
  30   15   17 1
  31   17   18 am
  32   17   58 1
  33   18   19 1
  34   18   20 2
  35   19   21 1
  36   19   59 1
  37   19   60 1
  38   21   22 ar
  39   21   26 ar
  40   22   23 ar
  41   22   61 1
  42   23   24 ar
  43   23   62 1
  44   24   25 ar
  45   24   36 1
  46   25   26 ar
  47   25   63 1
  48   26   64 1
  49   27   28 2
  50   27   29 1
  51   29   30 1
  52   29   65 1
  53   29   66 1
  54   30   31 ar
  55   30   35 ar
  56   31   32 ar
  57   31   67 1
  58   32   33 ar
  59   32   68 1
  60   33   34 ar
  61   33   69 1
  62   34   35 ar
  63   34   70 1
  64   35   71 1
  65   36   37 1
  66   36   72 1
  67   36   73 1
  68   37   38 am
  69   37   74 1
  70   38   39 1
  71   38   40 2
  72   39   41 1
  73   39   75 1
  74   39   76 1
  75   41   42 1
  76   41   46 1
  77   42   43 1
  78   42   77 1
  79   42   78 1
  80   43   44 1
  81   43   79 1
  82   43   80 1
  83   44   45 1
  84   45   46 1
  85   45   81 1
  86   45   82 1
  87   46   83 1
  88   46   84 1

#	End of record

