#	Name: ASD03731833
#	Creating user name:	WinNT
#	Creation time:	15. 06. 2019 20:46

#	Modifying user name:	WinNT
#	Modification time:	15. 06. 2019 20:46

#	Program:	/corina/corina34_cracker 3.40 0067  02.08.2006

@<TRIPOS>MOLECULE
ASD03731833
  33   34    0    0    0
SMALL
NO_CHARGES


@<TRIPOS>ATOM
   1 C1            -0.4042     1.1042    -1.9602 C.2     
   2 C2            -0.2826    -0.2738    -1.4501 C.ar    
   3 C3             0.9013    -0.9943    -1.6488 C.ar    
   4 C4             1.0099    -2.2838    -1.1687 C.ar    
   5 C5            -0.0530    -2.8657    -0.4903 C.ar    
   6 C6            -1.2313    -2.1523    -0.2910 C.ar    
   7 C7            -1.3469    -0.8630    -0.7614 C.ar    
   8 O8             0.5247     1.6167    -2.5547 O.2     
   9 N9            -1.5468     1.7939    -1.7726 N.am    
  10 S10           -1.6833     3.3416    -2.3456 S.o2    
  11 O11           -2.9854     3.7488    -1.9481 O.2     
  12 O12           -0.5264     4.0018    -1.8508 O.2     
  13 C13           -1.5940     3.1662    -4.1489 C.3     
  14 O14            0.0574    -4.1341    -0.0206 O.3     
  15 C15            1.2598    -4.7566    -0.1405 C.ar    
  16 C16            2.2111    -4.6283     0.8612 C.ar    
  17 C17            3.4324    -5.2619     0.7382 C.ar    
  18 C18            3.7077    -6.0243    -0.3843 C.ar    
  19 C19            2.7593    -6.1533    -1.3849 C.ar    
  20 C20            1.5349    -5.5255    -1.2620 C.ar    
  21 F21            4.9029    -6.6426    -0.5036 F       
  22 F22            1.9351    -0.4287    -2.3095 F       
  23 Cl23          -2.5557    -2.8869     0.5575 Cl      
  24 H24            1.9224    -2.8411    -1.3211 H       
  25 H25           -2.2604    -0.3093    -0.6019 H       
  26 H26           -2.2892     1.3837    -1.3019 H       
  27 H27           -2.4104     2.5314    -4.4931 H       
  28 H28           -1.6766     4.1485    -4.6140 H       
  29 H29           -0.6411     2.7134    -4.4231 H       
  30 H30            1.9969    -4.0331     1.7366 H       
  31 H31            4.1731    -5.1622     1.5179 H       
  32 H32            2.9755    -6.7480    -2.2601 H       
  33 H33            0.7937    -5.6299    -2.0406 H       
@<TRIPOS>BOND
   1    1    2 1
   2    1    8 2
   3    1    9 am
   4    2    3 ar
   5    2    7 ar
   6    3    4 ar
   7    3   22 1
   8    4    5 ar
   9    4   24 1
  10    5    6 ar
  11    5   14 1
  12    6    7 ar
  13    6   23 1
  14    7   25 1
  15    9   10 am
  16    9   26 1
  17   10   11 2
  18   10   12 2
  19   10   13 1
  20   13   27 1
  21   13   28 1
  22   13   29 1
  23   14   15 1
  24   15   16 ar
  25   15   20 ar
  26   16   17 ar
  27   16   30 1
  28   17   18 ar
  29   17   31 1
  30   18   19 ar
  31   18   21 1
  32   19   20 ar
  33   19   32 1
  34   20   33 1

#	End of record

