#	Name: ASD02408386
#	Creating user name:	WinNT
#	Creation time:	15. 06. 2019 20:21

#	Modifying user name:	WinNT
#	Modification time:	15. 06. 2019 20:21

#	Program:	/corina/corina34_cracker 3.40 0067  02.08.2006

@<TRIPOS>MOLECULE
ASD02408386
  21   22    0    0    0
SMALL
NO_CHARGES


@<TRIPOS>ATOM
   1 C1            -0.0171     1.4103     0.0098 C.2     
   2 C2             0.0021    -0.0041     0.0020 C.2     
   3 C3             1.3081     1.8366    -0.0006 C.2     
   4 N4             2.0837     0.7212    -0.0140 N.pl3   
   5 N5             1.2443    -0.3983    -0.0120 N.2     
   6 C6             3.4807     0.6962    -0.0279 C.ar    
   7 C7             4.1541    -0.4123     0.4699 C.ar    
   8 C8             5.5383    -0.4242     0.4503 C.ar    
   9 C9             6.2024     0.6781    -0.0689 C.ar    
  10 C10            5.4682     1.7463    -0.5470 C.ar    
  11 N11            4.1498     1.7266    -0.5200 N.ar    
  12 N12            1.7504     3.1449     0.0018 N.pl3   
  13 C13           -1.1800     2.2458     0.0201 C.1     
  14 N14           -2.1026     2.9087     0.0283 N.1     
  15 H15           -0.8651    -0.6478     0.0072 H       
  16 H16            3.6052    -1.2533     0.8671 H       
  17 H17            6.0888    -1.2720     0.8306 H       
  18 H18            7.2817     0.7009    -0.0986 H       
  19 H19            5.9804     2.6065    -0.9520 H       
  20 H20            1.1099     3.8734     0.0119 H       
  21 H21            2.7014     3.3354    -0.0065 H       
@<TRIPOS>BOND
   1    1    2 1
   2    1    3 2
   3    1   13 1
   4    2    5 2
   5    2   15 1
   6    3    4 1
   7    3   12 1
   8    4    5 1
   9    4    6 1
  10    6    7 ar
  11    6   11 ar
  12    7    8 ar
  13    7   16 1
  14    8    9 ar
  15    8   17 1
  16    9   10 ar
  17    9   18 1
  18   10   11 ar
  19   10   19 1
  20   12   20 1
  21   12   21 1
  22   13   14 3

#	End of record

