#	Name: ASD01914387
#	Creating user name:	WinNT
#	Creation time:	15. 06. 2019 20:03

#	Modifying user name:	WinNT
#	Modification time:	15. 06. 2019 20:03

#	Program:	/corina/corina34_cracker 3.40 0067  02.08.2006

@<TRIPOS>MOLECULE
ASD01914387
  44   46    0    0    0
SMALL
NO_CHARGES


@<TRIPOS>ATOM
   1 C1            -0.0167     1.3806     0.0096 C.ar    
   2 C2             0.0021    -0.0041     0.0020 C.ar    
   3 C3             1.2096    -0.6818    -0.0132 C.ar    
   4 C4             2.3977     0.0225    -0.0203 C.ar    
   5 C5             2.3808     1.4105    -0.0127 C.ar    
   6 C6             1.1693     2.0882     0.0021 C.ar    
   7 N7             3.5864     2.1275    -0.0195 N.pl3   
   8 C8             4.6538     1.9285     0.8143 C.2     
   9 C9             5.6002     2.8369     0.4609 C.2     
  10 C10            6.9343     2.9979     1.0896 C.ar    
  11 C11            7.3550     2.1065     2.0746 C.ar    
  12 C12            8.5970     2.2606     2.6565 C.ar    
  13 C13            9.4240     3.2986     2.2635 C.ar    
  14 C14            9.0104     4.1872     1.2856 C.ar    
  15 C15            7.7734     4.0378     0.6930 C.ar    
  16 N16            5.1120     3.5661    -0.5631 N.2     
  17 C17            3.9141     3.1448    -0.8588 C.2     
  18 C18            3.0347     3.6986    -1.9501 C.3     
  19 C19            2.1910     4.8177    -1.3961 C.2     
  20 O20            2.2934     5.1332    -0.2343 O.2     
  21 O21            1.3259     5.4639    -2.1934 O.3     
  22 C22            0.5461     6.5310    -1.5921 C.3     
  23 C23           -0.3765     7.1451    -2.6469 C.3     
  24 Cl24          10.9848     3.4873     2.9997 Cl      
  25 F25           -1.1591    -0.6946     0.0099 F       
  26 C26            9.9157     5.3154     0.8628 C.3     
  27 H27           -0.9594     1.9075     0.0170 H       
  28 H28            1.2224    -1.7617    -0.0191 H       
  29 H29            3.3392    -0.5064    -0.0315 H       
  30 H30            1.1543     3.1681     0.0081 H       
  31 H31            4.7290     1.1920     1.6006 H       
  32 H32            6.7102     1.2967     2.3824 H       
  33 H33            8.9240     1.5702     3.4200 H       
  34 H34            7.4517     4.7315    -0.0697 H       
  35 H35            3.6570     4.0794    -2.7600 H       
  36 H36            2.3867     2.9089    -2.3303 H       
  37 H37           -0.0531     6.1276    -0.7758 H       
  38 H38            1.2173     7.2980    -1.2055 H       
  39 H39           -0.9618     7.9462    -2.1955 H       
  40 H40            0.2227     7.5486    -3.4631 H       
  41 H41           -1.0476     6.3782    -3.0334 H       
  42 H42           10.5476     4.9848     0.0385 H       
  43 H43            9.3124     6.1641     0.5405 H       
  44 H44           10.5419     5.6133     1.7038 H       
@<TRIPOS>BOND
   1    1    2 ar
   2    1    6 ar
   3    1   27 1
   4    2    3 ar
   5    2   25 1
   6    3    4 ar
   7    3   28 1
   8    4    5 ar
   9    4   29 1
  10    5    6 ar
  11    5    7 1
  12    6   30 1
  13    7    8 1
  14    7   17 1
  15    8    9 2
  16    8   31 1
  17    9   10 1
  18    9   16 1
  19   10   11 ar
  20   10   15 ar
  21   11   12 ar
  22   11   32 1
  23   12   13 ar
  24   12   33 1
  25   13   14 ar
  26   13   24 1
  27   14   15 ar
  28   14   26 1
  29   15   34 1
  30   16   17 2
  31   17   18 1
  32   18   19 1
  33   18   35 1
  34   18   36 1
  35   19   20 2
  36   19   21 1
  37   21   22 1
  38   22   23 1
  39   22   37 1
  40   22   38 1
  41   23   39 1
  42   23   40 1
  43   23   41 1
  44   26   42 1
  45   26   43 1
  46   26   44 1

#	End of record

