#	Name: ASD01913363
#	Creating user name:	WinNT
#	Creation time:	15. 06. 2019 20:01

#	Modifying user name:	WinNT
#	Modification time:	15. 06. 2019 20:01

#	Program:	/corina/corina34_cracker 3.40 0067  02.08.2006

@<TRIPOS>MOLECULE
ASD01913363
  40   42    0    0    0
SMALL
NO_CHARGES


@<TRIPOS>ATOM
   1 C1            -0.0166     1.3765     0.0096 C.2     
   2 C2             0.0021    -0.0041     0.0020 C.2     
   3 C3             1.2499    -0.6727    -0.0135 C.2     
   4 N4             2.3635     0.0159    -0.0204 N.2     
   5 C5             2.3514     1.3566    -0.0131 C.2     
   6 N6             1.1685     2.0507     0.0019 N.pl3   
   7 C7             3.3711     2.2994    -0.0173 C.2     
   8 C8             2.7831     3.5557    -0.0047 C.2     
   9 N9             1.4768     3.4160     0.0068 N.2     
  10 C10           -1.2215    -0.7480     0.0102 C.1     
  11 C11           -2.2246    -1.3579     0.0169 C.1     
  12 C12           -3.4482    -2.1018     0.0250 C.ar    
  13 C13           -3.4197    -3.4975     0.0173 C.ar    
  14 C14           -4.6088    -4.2101     0.0257 C.ar    
  15 C15           -5.8526    -2.1526     0.0549 C.ar    
  16 C16           -4.6757    -1.4332     0.0466 C.ar    
  17 C17           -5.8239    -3.5350     0.0414 C.ar    
  18 N18           -4.5860    -5.6069     0.0180 N.pl3   
  19 C19            3.5231     4.8685    -0.0038 C.3     
  20 C20            4.0861     5.1376    -1.4007 C.3     
  21 C21            2.5631     5.9947     0.3849 C.3     
  22 C22            4.6713     4.8060     1.0055 C.3     
  23 H23           -0.9539     1.9131     0.0170 H       
  24 H24            1.2833    -1.7522    -0.0192 H       
  25 H25            4.4309     2.0919    -0.0285 H       
  26 H26           -2.4747    -4.0202     0.0043 H       
  27 H27           -6.8000    -1.6343     0.0720 H       
  28 H28           -4.7025    -0.3535     0.0576 H       
  29 H29           -6.7490    -4.0923     0.0473 H       
  30 H30           -3.7382    -6.0781     0.0067 H       
  31 H31           -5.4179    -6.1056     0.0239 H       
  32 H32            3.2681     5.1821    -2.1198 H       
  33 H33            4.6213     6.0872    -1.4000 H       
  34 H34            4.7700     4.3353    -1.6776 H       
  35 H35            2.1620     5.8030     1.3801 H       
  36 H36            3.0984     6.9443     0.3856 H       
  37 H37            1.7452     6.0392    -0.3342 H       
  38 H38            5.3551     4.0037     0.7287 H       
  39 H39            5.2065     5.7556     1.0062 H       
  40 H40            4.2701     4.6143     2.0008 H       
@<TRIPOS>BOND
   1    1    2 2
   2    1    6 1
   3    1   23 1
   4    2    3 1
   5    2   10 1
   6    3    4 2
   7    3   24 1
   8    4    5 1
   9    5    6 1
  10    5    7 2
  11    6    9 1
  12    7    8 1
  13    7   25 1
  14    8    9 2
  15    8   19 1
  16   10   11 3
  17   11   12 1
  18   12   13 ar
  19   12   16 ar
  20   13   14 ar
  21   13   26 1
  22   14   17 ar
  23   14   18 1
  24   15   16 ar
  25   15   17 ar
  26   15   27 1
  27   16   28 1
  28   17   29 1
  29   18   30 1
  30   18   31 1
  31   19   20 1
  32   19   21 1
  33   19   22 1
  34   20   32 1
  35   20   33 1
  36   20   34 1
  37   21   35 1
  38   21   36 1
  39   21   37 1
  40   22   38 1
  41   22   39 1
  42   22   40 1

#	End of record

