#	Name: ASD01148270
#	Creating user name:	WinNT
#	Creation time:	15. 06. 2019 19:02

#	Modifying user name:	WinNT
#	Modification time:	15. 06. 2019 19:02

#	Program:	/corina/corina34_cracker 3.40 0067  02.08.2006

@<TRIPOS>MOLECULE
ASD01148270
  47   49    0    0    0
SMALL
NO_CHARGES


@<TRIPOS>ATOM
   1 C1            -0.0167     1.3802     0.0096 C.ar    
   2 C2             0.0021    -0.0041     0.0020 C.ar    
   3 C3            -1.1870    -0.7112     0.0101 C.ar    
   4 C4            -2.3926    -0.0358     0.0257 C.ar    
   5 C5            -2.4113     1.3467     0.0333 C.ar    
   6 C6            -1.2244     2.0547     0.0306 C.ar    
   7 C7            -3.7267     2.0819     0.0498 C.3     
   8 O8            -4.7310     1.3273     0.7580 O.3     
   9 C9            -3.6330     3.3655     0.9089 C.3     
  10 C10           -4.1234     2.8918     2.2639 C.2     
  11 N11           -4.7174     1.7567     2.1051 N.2     
  12 C12           -3.9510     3.6060     3.5441 C.ar    
  13 C13           -4.4543     3.0544     4.7251 C.ar    
  14 C14           -3.2795     4.8309     3.5758 C.ar    
  15 C15           -3.1188     5.4969     4.7697 C.ar    
  16 C16           -3.6267     4.9479     5.9498 C.ar    
  17 C17           -4.2935     3.7205     5.9189 C.ar    
  18 C18           -3.4538     5.6625     7.2312 C.2     
  19 O19           -2.8696     6.7281     7.2588 O.2     
  20 N20           -3.9437     5.1329     8.3696 N.am    
  21 C21           -4.1874     2.4064    -1.3726 C.3     
  22 F22           -4.3294     1.2193    -2.0991 F       
  23 F23           -5.4163     3.0733    -1.3241 F       
  24 F24           -3.2378     3.2235    -1.9954 F       
  25 Cl25           1.5168    -0.8520    -0.0182 Cl      
  26 Cl26           1.4744     2.2691     0.0002 Cl      
  27 C27           -3.7820     5.8012     9.5679 C.2     
  28 N28           -3.1616     6.9330     9.5972 N.2     
  29 O29           -2.9958     7.6179    10.8254 O.3     
  30 C30           -2.2916     8.8559    10.7100 C.3     
  31 C31           -1.1675    -2.2181     0.0013 C.3     
  32 F32           -2.4803    -2.7015     0.0118 F       
  33 F33           -0.5137    -2.6693    -1.1503 F       
  34 F34           -0.4905    -2.6823     1.1341 F       
  35 H35           -3.3206    -0.5882     0.0316 H       
  36 H36           -1.2398     3.1346     0.0365 H       
  37 H37           -2.6025     3.7152     0.9709 H       
  38 H38           -4.2840     4.1447     0.5125 H       
  39 H39           -4.9697     2.1057     4.7013 H       
  40 H40           -2.8863     5.2550     2.6637 H       
  41 H41           -2.5998     6.4437     4.7942 H       
  42 H42           -4.6864     3.2963     6.8311 H       
  43 H43           -4.4099     4.2826     8.3476 H       
  44 H44           -4.1746     5.3768    10.4802 H       
  45 H45           -1.2955     8.6712    10.3078 H       
  46 H46           -2.8357     9.5225    10.0409 H       
  47 H47           -2.2063     9.3185    11.6934 H       
@<TRIPOS>BOND
   1    1    2 ar
   2    1   26 1
   3    1    6 ar
   4    2    3 ar
   5    2   25 1
   6    3    4 ar
   7    3   31 1
   8    4    5 ar
   9    4   35 1
  10    5    6 ar
  11    5    7 1
  12    6   36 1
  13    7    8 1
  14    7    9 1
  15    7   21 1
  16    8   11 1
  17    9   10 1
  18    9   37 1
  19    9   38 1
  20   10   11 2
  21   10   12 1
  22   12   13 ar
  23   12   14 ar
  24   13   17 ar
  25   13   39 1
  26   14   15 ar
  27   14   40 1
  28   15   16 ar
  29   15   41 1
  30   16   17 ar
  31   16   18 1
  32   17   42 1
  33   18   19 2
  34   18   20 am
  35   20   27 1
  36   20   43 1
  37   21   22 1
  38   21   23 1
  39   21   24 1
  40   27   28 2
  41   27   44 1
  42   28   29 1
  43   29   30 1
  44   30   45 1
  45   30   46 1
  46   30   47 1
  47   31   32 1
  48   31   33 1
  49   31   34 1

#	End of record

