#	Name: ASD01911810
#	Creating user name:	WinNT
#	Creation time:	15. 06. 2019 19:58

#	Modifying user name:	WinNT
#	Modification time:	15. 06. 2019 19:58

#	Program:	/corina/corina34_cracker 3.40 0067  02.08.2006

@<TRIPOS>MOLECULE
ASD01911810
  34   36    0    0    0
SMALL
NO_CHARGES


@<TRIPOS>ATOM
   1 C1            -0.0129     0.0778    -1.8684 C.2     
   2 N2            -0.0089    -0.6039    -0.6788 N.pl3   
   3 C3             1.2000    -1.0665    -0.1723 C.2     
   4 C4             2.3832    -0.8116    -0.9112 C.2     
   5 C5             2.2826    -0.1285    -2.0779 C.2     
   6 N6             1.0898     0.2945    -2.5220 N.2     
   7 C7             0.9622    -1.7068     1.0052 C.2     
   8 C8            -0.4348    -1.6447     1.2451 C.2     
   9 C9            -1.0037    -0.9534     0.1797 C.2     
  10 C10           -1.1458    -2.2039     2.3992 C.2     
  11 O11           -2.3527    -2.0824     2.4871 O.2     
  12 O12           -0.4614    -2.8530     3.3631 O.3     
  13 N13           -2.3490    -0.6698     0.0217 N.pl3   
  14 C14           -2.8054     0.6495     0.1399 C.ar    
  15 C15           -4.1662     0.9256     0.0509 C.ar    
  16 C16           -4.6155     2.2270     0.1681 C.ar    
  17 C17           -3.7079     3.2589     0.3747 C.ar    
  18 C18           -2.3496     2.9821     0.4630 C.ar    
  19 C19           -1.9006     1.6806     0.3517 C.ar    
  20 S20           -4.2802     4.9187     0.5242 S.3     
  21 F21           -5.0477    -0.0782    -0.1505 F       
  22 C22           -2.7484     5.8573     0.7758 C.3     
  23 H23           -0.9484     0.4368    -2.2714 H       
  24 H24            3.3428    -1.1536    -0.5525 H       
  25 H25            3.1716     0.0765    -2.6558 H       
  26 H26            1.7003    -2.1753     1.6394 H       
  27 H27           -0.9735    -3.2043     4.1044 H       
  28 H28           -2.9759    -1.3845    -0.1708 H       
  29 H29           -5.6715     2.4422     0.0987 H       
  30 H30           -1.6445     3.7844     0.6233 H       
  31 H31           -0.8447     1.4657     0.4249 H       
  32 H32           -2.2494     5.5034     1.6779 H       
  33 H33           -2.0910     5.7166    -0.0821 H       
  34 H34           -2.9845     6.9161     0.8828 H       
@<TRIPOS>BOND
   1    1    2 1
   2    1    6 2
   3    1   23 1
   4    2    3 1
   5    2    9 1
   6    3    4 1
   7    3    7 2
   8    4    5 2
   9    4   24 1
  10    5    6 1
  11    5   25 1
  12    7    8 1
  13    7   26 1
  14    8    9 2
  15    8   10 1
  16    9   13 1
  17   10   11 2
  18   10   12 1
  19   12   27 1
  20   13   14 1
  21   13   28 1
  22   14   15 ar
  23   14   19 ar
  24   15   16 ar
  25   15   21 1
  26   16   17 ar
  27   16   29 1
  28   17   18 ar
  29   17   20 1
  30   18   19 ar
  31   18   30 1
  32   19   31 1
  33   20   22 1
  34   22   32 1
  35   22   33 1
  36   22   34 1

#	End of record

