#	Name: ASD01917835
#	Creating user name:	WinNT
#	Creation time:	15. 06. 2019 20:10

#	Modifying user name:	WinNT
#	Modification time:	15. 06. 2019 20:10

#	Program:	/corina/corina34_cracker 3.40 0067  02.08.2006

@<TRIPOS>MOLECULE
ASD01917835
  43   46    0    0    0
SMALL
NO_CHARGES


@<TRIPOS>ATOM
   1 C1            -0.0158     1.3232     0.0035 C.2     
   2 C2            -0.0105    -0.0237     0.0119 C.2     
   3 C3            -1.2488    -0.8835     0.0279 C.3     
   4 C4            -2.4392    -0.0291     0.4810 C.3     
   5 N5            -2.4060     1.2588    -0.2282 N.am    
   6 C6            -1.2687     2.1637     0.0191 C.3     
   7 C7            -3.3897     1.6029    -1.0828 C.2     
   8 O8            -4.2625     0.8036    -1.3581 O.2     
   9 O9             1.2602     1.7301    -0.0147 O.3     
  10 C10            2.0344     0.6334    -0.0138 C.2     
  11 N11            1.2683    -0.4229     0.0026 N.2     
  12 C12            3.5413     0.6238    -0.0297 C.3     
  13 O13            4.0033     0.6101    -1.3818 O.3     
  14 C14            5.3486     0.6001    -1.5741 C.ar    
  15 C15            5.8665     0.5866    -2.8610 C.ar    
  16 C16            7.2344     0.5764    -3.0538 C.ar    
  17 C17            8.0871     0.5796    -1.9654 C.ar    
  18 C18            7.5735     0.5926    -0.6818 C.ar    
  19 C19            6.2064     0.6090    -0.4838 C.ar    
  20 C20           -3.4069     2.9557    -1.6864 C.ar    
  21 C21           -3.8609     3.1521    -2.9926 C.ar    
  22 C22           -3.8596     4.4429    -3.5193 C.ar    
  23 N23           -3.4340     5.4695    -2.7934 N.ar    
  24 C24           -3.0004     5.3181    -1.5609 C.ar    
  25 C25           -2.9745     4.0709    -0.9614 C.ar    
  26 C26           -4.3215     4.6633    -4.8567 C.1     
  27 N27           -4.6880     4.8382    -5.9176 N.1     
  28 H28           -1.4374    -1.2709    -0.9733 H       
  29 H29           -1.1090    -1.7123     0.7219 H       
  30 H30           -3.3693    -0.5483     0.2499 H       
  31 H31           -2.3751     0.1447     1.5551 H       
  32 H32           -1.3810     2.6435     0.9914 H       
  33 H33           -1.2186     2.9194    -0.7648 H       
  34 H34            3.9156     1.5154     0.4732 H       
  35 H35            3.9044    -0.2644     0.4874 H       
  36 H36            5.2008     0.5837    -3.7115 H       
  37 H37            7.6381     0.5655    -4.0555 H       
  38 H38            9.1563     0.5716    -2.1182 H       
  39 H39            8.2416     0.5943     0.1667 H       
  40 H40            5.8056     0.6192     0.5191 H       
  41 H41           -4.2069     2.3179    -3.5848 H       
  42 H42           -2.6632     6.1813    -1.0064 H       
  43 H43           -2.6166     3.9589     0.0514 H       
@<TRIPOS>BOND
   1    1    2 2
   2    1    9 1
   3    1    6 1
   4    2    3 1
   5    2   11 1
   6    3    4 1
   7    3   28 1
   8    3   29 1
   9    4    5 1
  10    4   30 1
  11    4   31 1
  12    5    6 1
  13    5    7 am
  14    6   32 1
  15    6   33 1
  16    7    8 2
  17    7   20 1
  18    9   10 1
  19   10   11 2
  20   10   12 1
  21   12   13 1
  22   12   34 1
  23   12   35 1
  24   13   14 1
  25   14   15 ar
  26   14   19 ar
  27   15   16 ar
  28   15   36 1
  29   16   17 ar
  30   16   37 1
  31   17   18 ar
  32   17   38 1
  33   18   19 ar
  34   18   39 1
  35   19   40 1
  36   20   21 ar
  37   20   25 ar
  38   21   22 ar
  39   21   41 1
  40   22   26 1
  41   22   23 ar
  42   23   24 ar
  43   24   25 ar
  44   24   42 1
  45   25   43 1
  46   26   27 3

#	End of record

