#	Name: ASD03731479
#	Creating user name:	WinNT
#	Creation time:	15. 06. 2019 20:45

#	Modifying user name:	WinNT
#	Modification time:	15. 06. 2019 20:45

#	Program:	/corina/corina34_cracker 3.40 0067  02.08.2006

@<TRIPOS>MOLECULE
ASD03731479
  58   64    0    0    0
SMALL
NO_CHARGES


@<TRIPOS>ATOM
   1 O1            -0.0162     1.3453     0.0094 O.3     
   2 C2             0.0021    -0.0041     0.0020 C.2     
   3 C3             1.2863    -0.4454    -0.0126 C.2     
   4 C4             2.1262     0.7519    -0.0142 C.ar    
   5 C5             1.2359     1.8422     0.0002 C.ar    
   6 C6             1.7476     3.1344     0.0015 C.ar    
   7 C7             3.1117     3.3322    -0.0111 C.ar    
   8 C8             3.9850     2.2535    -0.0252 C.ar    
   9 C9             3.5050     0.9740    -0.0265 C.ar    
  10 C10           -1.1884    -0.8661     0.0092 C.2     
  11 O11           -1.0632    -2.0761     0.0019 O.2     
  12 N12           -2.4187    -0.3159     0.0238 N.am    
  13 C13           -3.6052    -1.1751     0.0310 C.3     
  14 C14           -4.8642    -0.3058     0.0475 C.3     
  15 C15           -6.1034    -1.2031     0.0550 C.3     
  16 O16           -7.5205     5.5278    -2.0373 O.3     
  17 C17           -8.4140     6.6335    -2.2654 C.3     
  18 O18           -9.6073     6.0098    -2.7752 O.3     
  19 C19           -9.6102     4.7467    -2.2561 C.ar    
  20 C20           -8.3265     4.4505    -1.8035 C.ar    
  21 C21          -10.6210     3.8108    -2.1302 C.ar    
  22 C22          -10.3653     2.5699    -1.5545 C.ar    
  23 C23           -9.0771     2.2825    -1.1137 C.ar    
  24 C24           -8.0685     3.2158    -1.2322 C.ar    
  25 O25          -11.2112     1.5254    -1.3228 O.3     
  26 C26           -9.1115     0.8773    -0.5752 C.3     
  27 C27          -10.4399     0.3270    -1.1121 C.3     
  28 N28           -7.3089    -0.3708     0.0708 N.am    
  29 C29           -7.9392     0.0619    -1.0394 C.2     
  30 C30           -9.0546     0.8386     0.9232 C.ar    
  31 C31           -9.8359     1.3804     1.9193 C.ar    
  32 C32           -9.5176     1.1589     3.2474 C.ar    
  33 C33           -8.4127     0.3929     3.5718 C.ar    
  34 C34           -7.6265    -0.1512     2.5777 C.ar    
  35 C35           -7.9396     0.0662     1.2382 C.ar    
  36 O36           -7.6218    -0.1635    -2.1881 O.2     
  37 H37            1.6199    -1.4726    -0.0210 H       
  38 H38            1.0780     3.9816     0.0121 H       
  39 H39            3.5054     4.3379    -0.0104 H       
  40 H40            5.0510     2.4265    -0.0350 H       
  41 H41            4.1889     0.1382    -0.0372 H       
  42 H42           -2.5184     0.6489     0.0296 H       
  43 H43           -3.6068    -1.7999    -0.8622 H       
  44 H44           -3.5896    -1.8088     0.9177 H       
  45 H45           -4.8627     0.3190     0.9406 H       
  46 H46           -4.8798     0.3279    -0.8392 H       
  47 H47           -6.1050    -1.8279    -0.8382 H       
  48 H48           -6.0878    -1.8369     0.9417 H       
  49 H49           -8.6236     7.1554    -1.3317 H       
  50 H50           -7.9951     7.3186    -3.0025 H       
  51 H51          -11.6153     4.0447    -2.4810 H       
  52 H52           -7.0748     2.9829    -0.8789 H       
  53 H53          -10.9186    -0.3168    -0.3743 H       
  54 H54          -10.2872    -0.2052    -2.0510 H       
  55 H55          -10.6981     1.9784     1.6636 H       
  56 H56          -10.1306     1.5830     4.0289 H       
  57 H57           -8.1642     0.2201     4.6086 H       
  58 H58           -6.7650    -0.7478     2.8390 H       
@<TRIPOS>BOND
   1    1    2 1
   2    1    5 1
   3    2    3 2
   4    2   10 1
   5    3    4 1
   6    3   37 1
   7    4    5 ar
   8    4    9 ar
   9    5    6 ar
  10    6    7 ar
  11    6   38 1
  12    7    8 ar
  13    7   39 1
  14    8    9 ar
  15    8   40 1
  16    9   41 1
  17   10   11 2
  18   10   12 am
  19   12   13 1
  20   12   42 1
  21   13   14 1
  22   13   43 1
  23   13   44 1
  24   14   15 1
  25   14   45 1
  26   14   46 1
  27   15   28 1
  28   15   47 1
  29   15   48 1
  30   16   17 1
  31   16   20 1
  32   17   18 1
  33   17   49 1
  34   17   50 1
  35   18   19 1
  36   19   20 ar
  37   19   21 ar
  38   20   24 ar
  39   21   22 ar
  40   21   51 1
  41   22   23 ar
  42   22   25 1
  43   23   24 ar
  44   23   26 1
  45   24   52 1
  46   25   27 1
  47   26   27 1
  48   26   29 1
  49   26   30 1
  50   27   53 1
  51   27   54 1
  52   28   29 am
  53   28   35 1
  54   29   36 2
  55   30   31 ar
  56   30   35 ar
  57   31   32 ar
  58   31   55 1
  59   32   33 ar
  60   32   56 1
  61   33   34 ar
  62   33   57 1
  63   34   35 ar
  64   34   58 1

#	End of record

