#	Name: ASD08170113
#	Creating user name:	WinNT
#	Creation time:	15. 06. 2019 21:17

#	Modifying user name:	WinNT
#	Modification time:	15. 06. 2019 21:17

#	Program:	/corina/corina34_cracker 3.40 0067  02.08.2006

@<TRIPOS>MOLECULE
ASD08170113
  74   77    0    0    0
SMALL
NO_CHARGES


@<TRIPOS>ATOM
   1 C1            -0.0187     1.5258     0.0104 C.3     
   2 C2             0.0021    -0.0041     0.0020 C.3     
   3 C3             1.4167     2.0553    -0.0004 C.3     
   4 C4             1.3960     3.5852     0.0080 C.3     
   5 C5             2.8098     4.1068    -0.0027 C.2     
   6 C6            -1.4117    -0.5257     0.0127 C.2     
   7 S7             3.7994     4.4593     1.4143 S.3     
   8 C8             5.0770     4.9390     0.3786 C.2     
   9 N9             4.6867     4.8059    -0.8531 N.2     
  10 N10            3.5185     4.3715    -1.0541 N.2     
  11 S11           -2.3742    -0.8935     1.4445 S.3     
  12 N12           -2.1404    -0.7792    -1.0277 N.2     
  13 N13           -3.3061    -1.2119    -0.8091 N.2     
  14 C14           -3.6713    -1.3622     0.4283 C.2     
  15 N15           -4.9107    -1.8251     0.8572 N.am    
  16 C16           -5.8536    -2.1613    -0.0452 C.2     
  17 O17           -5.6213    -2.0602    -1.2312 O.2     
  18 N18            6.3249     5.3958     0.7887 N.am    
  19 C19            7.2495     5.7444    -0.1278 C.2     
  20 C20            8.6017     6.2394     0.3166 C.3     
  21 O21            6.9932     5.6598    -1.3102 O.2     
  22 C22           -7.1965    -2.6628     0.4196 C.3     
  23 C23            9.4419     6.5593    -0.8929 C.ar    
  24 C24           -8.0610    -2.9663    -0.7770 C.ar    
  25 C25            9.4118     7.8300    -1.4371 C.ar    
  26 C26           -8.0419    -4.2290    -1.3391 C.ar    
  27 C27           10.1836     8.1258    -2.5490 C.ar    
  28 C28           10.9881     7.1415    -3.1157 C.ar    
  29 C29           11.0135     5.8703    -2.5654 C.ar    
  30 C30           10.2452     5.5833    -1.4524 C.ar    
  31 C31           -8.8331    -4.5123    -2.4369 C.ar    
  32 C32           -9.6475    -3.5297    -2.9760 C.ar    
  33 C33           -9.6667    -2.2584    -2.4101 C.ar    
  34 C34           -8.8757    -1.9826    -1.3066 C.ar    
  35 O35          -10.4644    -1.2904    -2.9356 O.3     
  36 C36          -10.4328    -0.0094    -2.3031 C.3     
  37 O37           10.1549     9.3750    -3.0858 O.3     
  38 C38            9.3060    10.3340    -2.4521 C.3     
  39 O39          -10.4261    -3.8066    -4.0561 O.3     
  40 C40          -10.3547    -5.1325    -4.5844 C.3     
  41 O41           11.7471     7.4269    -4.2075 O.3     
  42 C42           12.5481     6.3678    -4.7355 C.3     
  43 H43           -0.5459     1.8868    -0.8726 H       
  44 H44           -0.5289     1.8773     0.9072 H       
  45 H45            0.5123    -0.3556    -0.8948 H       
  46 H46            0.5293    -0.3651     0.8851 H       
  47 H47            1.9439     1.6943     0.8826 H       
  48 H48            1.9269     1.7038    -0.8972 H       
  49 H49            0.8688     3.9463    -0.8751 H       
  50 H50            0.8858     3.9367     0.9048 H       
  51 H51           -5.0964    -1.9059     1.8058 H       
  52 H52            6.5298     5.4635     1.7344 H       
  53 H53            8.4790     7.1377     0.9216 H       
  54 H54            9.0948     5.4678     0.9077 H       
  55 H55           -7.0615    -3.5694     1.0095 H       
  56 H56           -7.6776    -1.8996     1.0312 H       
  57 H57            8.7865     8.5919    -0.9957 H       
  58 H58           -7.4072    -4.9958    -0.9200 H       
  59 H59           11.6366     5.1046    -3.0035 H       
  60 H60           10.2662     4.5921    -1.0241 H       
  61 H61           -8.8161    -5.4996    -2.8745 H       
  62 H62           -8.8890    -0.9970    -0.8653 H       
  63 H63          -11.1129     0.6678    -2.8198 H       
  64 H64          -10.7415    -0.1103    -1.2626 H       
  65 H65           -9.4200     0.3913    -2.3445 H       
  66 H66            9.3769    11.2859    -2.9784 H       
  67 H67            8.2753     9.9803    -2.4781 H       
  68 H68            9.6183    10.4674    -1.4164 H       
  69 H69           -9.3325    -5.3440    -4.8982 H       
  70 H70          -10.6542    -5.8461    -3.8168 H       
  71 H71          -11.0230    -5.2187    -5.4412 H       
  72 H72           13.2484     6.0270    -3.9729 H       
  73 H73           11.9049     5.5400    -5.0342 H       
  74 H74           13.1020     6.7286    -5.6022 H       
@<TRIPOS>BOND
   1    1    2 1
   2    1    3 1
   3    1   43 1
   4    1   44 1
   5    2    6 1
   6    2   45 1
   7    2   46 1
   8    3    4 1
   9    3   47 1
  10    3   48 1
  11    4    5 1
  12    4   49 1
  13    4   50 1
  14    5    7 1
  15    5   10 2
  16    6   11 1
  17    6   12 2
  18    7    8 1
  19    8    9 2
  20    8   18 1
  21    9   10 1
  22   11   14 1
  23   12   13 1
  24   13   14 2
  25   14   15 1
  26   15   16 am
  27   15   51 1
  28   16   17 2
  29   16   22 1
  30   18   19 am
  31   18   52 1
  32   19   20 1
  33   19   21 2
  34   20   23 1
  35   20   53 1
  36   20   54 1
  37   22   24 1
  38   22   55 1
  39   22   56 1
  40   23   25 ar
  41   23   30 ar
  42   24   26 ar
  43   24   34 ar
  44   25   27 ar
  45   25   57 1
  46   26   31 ar
  47   26   58 1
  48   27   28 ar
  49   27   37 1
  50   28   29 ar
  51   28   41 1
  52   29   30 ar
  53   29   59 1
  54   30   60 1
  55   31   32 ar
  56   31   61 1
  57   32   33 ar
  58   32   39 1
  59   33   34 ar
  60   33   35 1
  61   34   62 1
  62   35   36 1
  63   36   63 1
  64   36   64 1
  65   36   65 1
  66   37   38 1
  67   38   66 1
  68   38   67 1
  69   38   68 1
  70   39   40 1
  71   40   69 1
  72   40   70 1
  73   40   71 1
  74   41   42 1
  75   42   72 1
  76   42   73 1
  77   42   74 1

#	End of record

