#	Name: ASD07301067
#	Creating user name:	WinNT
#	Creation time:	15. 06. 2019 21:10

#	Modifying user name:	WinNT
#	Modification time:	15. 06. 2019 21:10

#	Program:	/corina/corina34_cracker 3.40 0067  02.08.2006

@<TRIPOS>MOLECULE
ASD07301067
  27   27    0    0    0
SMALL
NO_CHARGES


@<TRIPOS>ATOM
   1 C1            -0.5382     0.5496     1.2999 C.3     
   2 C2             0.0024    -0.0038     0.0067 C.2     
   3 C3             1.3291    -0.6208    -0.0274 C.2     
   4 C4             1.4656    -2.0710     0.1150 C.2     
   5 C5             2.8317    -2.7063     0.0800 C.3     
   6 O6            -0.6623     0.0622    -1.0066 O.2     
   7 O7             0.4786    -2.7619     0.2613 O.2     
   8 N8             2.4058     0.1329    -0.1870 N.2     
   9 N9             2.2806     1.3963    -0.4155 N.pl3   
  10 C10            3.4083     2.1709    -0.6886 C.ar    
  11 C11            3.2752     3.5342    -0.9354 C.ar    
  12 C12            4.3979     4.2985    -1.2054 C.ar    
  13 C13            5.6497     3.7064    -1.2295 C.ar    
  14 C14            5.7826     2.3520    -0.9844 C.ar    
  15 C15            4.6680     1.5843    -0.7091 C.ar    
  16 F16            4.2720     5.6220    -1.4458 F       
  17 F17            2.0535     4.1103    -0.9120 F       
  18 H18            0.1544     0.3222     2.1102 H       
  19 H19           -0.6534     1.6300     1.2128 H       
  20 H20           -1.5068     0.0969     1.5121 H       
  21 H21            3.5882    -1.9338    -0.0578 H       
  22 H22            3.0133    -3.2294     1.0188 H       
  23 H23            2.8816    -3.4152    -0.7465 H       
  24 H24            1.4023     1.8077    -0.3975 H       
  25 H25            6.5242     4.3040    -1.4406 H       
  26 H26            6.7606     1.8944    -1.0042 H       
  27 H27            4.7750     0.5275    -0.5136 H       
@<TRIPOS>BOND
   1    1    2 1
   2    1   18 1
   3    1   19 1
   4    1   20 1
   5    2    3 1
   6    2    6 2
   7    3    4 1
   8    3    8 2
   9    4    5 1
  10    4    7 2
  11    5   21 1
  12    5   22 1
  13    5   23 1
  14    8    9 1
  15    9   10 1
  16    9   24 1
  17   10   11 ar
  18   10   15 ar
  19   11   12 ar
  20   11   17 1
  21   12   13 ar
  22   12   16 1
  23   13   14 ar
  24   13   25 1
  25   14   15 ar
  26   14   26 1
  27   15   27 1

#	End of record

