#	Name: ASD01820210
#	Creating user name:	WinNT
#	Creation time:	15. 06. 2019 19:36

#	Modifying user name:	WinNT
#	Modification time:	15. 06. 2019 19:36

#	Program:	/corina/corina34_cracker 3.40 0067  02.08.2006

@<TRIPOS>MOLECULE
ASD01820210
 104  105    0    0    0
SMALL
NO_CHARGES


@<TRIPOS>ATOM
   1 C1            -0.0167     1.3772     0.0096 C.ar    
   2 C2             0.0021    -0.0041     0.0020 C.ar    
   3 C3             1.2134    -0.6801    -0.0132 C.ar    
   4 C4             2.4032     0.0333    -0.0208 C.ar    
   5 C5             2.3791     1.4145    -0.0132 C.ar    
   6 C6             1.1705     2.0859     0.0021 C.ar    
   7 O7             1.2345    -2.0389    -0.0203 O.3     
   8 C8            -0.0285    -2.7074    -0.0113 C.3     
   9 C9             3.7209    -0.6979    -0.0369 C.3     
  10 N10            4.0195    -1.1389    -1.4059 N.3     
  11 C11            5.2998    -1.8571    -1.4602 C.3     
  12 C12            5.5758    -2.2996    -2.8985 C.3     
  13 C13            6.9093    -3.0476    -2.9550 C.3     
  14 C14            7.1853    -3.4901    -4.3934 C.3     
  15 C15            8.5187    -4.2382    -4.4499 C.3     
  16 C16            8.7948    -4.6806    -5.8883 C.3     
  17 N17           10.0750    -5.3989    -5.9425 N.3     
  18 C18           10.3737    -5.8399    -7.3116 C.3     
  19 C19           11.7114    -6.5822    -7.3279 C.3     
  20 C20           12.0225    -7.0415    -8.7538 C.3     
  21 C21           13.3602    -7.7839    -8.7701 C.3     
  22 C22           13.6713    -8.2432   -10.1960 C.3     
  23 C23           15.0090    -8.9855   -10.2123 C.3     
  24 C24           15.3201    -9.4448   -11.6382 C.3     
  25 C25           16.6578   -10.1871   -11.6545 C.3     
  26 N26           16.9564   -10.6281   -13.0235 N.3     
  27 C27           18.2367   -11.3464   -13.0778 C.3     
  28 C28           18.5127   -11.7888   -14.5162 C.3     
  29 C29           19.8462   -12.5369   -14.5727 C.3     
  30 C30           20.1222   -12.9794   -16.0110 C.3     
  31 C31           21.4557   -13.7274   -16.0675 C.3     
  32 C32           21.7317   -14.1699   -17.5059 C.3     
  33 N33           23.0120   -14.8882   -17.5602 N.3     
  34 C34           23.3106   -15.3291   -18.9292 C.3     
  35 C35           24.6282   -16.0603   -18.9453 C.ar    
  36 C36           25.7742   -15.4109   -19.3618 C.ar    
  37 C37           26.9835   -16.0811   -19.3763 C.ar    
  38 C38           27.0492   -17.4023   -18.9742 C.ar    
  39 C39           25.9061   -18.0563   -18.5572 C.ar    
  40 C40           24.6925   -17.3844   -18.5363 C.ar    
  41 O41           23.5666   -18.0254   -18.1260 O.3     
  42 C42           23.7055   -19.3914   -17.7299 C.3     
  43 H43           -0.9595     1.9040     0.0169 H       
  44 H44           -0.9255    -0.5572     0.0083 H       
  45 H45            3.3051     1.9703    -0.0187 H       
  46 H46            1.1538     3.1658     0.0080 H       
  47 H47           -0.5986    -2.4188    -0.8943 H       
  48 H48            0.1311    -3.7856    -0.0183 H       
  49 H49           -0.5812    -2.4277     0.8855 H       
  50 H50            4.5104    -0.0315     0.3106 H       
  51 H51            3.6628    -1.5658     0.6199 H       
  52 H52            3.2708    -1.7060    -1.7745 H       
  53 H53            6.1003    -1.1988    -1.1226 H       
  54 H54            5.2527    -2.7331    -0.8132 H       
  55 H55            4.7753    -2.9579    -3.2361 H       
  56 H56            5.6230    -1.4236    -3.5454 H       
  57 H57            7.7098    -2.3893    -2.6175 H       
  58 H58            6.8621    -3.9237    -2.3081 H       
  59 H59            6.3848    -4.1484    -4.7310 H       
  60 H60            7.2324    -2.6141    -5.0403 H       
  61 H61            9.3192    -3.5799    -4.1123 H       
  62 H62            8.4716    -5.1142    -3.8030 H       
  63 H63            7.9943    -5.3389    -6.2259 H       
  64 H64            8.8419    -3.8046    -6.5352 H       
  65 H65           10.8237    -4.8317    -5.5739 H       
  66 H66            9.5841    -6.5062    -7.6590 H       
  67 H67           10.4318    -4.9719    -7.9683 H       
  68 H68           12.5010    -5.9159    -6.9804 H       
  69 H69           11.6533    -7.4502    -6.6711 H       
  70 H70           11.2329    -7.7079    -9.1012 H       
  71 H71           12.0806    -6.1736    -9.4106 H       
  72 H72           14.1498    -7.1175    -8.4226 H       
  73 H73           13.3021    -8.6518    -8.1133 H       
  74 H74           12.8817    -8.9095   -10.5434 H       
  75 H75           13.7294    -7.3752   -10.8528 H       
  76 H76           15.7986    -8.3192    -9.8648 H       
  77 H77           14.9509    -9.8535    -9.5555 H       
  78 H78           14.5305   -10.1111   -11.9856 H       
  79 H79           15.3781    -8.5768   -12.2950 H       
  80 H80           17.4473    -9.5208   -11.3070 H       
  81 H81           16.5997   -11.0551   -10.9977 H       
  82 H82           16.2078   -11.1953   -13.3922 H       
  83 H83           19.0372   -10.6881   -12.7402 H       
  84 H84           18.1896   -12.2224   -12.4309 H       
  85 H85           17.7123   -12.4471   -14.8537 H       
  86 H86           18.5599   -10.9128   -15.1631 H       
  87 H87           20.6467   -11.8786   -14.2351 H       
  88 H88           19.7991   -13.4129   -13.9258 H       
  89 H89           19.3217   -13.6377   -16.3486 H       
  90 H90           20.1694   -12.1034   -16.6579 H       
  91 H91           22.2562   -13.0691   -15.7300 H       
  92 H92           21.4085   -14.6035   -15.4206 H       
  93 H93           20.9312   -14.8282   -17.8435 H       
  94 H94           21.7788   -13.2939   -18.1528 H       
  95 H95           23.7606   -14.3210   -17.1915 H       
  96 H96           22.5211   -15.9955   -19.2766 H       
  97 H97           23.3687   -14.4612   -19.5860 H       
  98 H98           25.7253   -14.3790   -19.6768 H       
  99 H99           27.8782   -15.5718   -19.7027 H       
 100 H100          27.9950   -17.9236   -18.9864 H       
 101 H101          25.9578   -19.0886   -18.2438 H       
 102 H102          24.4017   -19.4583   -16.8939 H       
 103 H103          22.7344   -19.7822   -17.4262 H       
 104 H104          24.0864   -19.9757   -18.5676 H       
@<TRIPOS>BOND
   1    1    2 ar
   2    1    6 ar
   3    1   43 1
   4    2    3 ar
   5    2   44 1
   6    3    4 ar
   7    3    7 1
   8    4    5 ar
   9    4    9 1
  10    5    6 ar
  11    5   45 1
  12    6   46 1
  13    7    8 1
  14    8   47 1
  15    8   48 1
  16    8   49 1
  17    9   10 1
  18    9   50 1
  19    9   51 1
  20   10   11 1
  21   10   52 1
  22   11   12 1
  23   11   53 1
  24   11   54 1
  25   12   13 1
  26   12   55 1
  27   12   56 1
  28   13   14 1
  29   13   57 1
  30   13   58 1
  31   14   15 1
  32   14   59 1
  33   14   60 1
  34   15   16 1
  35   15   61 1
  36   15   62 1
  37   16   17 1
  38   16   63 1
  39   16   64 1
  40   17   18 1
  41   17   65 1
  42   18   19 1
  43   18   66 1
  44   18   67 1
  45   19   20 1
  46   19   68 1
  47   19   69 1
  48   20   21 1
  49   20   70 1
  50   20   71 1
  51   21   22 1
  52   21   72 1
  53   21   73 1
  54   22   23 1
  55   22   74 1
  56   22   75 1
  57   23   24 1
  58   23   76 1
  59   23   77 1
  60   24   25 1
  61   24   78 1
  62   24   79 1
  63   25   26 1
  64   25   80 1
  65   25   81 1
  66   26   27 1
  67   26   82 1
  68   27   28 1
  69   27   83 1
  70   27   84 1
  71   28   29 1
  72   28   85 1
  73   28   86 1
  74   29   30 1
  75   29   87 1
  76   29   88 1
  77   30   31 1
  78   30   89 1
  79   30   90 1
  80   31   32 1
  81   31   91 1
  82   31   92 1
  83   32   33 1
  84   32   93 1
  85   32   94 1
  86   33   34 1
  87   33   95 1
  88   34   35 1
  89   34   96 1
  90   34   97 1
  91   35   36 ar
  92   35   40 ar
  93   36   37 ar
  94   36   98 1
  95   37   38 ar
  96   37   99 1
  97   38   39 ar
  98   38  100 1
  99   39   40 ar
 100   39  101 1
 101   40   41 1
 102   41   42 1
 103   42  102 1
 104   42  103 1
 105   42  104 1

#	End of record

