#	Name: ASD03081176
#	Creating user name:	WinNT
#	Creation time:	15. 06. 2019 20:27

#	Modifying user name:	WinNT
#	Modification time:	15. 06. 2019 20:27

#	Program:	/corina/corina34_cracker 3.40 0067  02.08.2006

@<TRIPOS>MOLECULE
ASD03081176
  48   50    0    0    0
SMALL
NO_CHARGES


@<TRIPOS>ATOM
   1 C1            -0.1510     1.7324    -0.3413 C.3     
   2 C2            -0.1219     0.2094    -0.1783 C.3     
   3 N3             0.7470    -0.3607    -1.2169 N.am    
   4 C4             2.1185     0.1498    -1.3485 C.3     
   5 C5             2.0651     1.6734    -1.4988 C.3     
   6 C6             1.2809     2.2709    -0.3289 C.3     
   7 C7             1.2534     3.7960    -0.4588 C.3     
   8 C8             0.5216     4.3925     0.7457 C.3     
   9 N9             1.2105     4.0001     1.9818 N.3     
  10 C10            1.2071     2.5415     2.1518 C.3     
  11 C11            1.9589     1.8892     0.9892 C.3     
  12 C12            0.6188     4.6675     3.1490 C.3     
  13 C13            0.2949    -1.3336    -2.0327 C.2     
  14 C14           -1.0375    -1.9269    -1.8061 C.ar    
  15 C15           -1.8781    -2.1959    -2.8898 C.ar    
  16 C16           -3.1210    -2.7497    -2.6738 C.ar    
  17 C17           -3.5392    -3.0404    -1.3792 C.ar    
  18 C18           -2.7060    -2.7738    -0.3000 C.ar    
  19 C19           -1.4592    -2.2263    -0.5084 C.ar    
  20 O20            0.9847    -1.7225    -2.9554 O.2     
  21 O21           -4.7645    -3.5856    -1.1700 O.3     
  22 C22           -5.1303    -3.8589     0.1841 C.3     
  23 Cl23          -4.1667    -3.0845    -4.0186 Cl      
  24 H24           -0.6275     1.9878    -1.2878 H       
  25 H25           -0.7134     2.1755     0.4806 H       
  26 H26            0.2700    -0.0452     0.8064 H       
  27 H27           -1.1307    -0.1890    -0.2866 H       
  28 H28            2.6920    -0.1098    -0.4587 H       
  29 H29            2.5884    -0.2880    -2.2292 H       
  30 H30            3.0786     2.0745    -1.4998 H       
  31 H31            1.5713     1.9294    -2.4362 H       
  32 H32            2.2742     4.1771    -0.4897 H       
  33 H33            0.7328     4.0739    -1.3752 H       
  34 H34            0.5133     5.4794     0.6639 H       
  35 H35           -0.5033     4.0222     0.7679 H       
  36 H36            1.6968     2.2842     3.0909 H       
  37 H37            0.1789     2.1802     2.1676 H       
  38 H38            1.9416     0.8057     1.1069 H       
  39 H39            2.9914     2.2385     0.9819 H       
  40 H40           -0.4322     4.3907     3.2317 H       
  41 H41            1.1478     4.3592     4.0507 H       
  42 H42            0.7018     5.7479     3.0305 H       
  43 H43           -1.5540    -1.9696    -3.8949 H       
  44 H44           -3.0345    -3.0003     0.7036 H       
  45 H45           -0.8105    -2.0240     0.3310 H       
  46 H46           -4.4191    -4.5618     0.6178 H       
  47 H47           -5.1204    -2.9319     0.7573 H       
  48 H48           -6.1305    -4.2915     0.2100 H       
@<TRIPOS>BOND
   1    1    2 1
   2    1    6 1
   3    1   24 1
   4    1   25 1
   5    2    3 1
   6    2   26 1
   7    2   27 1
   8    3    4 1
   9    3   13 am
  10    4    5 1
  11    4   28 1
  12    4   29 1
  13    5    6 1
  14    5   30 1
  15    5   31 1
  16    6    7 1
  17    6   11 1
  18    7    8 1
  19    7   32 1
  20    7   33 1
  21    8    9 1
  22    8   34 1
  23    8   35 1
  24    9   10 1
  25    9   12 1
  26   10   11 1
  27   10   36 1
  28   10   37 1
  29   11   38 1
  30   11   39 1
  31   12   40 1
  32   12   41 1
  33   12   42 1
  34   13   14 1
  35   13   20 2
  36   14   15 ar
  37   14   19 ar
  38   15   16 ar
  39   15   43 1
  40   16   17 ar
  41   16   23 1
  42   17   18 ar
  43   17   21 1
  44   18   19 ar
  45   18   44 1
  46   19   45 1
  47   21   22 1
  48   22   46 1
  49   22   47 1
  50   22   48 1

#	End of record

