#	Name: ASD02501050
#	Creating user name:	WinNT
#	Creation time:	15. 06. 2019 20:23

#	Modifying user name:	WinNT
#	Modification time:	15. 06. 2019 20:23

#	Program:	/corina/corina34_cracker 3.40 0067  02.08.2006

@<TRIPOS>MOLECULE
ASD02501050
  34   37    0    0    0
SMALL
NO_CHARGES


@<TRIPOS>ATOM
   1 Br1            0.0785    -1.9186     5.1136 Br      
   2 C2            -0.0178     1.4608     0.0101 C.3     
   3 C3             0.0251    -2.1252    -0.7301 C.2     
   4 C4             0.0023    -0.7851    -1.1280 C.2     
   5 C5            -0.0146    -0.4927    -2.5085 C.2     
   6 N6            -0.0083    -1.5063    -3.3974 N.am    
   7 N7             0.0141    -2.8381    -2.9737 N.2     
   8 C8             0.0352    -3.1465    -1.7078 C.2     
   9 C9             0.0390    -2.1248     0.7332 C.2     
  10 C10            0.0243    -0.8097     1.1412 C.2     
  11 N11            0.0021    -0.0041     0.0020 N.pl3   
  12 S12            0.0674    -3.1835     2.1383 S.3     
  13 C13            0.0590    -1.8050     3.2261 C.2     
  14 C14            0.0361    -0.6711     2.5347 C.2     
  15 C15           -0.0258    -1.2069    -4.8314 C.3     
  16 C16            1.3888    -1.0840    -5.3362 C.ar    
  17 C17            2.1247    -2.2222    -5.6181 C.ar    
  18 C18            3.4245    -2.1077    -6.0819 C.ar    
  19 C19            3.9855    -0.8579    -6.2627 C.ar    
  20 C20            3.2495     0.2781    -5.9808 C.ar    
  21 C21            1.9500     0.1652    -5.5233 C.ar    
  22 O22           -0.0350     0.6655    -2.8937 O.2     
  23 F23            1.5754    -3.4436    -5.4405 F       
  24 H24            1.0048     1.8381     0.0023 H       
  25 H25           -0.5450     1.8219    -0.8730 H       
  26 H26           -0.5280     1.8123     0.9069 H       
  27 H27            0.0523    -4.1831    -1.4051 H       
  28 H28            0.0274     0.2955     3.0162 H       
  29 H29           -0.5332    -2.0111    -5.3643 H       
  30 H30           -0.5546    -0.2688    -5.0003 H       
  31 H31            3.9997    -2.9949    -6.3018 H       
  32 H32            4.9993    -0.7684    -6.6240 H       
  33 H33            3.6888     1.2545    -6.1221 H       
  34 H34            1.3761     1.0532    -5.3034 H       
@<TRIPOS>BOND
   1    1   13 1
   2    2   11 1
   3    2   24 1
   4    2   25 1
   5    2   26 1
   6    3    4 2
   7    3    9 1
   8    3    8 1
   9    4    5 1
  10    4   11 1
  11    5    6 am
  12    5   22 2
  13    6    7 1
  14    6   15 1
  15    7    8 2
  16    8   27 1
  17    9   10 2
  18    9   12 1
  19   10   11 1
  20   10   14 1
  21   12   13 1
  22   13   14 2
  23   14   28 1
  24   15   16 1
  25   15   29 1
  26   15   30 1
  27   16   17 ar
  28   16   21 ar
  29   17   18 ar
  30   17   23 1
  31   18   19 ar
  32   18   31 1
  33   19   20 ar
  34   19   32 1
  35   20   21 ar
  36   20   33 1
  37   21   34 1

#	End of record

