#	Name: ASD01028623
#	Creating user name:	WinNT
#	Creation time:	15. 06. 2019 18:57

#	Modifying user name:	WinNT
#	Modification time:	15. 06. 2019 18:57

#	Program:	/corina/corina34_cracker 3.40 0067  02.08.2006

@<TRIPOS>MOLECULE
ASD01028623
  48   52    0    0    0
SMALL
NO_CHARGES


@<TRIPOS>ATOM
   1 C1            -0.0164     1.3578     0.0095 C.2     
   2 N2             0.0021    -0.0041     0.0020 N.pl3   
   3 C3             1.1499     2.0638     0.0022 C.2     
   4 C4             2.3924     1.3824    -0.0134 C.2     
   5 C5             2.4128     0.0237    -0.0209 C.2     
   6 C6             1.1932    -0.6874    -0.0131 C.2     
   7 N7             0.8954    -1.9761    -0.0176 N.2     
   8 N8            -0.3829    -2.1220    -0.0063 N.2     
   9 C9            -0.9726    -0.9545     0.0058 C.2     
  10 C10           -3.7532    -0.5230    -2.0858 C.ar    
  11 C11           -3.0832    -1.3178    -1.2064 C.ar    
  12 C12           -2.9667    -2.6884    -1.4274 C.ar    
  13 C13           -3.5177    -3.2721    -2.5266 C.ar    
  14 C14           -4.2174    -2.4852    -3.4577 C.ar    
  15 C15           -4.3349    -1.0911    -3.2307 C.ar    
  16 N16           -4.7681    -3.0324    -4.5462 N.ar    
  17 C17           -5.4214    -2.3061    -5.4193 C.ar    
  18 C18           -5.5754    -0.9255    -5.2575 C.ar    
  19 C19           -5.0352    -0.3035    -4.1628 C.ar    
  20 C20            1.1184     3.5414     0.0100 C.2     
  21 C21           -2.4590    -0.7068     0.0217 C.3     
  22 F22            3.5892    -0.6404    -0.0354 F       
  23 C23           -3.0685    -1.3418     1.2732 C.3     
  24 C24            1.5725     4.3685     1.0016 C.2     
  25 C25            1.3075     5.6628     0.5104 C.2     
  26 N26            0.7528     5.5109    -0.6588 N.2     
  27 O27            0.6431     4.3448    -0.9585 O.3     
  28 C28            1.6067     6.9676     1.2025 C.3     
  29 O29           -6.2598    -0.2030    -6.1831 O.3     
  30 C30           -6.7961    -0.9187    -7.2977 C.3     
  31 H31           -0.9608     1.8816     0.0168 H       
  32 H32            3.3175     1.9397    -0.0196 H       
  33 H33           -3.8407     0.5376    -1.9015 H       
  34 H34           -2.4302    -3.2976    -0.7150 H       
  35 H35           -3.4174    -4.3360    -2.6830 H       
  36 H36           -5.8517    -2.7856    -6.2861 H       
  37 H37           -5.1435     0.7615    -4.0197 H       
  38 H38           -2.6484     0.3665     0.0298 H       
  39 H39           -2.6170    -0.8999     2.1614 H       
  40 H40           -4.1436    -1.1627     1.2847 H       
  41 H41           -2.8790    -2.4152     1.2650 H       
  42 H42            2.0274     4.0935     1.9417 H       
  43 H43            2.6062     7.3041     0.9269 H       
  44 H44            0.8748     7.7161     0.8990 H       
  45 H45            1.5557     6.8263     2.2821 H       
  46 H46           -5.9855    -1.4012    -7.8437 H       
  47 H47           -7.4951    -1.6753    -6.9414 H       
  48 H48           -7.3168    -0.2253    -7.9581 H       
@<TRIPOS>BOND
   1    1    2 1
   2    1    3 2
   3    1   31 1
   4    2    6 1
   5    2    9 1
   6    3    4 1
   7    3   20 1
   8    4    5 2
   9    4   32 1
  10    5    6 1
  11    5   22 1
  12    6    7 2
  13    7    8 1
  14    8    9 2
  15    9   21 1
  16   10   11 ar
  17   10   15 ar
  18   10   33 1
  19   11   12 ar
  20   11   21 1
  21   12   13 ar
  22   12   34 1
  23   13   14 ar
  24   13   35 1
  25   14   15 ar
  26   14   16 ar
  27   15   19 ar
  28   16   17 ar
  29   17   18 ar
  30   17   36 1
  31   18   19 ar
  32   18   29 1
  33   19   37 1
  34   20   24 2
  35   20   27 1
  36   21   23 1
  37   21   38 1
  38   23   39 1
  39   23   40 1
  40   23   41 1
  41   24   25 1
  42   24   42 1
  43   25   26 2
  44   25   28 1
  45   26   27 1
  46   28   43 1
  47   28   44 1
  48   28   45 1
  49   29   30 1
  50   30   46 1
  51   30   47 1
  52   30   48 1

#	End of record

