#	Name: ASD01885756
#	Creating user name:	WinNT
#	Creation time:	15. 06. 2019 19:50

#	Modifying user name:	WinNT
#	Modification time:	15. 06. 2019 19:50

#	Program:	/corina/corina34_cracker 3.40 0067  02.08.2006

@<TRIPOS>MOLECULE
ASD01885756
  61   63    0    0    0
SMALL
NO_CHARGES


@<TRIPOS>ATOM
   1 C1            -0.0160     1.3294     0.0094 C.ar    
   2 C2            -1.2520     2.0240     0.0189 C.ar    
   3 C3            -2.4596     1.2809     0.0210 C.ar    
   4 C4            -2.3700    -0.1047     0.0135 C.ar    
   5 C5            -1.1108    -0.7138     0.0043 C.ar    
   6 N6             0.0021    -0.0041     0.0020 N.ar    
   7 C7             1.1364     3.4285     0.0092 C.ar    
   8 C8            -0.0805     4.1065     0.0248 C.ar    
   9 C9            -1.2606     3.4246     0.0266 C.ar    
  10 C10           -3.7749     1.9611     0.0313 C.2     
  11 C11           -1.0240    -2.1941    -0.0038 C.2     
  12 C12            2.4227     4.2136     0.0081 C.3     
  13 N13            2.8505     4.4545     1.3926 N.3     
  14 C14            1.1821     2.0685     0.0019 C.ar    
  15 N15            0.1806    -2.7985    -0.0132 N.am    
  16 O16           -2.0389    -2.8622    -0.0018 O.2     
  17 C17            4.2126     5.0061     1.4348 C.3     
  18 C18            4.5948     5.2971     2.8884 C.3     
  19 O19            4.4723     4.0976     3.6576 O.3     
  20 C20            3.1582     3.5336     3.6392 C.3     
  21 C21            2.7615     3.2247     2.1931 C.3     
  22 C22           -4.8228     1.7078    -0.8092 C.2     
  23 N23           -5.8270     2.5383    -0.4692 N.pl3   
  24 N24           -5.3998     3.3274     0.6053 N.2     
  25 C25           -4.1778     2.9845     0.9139 C.2     
  26 C26           -7.1408     2.6051    -1.1139 C.3     
  27 C27            5.1930     3.9920     0.8420 C.3     
  28 C28            4.2643     6.3023     0.6236 C.3     
  29 H29           -3.2660    -0.7077     0.0151 H       
  30 H30           -0.0889     5.1864     0.0355 H       
  31 H31           -2.1976     3.9616     0.0336 H       
  32 H32            3.1928     3.6486    -0.5170 H       
  33 H33            2.2656     5.1678    -0.4949 H       
  34 H34            2.1338     1.5581    -0.0092 H       
  35 H35            0.9908    -2.2651    -0.0147 H       
  36 H36            0.2373    -3.7668    -0.0184 H       
  37 H37            5.6244     5.6525     2.9299 H       
  38 H38            3.9294     6.0592     3.2941 H       
  39 H39            3.1488     2.6136     4.2237 H       
  40 H40            2.4510     4.2444     4.0667 H       
  41 H41            1.7390     2.8478     2.1688 H       
  42 H42            3.4367     2.4737     1.7830 H       
  43 H43           -4.8419     0.9749    -1.6022 H       
  44 H44           -3.5796     3.4119     1.7050 H       
  45 H45           -7.8253     1.9186    -0.6157 H       
  46 H46           -7.5293     3.6210    -1.0426 H       
  47 H47           -7.0454     2.3254    -2.1631 H       
  48 H48            4.9181     3.7823    -0.1917 H       
  49 H49            6.2027     4.4015     0.8736 H       
  50 H50            5.1567     3.0697     1.4219 H       
  51 H51            3.5669     7.0246     1.0480 H       
  52 H52            5.2744     6.7107     0.6553 H       
  53 H53            3.9884     6.0951    -0.4103 H       
  54 C54           12.2045    13.9317    10.1289 C.3     
  55 C55           12.2253    12.4018    10.1204 C.3     
  56 H56           13.2271    14.3090    10.1211 H       
  57 H57           11.6773    14.2928     9.2458 H       
  58 H58           11.6943    14.2832    11.0257 H       
  59 H59           12.7524    12.0408    11.0035 H       
  60 H60           11.2027    12.0246    10.1282 H       
  61 H61           12.7354    12.0503     9.2237 H       
@<TRIPOS>BOND
   1    1    6 ar
   2    1   14 ar
   3    1    2 ar
   4    2    3 ar
   5    2    9 ar
   6    3   10 1
   7    3    4 ar
   8    4    5 ar
   9    4   29 1
  10    5   11 1
  11    5    6 ar
  12    7   12 1
  13    7    8 ar
  14    7   14 ar
  15    8    9 ar
  16    8   30 1
  17    9   31 1
  18   10   22 2
  19   10   25 1
  20   11   15 am
  21   11   16 2
  22   12   13 1
  23   12   32 1
  24   12   33 1
  25   13   17 1
  26   13   21 1
  27   14   34 1
  28   15   35 1
  29   15   36 1
  30   17   18 1
  31   17   27 1
  32   17   28 1
  33   18   19 1
  34   18   37 1
  35   18   38 1
  36   19   20 1
  37   20   21 1
  38   20   39 1
  39   20   40 1
  40   21   41 1
  41   21   42 1
  42   22   23 1
  43   22   43 1
  44   23   26 1
  45   23   24 1
  46   24   25 2
  47   25   44 1
  48   26   45 1
  49   26   46 1
  50   26   47 1
  51   27   48 1
  52   27   49 1
  53   27   50 1
  54   28   51 1
  55   28   52 1
  56   28   53 1
  57   54   55 1
  58   54   56 1
  59   54   57 1
  60   54   58 1
  61   55   59 1
  62   55   60 1
  63   55   61 1

#	End of record

