#	Name: ASD03730012
#	Creating user name:	WinNT
#	Creation time:	15. 06. 2019 20:43

#	Modifying user name:	WinNT
#	Modification time:	15. 06. 2019 20:43

#	Program:	/corina/corina34_cracker 3.40 0067  02.08.2006

@<TRIPOS>MOLECULE
ASD03730012
  52   58    0    0    0
SMALL
NO_CHARGES


@<TRIPOS>ATOM
   1 C1            -0.0162     1.3410     0.0094 C.2     
   2 N2             0.0021    -0.0041     0.0020 N.am    
   3 C3             1.2637    -0.4708    -0.0125 C.2     
   4 C4             2.1916     0.6799    -0.0152 C.ar    
   5 C5             3.5709     0.8108    -0.0273 C.ar    
   6 C6             4.1413     2.0742    -0.0256 C.ar    
   7 C7             3.3438     3.2031    -0.0119 C.ar    
   8 C8             1.9626     3.0875     0.0003 C.ar    
   9 C9             1.3783     1.8310    -0.0013 C.ar    
  10 O10           -1.0118     2.0364     0.0181 O.2     
  11 O11            1.5863    -1.6416    -0.0213 O.2     
  12 C12           -1.1944    -0.8494     0.0093 C.3     
  13 C13           -1.6253    -1.1359    -1.4305 C.3     
  14 O14           -6.8698    -2.2801     3.3524 O.3     
  15 C15           -8.1172    -2.8697     3.7642 C.3     
  16 O16           -8.9360    -2.7991     2.5820 O.3     
  17 C17           -8.0636    -2.8131     1.5315 C.ar    
  18 C18           -6.7935    -2.4929     2.0057 C.ar    
  19 C19           -8.2534    -3.0785     0.1872 C.ar    
  20 C20           -7.1824    -3.0264    -0.6999 C.ar    
  21 C21           -5.9200    -2.6973    -0.2157 C.ar    
  22 C22           -5.7263    -2.4382     1.1251 C.ar    
  23 O23           -7.1496    -3.2667    -2.0420 O.3     
  24 C24           -4.9929    -2.6954    -1.4017 C.3     
  25 C25           -5.9531    -2.6891    -2.5990 C.3     
  26 N26           -2.8218    -1.9812    -1.4232 N.am    
  27 C27           -4.0816    -1.5020    -1.4086 C.2     
  28 C28           -4.0851    -3.8892    -1.4187 C.ar    
  29 C29           -4.3016    -5.2491    -1.4232 C.ar    
  30 C30           -3.2281    -6.1217    -1.4417 C.ar    
  31 C31           -1.9374    -5.6248    -1.4549 C.ar    
  32 C32           -1.7154    -4.2635    -1.4495 C.ar    
  33 C33           -2.7900    -3.3778    -1.4313 C.ar    
  34 O34           -4.4139    -0.3355    -1.4026 O.2     
  35 H35            4.1990    -0.0677    -0.0376 H       
  36 H36            5.2164     2.1772    -0.0346 H       
  37 H37            3.8001     4.1820    -0.0103 H       
  38 H38            1.3444     3.9730     0.0113 H       
  39 H39           -0.9726    -1.7886     0.5160 H       
  40 H40           -1.9995    -0.3349     0.5340 H       
  41 H41           -1.8471    -0.1966    -1.9371 H       
  42 H42           -0.8202    -1.6504    -1.9551 H       
  43 H43           -7.9694    -3.9065     4.0663 H       
  44 H44           -8.5640    -2.2936     4.5745 H       
  45 H45           -9.2394    -3.3277    -0.1763 H       
  46 H46           -4.7398    -2.1916     1.4890 H       
  47 H47           -5.5657    -3.3071    -3.4091 H       
  48 H48           -6.1379    -1.6710    -2.9417 H       
  49 H49           -5.3103    -5.6349    -1.4126 H       
  50 H50           -3.3975    -7.1883    -1.4462 H       
  51 H51           -1.0994    -6.3060    -1.4693 H       
  52 H52           -0.7046    -3.8831    -1.4593 H       
@<TRIPOS>BOND
   1    1    2 am
   2    1    9 1
   3    1   10 2
   4    2    3 am
   5    2   12 1
   6    3    4 1
   7    3   11 2
   8    4    5 ar
   9    4    9 ar
  10    5    6 ar
  11    5   35 1
  12    6    7 ar
  13    6   36 1
  14    7    8 ar
  15    7   37 1
  16    8    9 ar
  17    8   38 1
  18   12   13 1
  19   12   39 1
  20   12   40 1
  21   13   26 1
  22   13   41 1
  23   13   42 1
  24   14   15 1
  25   14   18 1
  26   15   16 1
  27   15   43 1
  28   15   44 1
  29   16   17 1
  30   17   18 ar
  31   17   19 ar
  32   18   22 ar
  33   19   20 ar
  34   19   45 1
  35   20   21 ar
  36   20   23 1
  37   21   22 ar
  38   21   24 1
  39   22   46 1
  40   23   25 1
  41   24   25 1
  42   24   27 1
  43   24   28 1
  44   25   47 1
  45   25   48 1
  46   26   27 am
  47   26   33 1
  48   27   34 2
  49   28   29 ar
  50   28   33 ar
  51   29   30 ar
  52   29   49 1
  53   30   31 ar
  54   30   50 1
  55   31   32 ar
  56   31   51 1
  57   32   33 ar
  58   32   52 1

#	End of record

