#	Name: ASD01917822
#	Creating user name:	WinNT
#	Creation time:	15. 06. 2019 20:10

#	Modifying user name:	WinNT
#	Modification time:	15. 06. 2019 20:10

#	Program:	/corina/corina34_cracker 3.40 0067  02.08.2006

@<TRIPOS>MOLECULE
ASD01917822
  42   45    0    0    0
SMALL
NO_CHARGES


@<TRIPOS>ATOM
   1 C1             0.0120     1.2546    -0.1091 C.2     
   2 C2            -0.0147    -0.0917    -0.0824 C.2     
   3 C3            -1.2721    -0.9207    -0.0121 C.3     
   4 C4            -2.4252    -0.0315     0.4698 C.3     
   5 N5            -2.3855     1.2459    -0.2578 N.am    
   6 C6            -1.2189     2.1258    -0.0621 C.3     
   7 C7            -3.3897     1.6029    -1.0828 C.2     
   8 O8            -4.2810     0.8152    -1.3314 O.2     
   9 O9             1.2961     1.6299    -0.1766 O.3     
  10 C10            2.0433     0.5147    -0.1872 C.2     
  11 N11            1.2531    -0.5223    -0.1299 N.2     
  12 C12            3.5480     0.4679    -0.2546 C.3     
  13 O13            3.9625     0.4254    -1.6215 O.3     
  14 C14            5.2997     0.3800    -1.8596 C.ar    
  15 C15            5.7723     0.3371    -3.1632 C.ar    
  16 C16            7.1320     0.2909    -3.4026 C.ar    
  17 C17            8.0218     0.2873    -2.3443 C.ar    
  18 C18            7.5533     0.3294    -1.0441 C.ar    
  19 C19            6.1947     0.3820    -0.7995 C.ar    
  20 C20           -3.4069     2.9551    -1.6862 C.ar    
  21 C21           -4.3666     3.2716    -2.6467 C.ar    
  22 C22           -4.3695     4.5436    -3.2022 C.ar    
  23 C23           -3.4138     5.4519    -2.7777 C.ar    
  24 C24           -2.4895     5.0680    -1.8182 C.ar    
  25 N25           -2.5117     3.8582    -1.3042 N.ar    
  26 Cl26          -5.5404     2.0919    -3.1410 Cl      
  27 H27           -1.5045    -1.3163    -1.0008 H       
  28 H28           -1.1283    -1.7437     0.6881 H       
  29 H29           -3.3750    -0.5308     0.2778 H       
  30 H30           -2.3197     0.1545     1.5386 H       
  31 H31           -1.2859     2.6207     0.9068 H       
  32 H32           -1.1778     2.8698    -0.8576 H       
  33 H33            3.9609     1.3565     0.2229 H       
  34 H34            3.9073    -0.4222     0.2619 H       
  35 H35            5.0777     0.3396    -3.9902 H       
  36 H36            7.5004     0.2572    -4.4173 H       
  37 H37            9.0845     0.2511    -2.5335 H       
  38 H38            8.2503     0.3258    -0.2191 H       
  39 H39            5.8292     0.4149     0.2162 H       
  40 H40           -5.0999     4.8187    -3.9487 H       
  41 H41           -3.3886     6.4496    -3.1904 H       
  42 H42           -1.7430     5.7741    -1.4857 H       
@<TRIPOS>BOND
   1    1    2 2
   2    1    9 1
   3    1    6 1
   4    2    3 1
   5    2   11 1
   6    3    4 1
   7    3   27 1
   8    3   28 1
   9    4    5 1
  10    4   29 1
  11    4   30 1
  12    5    6 1
  13    5    7 am
  14    6   31 1
  15    6   32 1
  16    7    8 2
  17    7   20 1
  18    9   10 1
  19   10   11 2
  20   10   12 1
  21   12   13 1
  22   12   33 1
  23   12   34 1
  24   13   14 1
  25   14   15 ar
  26   14   19 ar
  27   15   16 ar
  28   15   35 1
  29   16   17 ar
  30   16   36 1
  31   17   18 ar
  32   17   37 1
  33   18   19 ar
  34   18   38 1
  35   19   39 1
  36   20   21 ar
  37   20   25 ar
  38   21   22 ar
  39   21   26 1
  40   22   23 ar
  41   22   40 1
  42   23   24 ar
  43   23   41 1
  44   24   25 ar
  45   24   42 1

#	End of record

