#	Name: ASD03091331
#	Creating user name:	WinNT
#	Creation time:	15. 06. 2019 20:30

#	Modifying user name:	WinNT
#	Modification time:	15. 06. 2019 20:30

#	Program:	/corina/corina34_cracker 3.40 0067  02.08.2006

@<TRIPOS>MOLECULE
ASD03091331
  39   40    0    0    0
SMALL
NO_CHARGES


@<TRIPOS>ATOM
   1 C1            -0.0168     1.3870     0.0097 C.ar    
   2 C2             0.0021    -0.0041     0.0020 C.ar    
   3 C3             1.2238    -0.6612    -0.0132 C.ar    
   4 N4             2.3532     0.0187    -0.0199 N.ar    
   5 C5             2.3702     1.3372    -0.0125 C.ar    
   6 C6             1.1932     2.0619     0.0017 C.ar    
   7 C7             6.5440    -1.0574    -3.4928 C.ar    
   8 N8             5.7908    -1.9535    -2.8859 N.ar    
   9 C9             5.3978    -3.0558    -3.4927 C.ar    
  10 C10            5.7681    -3.3120    -4.8049 C.ar    
  11 C11            6.5623    -2.3875    -5.4755 C.ar    
  12 C12            6.9525    -1.2421    -4.8004 C.ar    
  13 C13            5.3799    -1.7179    -1.4995 C.3     
  14 C14            4.0529    -0.9564    -1.4833 C.3     
  15 C15            3.6238    -0.7104    -0.0354 C.3     
  16 O16           -1.1598    -0.7092     0.0098 O.3     
  17 C17           -2.3749     0.0427     0.0259 C.3     
  18 O18            5.3613    -4.4503    -5.4261 O.3     
  19 C19            5.7858    -4.6391    -6.7775 C.3     
  20 H20           -0.9518     1.9275     0.0171 H       
  21 H21            1.2498    -1.7408    -0.0192 H       
  22 H22            3.3164     1.8578    -0.0180 H       
  23 H23            1.2165     3.1417     0.0077 H       
  24 H24            6.8419    -0.1648    -2.9627 H       
  25 H25            4.7814    -3.7669    -2.9628 H       
  26 H26            6.8675    -2.5584    -6.4973 H       
  27 H27            7.5688    -0.5026    -5.2899 H       
  28 H28            5.2568    -2.6734    -0.9897 H       
  29 H29            6.1427    -1.1295    -0.9895 H       
  30 H30            4.1760    -0.0009    -1.9931 H       
  31 H31            3.2902    -1.5448    -1.9933 H       
  32 H32            4.3866    -0.1220     0.4746 H       
  33 H33            3.5007    -1.6659     0.4744 H       
  34 H34           -2.4046     0.6660     0.9195 H       
  35 H35           -2.4223     0.6755    -0.8603 H       
  36 H36           -3.2246    -0.6401     0.0306 H       
  37 H37            5.4133    -3.8203    -7.3931 H       
  38 H38            6.8749    -4.6571    -6.8171 H       
  39 H39            5.3929    -5.5839    -7.1531 H       
@<TRIPOS>BOND
   1    1    2 ar
   2    1    6 ar
   3    1   20 1
   4    2    3 ar
   5    2   16 1
   6    3    4 ar
   7    3   21 1
   8    4    5 ar
   9    4   15 1
  10    5    6 ar
  11    5   22 1
  12    6   23 1
  13    7    8 ar
  14    7   12 ar
  15    7   24 1
  16    8    9 ar
  17    8   13 1
  18    9   10 ar
  19    9   25 1
  20   10   11 ar
  21   10   18 1
  22   11   12 ar
  23   11   26 1
  24   12   27 1
  25   13   14 1
  26   13   28 1
  27   13   29 1
  28   14   15 1
  29   14   30 1
  30   14   31 1
  31   15   32 1
  32   15   33 1
  33   16   17 1
  34   17   34 1
  35   17   35 1
  36   17   36 1
  37   18   19 1
  38   19   37 1
  39   19   38 1
  40   19   39 1

#	End of record

