#	Name: ASD03240539
#	Creating user name:	WinNT
#	Creation time:	15. 06. 2019 20:35

#	Modifying user name:	WinNT
#	Modification time:	15. 06. 2019 20:35

#	Program:	/corina/corina34_cracker 3.40 0067  02.08.2006

@<TRIPOS>MOLECULE
ASD03240539
  66   73    0    0    0
SMALL
NO_CHARGES


@<TRIPOS>ATOM
   1 C1            -0.0166     1.3755     0.0096 C.ar    
   2 C2             0.0021    -0.0041     0.0020 C.ar    
   3 N3             1.1422    -0.6683    -0.0054 N.ar    
   4 C4             2.3145    -0.0481    -0.0053 C.ar    
   5 C5             2.3702     1.3442    -0.0124 C.ar    
   6 C6             1.1860     2.0698     0.0018 C.ar    
   7 N7             3.4820    -0.8058     0.0229 N.pl3   
   8 C8             4.3589    -0.7190     1.1007 C.ar    
   9 C9             4.9948     0.4894     1.4045 C.ar    
  10 C10            4.7635     1.6837     0.5625 C.2     
  11 N11            3.5939     2.0276    -0.0512 N.pl3   
  12 C12            4.6047    -1.8385     1.8845 C.ar    
  13 C13            5.4642    -1.7528     2.9631 C.ar    
  14 C14            6.0850    -0.5547     3.2716 C.ar    
  15 C15            5.8554     0.5661     2.4993 C.ar    
  16 N16            5.6750     2.5942     0.2855 N.2     
  17 C17            5.1449     3.5397    -0.5057 C.2     
  18 C18            3.8224     3.2035    -0.7371 C.2     
  19 C19            2.8497     3.9531    -1.5552 C.ar    
  20 C20            2.7504     5.3411    -1.4312 C.ar    
  21 C21            2.0276     3.2788    -2.4615 C.ar    
  22 C22            1.1207     3.9860    -3.2228 C.ar    
  23 C23            1.0242     5.3601    -3.0910 C.ar    
  24 C24            1.8389     6.0352    -2.1991 C.ar    
  25 C25            5.8490     4.7294    -1.0366 C.ar    
  26 C26            0.0314     6.1258    -3.9272 C.3     
  27 N27           -1.0471     5.2774    -4.4516 N.3     
  28 C28           -0.4700     7.4172    -3.2595 C.3     
  29 C29           -0.3825     8.0751    -4.6467 C.3     
  30 C30            0.6847     7.0210    -4.9933 C.3     
  31 C31            6.8099     5.3590    -0.2653 C.ar    
  32 C32            7.4738     6.4857    -0.7742 C.ar    
  33 C33            7.1495     6.9608    -2.0705 C.ar    
  34 C34            6.1675     6.2979    -2.8294 C.ar    
  35 C35            5.5399     5.2064    -2.3221 C.ar    
  36 C36            8.4557     7.1530    -0.0208 C.ar    
  37 C37            9.0806     8.2433    -0.5439 C.ar    
  38 C38            8.7616     8.7101    -1.8172 C.ar    
  39 C39            7.8164     8.0890    -2.5756 C.ar    
  40 H40           -0.9556     1.9091     0.0170 H       
  41 H41           -0.9306    -0.5486     0.0025 H       
  42 H42            1.2002     3.1497     0.0061 H       
  43 H43            3.6864    -1.4004    -0.7157 H       
  44 H44            4.1235    -2.7768     1.6511 H       
  45 H45            5.6525    -2.6263     3.5696 H       
  46 H46            6.7511    -0.4965     4.1198 H       
  47 H47            6.3406     1.4999     2.7424 H       
  48 H48            3.3856     5.8693    -0.7356 H       
  49 H49            2.1023     2.2064    -2.5659 H       
  50 H50            0.4845     3.4661    -3.9238 H       
  51 H51            1.7579     7.1077    -2.1011 H       
  52 H52           -0.6738     4.4552    -4.9020 H       
  53 H53           -1.6970     5.0263    -3.7218 H       
  54 H54           -1.4872     7.3432    -2.8747 H       
  55 H55            0.2288     7.8334    -2.5340 H       
  56 H56           -1.2958     7.9792    -5.2339 H       
  57 H57            0.0014     9.0950    -4.6228 H       
  58 H58            1.6998     7.3284    -4.7420 H       
  59 H59            0.5987     6.6294    -6.0069 H       
  60 H60            7.0467     4.9866     0.7204 H       
  61 H61            5.9159     6.6552    -3.8170 H       
  62 H62            4.7874     4.7027    -2.9107 H       
  63 H63            8.7125     6.8025     0.9679 H       
  64 H64            9.8345     8.7542     0.0368 H       
  65 H65            9.2720     9.5775    -2.2089 H       
  66 H66            7.5801     8.4628    -3.5609 H       
@<TRIPOS>BOND
   1    1    2 ar
   2    1    6 ar
   3    1   40 1
   4    2    3 ar
   5    2   41 1
   6    3    4 ar
   7    4    5 ar
   8    4    7 1
   9    5    6 ar
  10    5   11 1
  11    6   42 1
  12    7    8 1
  13    7   43 1
  14    8    9 ar
  15    8   12 ar
  16    9   10 1
  17    9   15 ar
  18   10   11 1
  19   10   16 2
  20   11   18 1
  21   12   13 ar
  22   12   44 1
  23   13   14 ar
  24   13   45 1
  25   14   15 ar
  26   14   46 1
  27   15   47 1
  28   16   17 1
  29   17   18 2
  30   17   25 1
  31   18   19 1
  32   19   20 ar
  33   19   21 ar
  34   20   24 ar
  35   20   48 1
  36   21   22 ar
  37   21   49 1
  38   22   23 ar
  39   22   50 1
  40   23   24 ar
  41   23   26 1
  42   24   51 1
  43   25   31 ar
  44   25   35 ar
  45   26   27 1
  46   26   28 1
  47   26   30 1
  48   27   52 1
  49   27   53 1
  50   28   29 1
  51   28   54 1
  52   28   55 1
  53   29   30 1
  54   29   56 1
  55   29   57 1
  56   30   58 1
  57   30   59 1
  58   31   32 ar
  59   31   60 1
  60   32   33 ar
  61   32   36 ar
  62   33   34 ar
  63   33   39 ar
  64   34   35 ar
  65   34   61 1
  66   35   62 1
  67   36   37 ar
  68   36   63 1
  69   37   38 ar
  70   37   64 1
  71   38   39 ar
  72   38   65 1
  73   39   66 1

#	End of record

