#	Name: ASD01900376
#	Creating user name:	WinNT
#	Creation time:	15. 06. 2019 19:51

#	Modifying user name:	WinNT
#	Modification time:	15. 06. 2019 19:51

#	Program:	/corina/corina34_cracker 3.40 0067  02.08.2006

@<TRIPOS>MOLECULE
ASD01900376
  30   32    0    0    0
SMALL
NO_CHARGES


@<TRIPOS>ATOM
   1 C1            -0.9261    -2.9774     0.8326 C.ar    
   2 C2            -0.3867    -1.9918     0.0163 C.ar    
   3 N3             0.9124    -1.8337    -0.0974 N.ar    
   4 C4             1.7671    -2.6102     0.5644 C.ar    
   5 C5             1.2907    -3.6297     1.4105 C.ar    
   6 C6            -0.0855    -3.8119     1.5426 C.ar    
   7 C7             3.2288    -2.6722     0.6371 C.2     
   8 N8             3.5460    -3.6421     1.4530 N.2     
   9 N9             2.3875    -4.2514     1.9462 N.pl3   
  10 N10            4.1242    -1.8425    -0.0451 N.pl3   
  11 C11            5.4976    -2.0852     0.0308 C.ar    
  12 C12            5.9654    -3.3779     0.2235 C.ar    
  13 C13            6.3981    -1.0335    -0.0921 C.ar    
  14 C14            7.7560    -1.2739    -0.0169 C.ar    
  15 C15            8.2232    -2.5597     0.1802 C.ar    
  16 C16            7.3291    -3.6145     0.2984 C.ar    
  17 O17            7.7902    -4.8781     0.4925 O.3     
  18 C18            9.2073    -5.0476     0.5650 C.3     
  19 F19            9.7905    -4.6141    -0.6304 F       
  20 F20            9.7130    -4.2950     1.6304 F       
  21 H21           -1.9973    -3.0879     0.9151 H       
  22 H22           -1.0489    -1.3421    -0.5366 H       
  23 H23           -0.4833    -4.5845     2.1838 H       
  24 H24            2.3645    -4.9953     2.5682 H       
  25 H25            3.7916    -1.0984    -0.5711 H       
  26 H26            5.2682    -4.1976     0.3153 H       
  27 H27            6.0357    -0.0280    -0.2469 H       
  28 H28            8.4543    -0.4555    -0.1126 H       
  29 H29            9.2857    -2.7445     0.2378 H       
  30 H30            9.4397    -6.1009     0.7216 H       
@<TRIPOS>BOND
   1    1    2 ar
   2    1    6 ar
   3    1   21 1
   4    2    3 ar
   5    2   22 1
   6    3    4 ar
   7    4    5 ar
   8    4    7 1
   9    5    6 ar
  10    5    9 1
  11    6   23 1
  12    7    8 2
  13    7   10 1
  14    8    9 1
  15    9   24 1
  16   10   11 1
  17   10   25 1
  18   11   12 ar
  19   11   13 ar
  20   12   16 ar
  21   12   26 1
  22   13   14 ar
  23   13   27 1
  24   14   15 ar
  25   14   28 1
  26   15   16 ar
  27   15   29 1
  28   16   17 1
  29   17   18 1
  30   18   19 1
  31   18   20 1
  32   18   30 1

#	End of record

