#	Name: ASD02560392
#	Creating user name:	WinNT
#	Creation time:	15. 06. 2019 20:25

#	Modifying user name:	WinNT
#	Modification time:	15. 06. 2019 20:25

#	Program:	/corina/corina34_cracker 3.40 0067  02.08.2006

@<TRIPOS>MOLECULE
ASD02560392
  48   50    0    0    0
SMALL
NO_CHARGES


@<TRIPOS>ATOM
   1 C1            -0.0605     1.1830    -0.4794 C.2     
   2 C2             0.0043    -0.2202    -0.4113 C.2     
   3 C3             1.1971    -0.8484    -0.4159 C.2     
   4 N4             2.3607    -0.1318    -0.4867 N.pl3   
   5 C5             2.3283     1.2421    -0.5547 C.2     
   6 C6             1.0864     1.9097    -0.5507 C.2     
   7 C7             3.6776    -0.5027    -0.5082 C.2     
   8 C8             4.4115     0.6359    -0.5878 C.2     
   9 N9             3.5759     1.6804    -0.6148 N.2     
  10 C10            5.9158     0.7112    -0.6370 C.3     
  11 N11            4.1744    -1.8109    -0.4571 N.3     
  12 C12            3.0858    -2.7919    -0.5600 C.3     
  13 C13            3.6417    -4.1176    -1.0837 C.3     
  14 C14            6.3500     1.3932    -1.9359 C.3     
  15 C15            2.4633    -3.0097     0.8206 C.3     
  16 C16            1.3295    -4.0313     0.7134 C.3     
  17 C17            1.8854    -5.3571     0.1897 C.3     
  18 C18            2.5079    -5.1393    -1.1909 C.3     
  19 C19            6.4253     1.5191     0.5583 C.3     
  20 C20            6.1266     0.7591     1.8521 C.3     
  21 C21            5.9236     0.5360    -3.1293 C.3     
  22 H22           -1.0185     1.6817    -0.4796 H       
  23 H23           -0.9066    -0.7977    -0.3547 H       
  24 H24            1.2346    -1.9264    -0.3628 H       
  25 H25            1.0465     2.9876    -0.6040 H       
  26 H26            6.3314    -0.2957    -0.5987 H       
  27 H27            4.8672    -1.9629    -1.1748 H       
  28 H28            2.3255    -2.4201    -1.2469 H       
  29 H29            4.0852    -3.9625    -2.0672 H       
  30 H30            4.4021    -4.4894    -0.3968 H       
  31 H31            5.8794     2.3739    -2.0063 H       
  32 H32            7.4338     1.5092    -1.9407 H       
  33 H33            3.2237    -3.3814     1.5074 H       
  34 H34            2.0673    -2.0652     1.1936 H       
  35 H35            0.8860    -4.1865     1.6969 H       
  36 H36            0.5692    -3.6596     0.0265 H       
  37 H37            2.6458    -5.7289     0.8766 H       
  38 H38            1.0777    -6.0850     0.1134 H       
  39 H39            1.7476    -4.7676    -1.8777 H       
  40 H40            2.9040    -6.0838    -1.5639 H       
  41 H41            7.5010     1.6678     0.4643 H       
  42 H42            5.9254     2.4874     0.5820 H       
  43 H43            5.0479     0.6914     1.9930 H       
  44 H44            6.5486    -0.2440     1.7900 H       
  45 H45            6.5706     1.2885     2.6952 H       
  46 H46            6.3123     0.9740    -4.0486 H       
  47 H47            6.3192    -0.4728    -3.0118 H       
  48 H48            4.8354     0.4962    -3.1776 H       
@<TRIPOS>BOND
   1    1    2 1
   2    1    6 2
   3    1   22 1
   4    2    3 2
   5    2   23 1
   6    3    4 1
   7    3   24 1
   8    4    5 1
   9    4    7 1
  10    5    6 1
  11    5    9 2
  12    6   25 1
  13    7    8 2
  14    7   11 1
  15    8    9 1
  16    8   10 1
  17   10   14 1
  18   10   19 1
  19   10   26 1
  20   11   12 1
  21   11   27 1
  22   12   13 1
  23   12   15 1
  24   12   28 1
  25   13   18 1
  26   13   29 1
  27   13   30 1
  28   14   21 1
  29   14   31 1
  30   14   32 1
  31   15   16 1
  32   15   33 1
  33   15   34 1
  34   16   17 1
  35   16   35 1
  36   16   36 1
  37   17   18 1
  38   17   37 1
  39   17   38 1
  40   18   39 1
  41   18   40 1
  42   19   20 1
  43   19   41 1
  44   19   42 1
  45   20   43 1
  46   20   44 1
  47   20   45 1
  48   21   46 1
  49   21   47 1
  50   21   48 1

#	End of record

