#	Name: ASD01230516
#	Creating user name:	WinNT
#	Creation time:	15. 06. 2019 19:14

#	Modifying user name:	WinNT
#	Modification time:	15. 06. 2019 19:14

#	Program:	/corina/corina34_cracker 3.40 0067  02.08.2006

@<TRIPOS>MOLECULE
ASD01230516
  48   51    0    0    0
SMALL
NO_CHARGES


@<TRIPOS>ATOM
   1 S1             0.5418     1.3942     0.8652 S.o2    
   2 N2             0.1959    -0.1037     0.2730 N.am    
   3 C3             1.0536    -0.8913    -0.2424 C.2     
   4 N4             2.3944    -0.6192    -0.3404 N.pl3   
   5 C5             3.0443     0.3448     0.5404 C.3     
   6 C6             2.2903     1.6749     0.4826 C.3     
   7 C7             0.6213    -2.2418    -0.7901 C.3     
   8 C8             1.7466    -3.2357    -0.4919 C.3     
   9 C9             3.0370    -2.8355    -1.1945 C.3     
  10 C10            3.1556    -1.3270    -1.3751 C.3     
  11 C11           -0.6489    -2.6871    -0.1124 C.ar    
  12 C12           -1.7875    -2.9168    -0.8626 C.ar    
  13 C13           -2.9530    -3.3255    -0.2440 C.ar    
  14 C14           -2.9805    -3.5055     1.1316 C.ar    
  15 C15           -1.8366    -3.2743     1.8822 C.ar    
  16 C16           -0.6722    -2.8708     1.2579 C.ar    
  17 O17           -4.1258    -3.9070     1.7427 O.3     
  18 C18           -4.3516    -5.2419     1.8613 C.ar    
  19 C19           -5.5572    -5.6999     2.3735 C.ar    
  20 C20           -5.7846    -7.0569     2.4933 C.ar    
  21 C21           -4.8109    -7.9597     2.1032 C.ar    
  22 C22           -3.6081    -7.5052     1.5927 C.ar    
  23 C23           -3.3792    -6.1487     1.4651 C.ar    
  24 C24           -6.6174    -4.7173     2.7994 C.3     
  25 Cl25          -5.0990    -9.6649     2.2552 Cl      
  26 O26           -0.2790     2.2670     0.1013 O.2     
  27 O27            0.3563     1.2636     2.2680 O.2     
  28 H28            3.0362    -0.0335     1.5626 H       
  29 H29            4.0741     0.4963     0.2168 H       
  30 H30            2.3799     2.1002    -0.5171 H       
  31 H31            2.7154     2.3656     1.2108 H       
  32 H32            0.4636    -2.1722    -1.8664 H       
  33 H33            1.9203    -3.2663     0.5837 H       
  34 H34            1.4472    -4.2269    -0.8325 H       
  35 H35            3.8837    -3.1882    -0.6056 H       
  36 H36            3.0680    -3.3120    -2.1743 H       
  37 H37            2.7695    -1.0516    -2.3565 H       
  38 H38            4.2048    -1.0390    -1.3092 H       
  39 H39           -1.7656    -2.7762    -1.9332 H       
  40 H40           -3.8421    -3.5044    -0.8304 H       
  41 H41           -1.8554    -3.4134     2.9530 H       
  42 H42            0.2196    -2.6948     1.8411 H       
  43 H43           -6.7227    -7.4138     2.8919 H       
  44 H44           -2.8493    -8.2113     1.2891 H       
  45 H45           -2.4420    -5.7943     1.0620 H       
  46 H46           -7.2694    -4.4972     1.9540 H       
  47 H47           -7.2060    -5.1465     3.6102 H       
  48 H48           -6.1436    -3.7973     3.1419 H       
@<TRIPOS>BOND
   1    1    2 am
   2    1    6 1
   3    1   26 2
   4    1   27 2
   5    2    3 2
   6    3    4 1
   7    3    7 1
   8    4    5 1
   9    4   10 1
  10    5    6 1
  11    5   28 1
  12    5   29 1
  13    6   30 1
  14    6   31 1
  15    7    8 1
  16    7   11 1
  17    7   32 1
  18    8    9 1
  19    8   33 1
  20    8   34 1
  21    9   10 1
  22    9   35 1
  23    9   36 1
  24   10   37 1
  25   10   38 1
  26   11   12 ar
  27   11   16 ar
  28   12   13 ar
  29   12   39 1
  30   13   14 ar
  31   13   40 1
  32   14   15 ar
  33   14   17 1
  34   15   16 ar
  35   15   41 1
  36   16   42 1
  37   17   18 1
  38   18   19 ar
  39   18   23 ar
  40   19   20 ar
  41   19   24 1
  42   20   21 ar
  43   20   43 1
  44   21   22 ar
  45   21   25 1
  46   22   23 ar
  47   22   44 1
  48   23   45 1
  49   24   46 1
  50   24   47 1
  51   24   48 1

#	End of record

