#	Name: ASD01916711
#	Creating user name:	WinNT
#	Creation time:	15. 06. 2019 20:07

#	Modifying user name:	WinNT
#	Modification time:	15. 06. 2019 20:07

#	Program:	/corina/corina34_cracker 3.40 0067  02.08.2006

@<TRIPOS>MOLECULE
ASD01916711
  31   33    0    0    0
SMALL
NO_CHARGES


@<TRIPOS>ATOM
   1 O1            -0.0161     1.3379     0.0094 O.3     
   2 C2             0.0021    -0.0041     0.0020 C.2     
   3 N3             1.2266    -0.4379    -0.0120 N.2     
   4 C4             2.0702     0.6295    -0.0143 C.ar    
   5 C5             1.2624     1.7765    -0.0005 C.ar    
   6 C6             1.8483     3.0341     0.0000 C.ar    
   7 C7             3.2235     3.1522    -0.0131 C.ar    
   8 C8             4.0267     2.0194    -0.0269 C.ar    
   9 C9             3.4596     0.7623    -0.0269 C.ar    
  10 C10           -1.2227    -0.8821     0.0090 C.3     
  11 C11           -1.6234    -1.1869     1.4538 C.3     
  12 C12           -2.8198    -2.0445     1.4606 C.1     
  13 C13           -3.7739    -2.7285     1.4660 C.1     
  14 S14           -6.9238    -4.9794     0.8113 S.3     
  15 C15           -6.5563    -4.7356     2.4625 C.2     
  16 N16           -5.5144    -3.9898     2.5884 N.2     
  17 C17           -4.9378    -3.5628     1.4727 C.2     
  18 C18           -5.5463    -3.9858     0.3434 C.2     
  19 C19           -7.3427    -5.3128     3.6112 C.3     
  20 F20            5.3714     2.1497    -0.0401 F       
  21 Cl21           0.8535     4.4567     0.0166 Cl      
  22 H22            3.6778     4.1320    -0.0131 H       
  23 H23            4.0881    -0.1160    -0.0370 H       
  24 H24           -2.0414    -0.3677    -0.4943 H       
  25 H25           -1.0045    -1.8143    -0.5120 H       
  26 H26           -0.8048    -1.7013     1.9571 H       
  27 H27           -1.8417    -0.2547     1.9747 H       
  28 H28           -5.2419    -3.7562    -0.6671 H       
  29 H29           -8.1725    -5.9035     3.2230 H       
  30 H30           -6.6935    -5.9494     4.2124 H       
  31 H31           -7.7309    -4.5030     4.2290 H       
@<TRIPOS>BOND
   1    1    2 1
   2    1    5 1
   3    2    3 2
   4    2   10 1
   5    3    4 1
   6    4    5 ar
   7    4    9 ar
   8    5    6 ar
   9    6    7 ar
  10    6   21 1
  11    7    8 ar
  12    7   22 1
  13    8    9 ar
  14    8   20 1
  15    9   23 1
  16   10   11 1
  17   10   24 1
  18   10   25 1
  19   11   12 1
  20   11   26 1
  21   11   27 1
  22   12   13 3
  23   13   17 1
  24   14   15 1
  25   14   18 1
  26   15   16 2
  27   15   19 1
  28   16   17 1
  29   17   18 2
  30   18   28 1
  31   19   29 1
  32   19   30 1
  33   19   31 1

#	End of record

