#	Name: ASD01881819
#	Creating user name:	WinNT
#	Creation time:	15. 06. 2019 19:43

#	Modifying user name:	WinNT
#	Modification time:	15. 06. 2019 19:43

#	Program:	/corina/corina34_cracker 3.40 0067  02.08.2006

@<TRIPOS>MOLECULE
ASD01881819
  45   47    0    0    0
SMALL
NO_CHARGES


@<TRIPOS>ATOM
   1 C1            -0.0179     1.4712     0.0101 C.2     
   2 C2             0.0021    -0.0041     0.0020 C.ar    
   3 C3             1.2197    -0.6896    -0.0133 C.ar    
   4 C4             1.2307    -2.0685    -0.0208 C.ar    
   5 C5             0.0396    -2.7734    -0.0133 C.ar    
   6 C6            -1.1697    -2.1014     0.0018 C.ar    
   7 C7            -1.1961    -0.7223     0.0154 C.ar    
   8 O8             1.0327     2.0970     0.0035 O.co2   
   9 O9            -1.0852     2.0682     0.0184 O.co2   
  10 C10            2.5427    -2.8096    -0.0379 C.3     
  11 O11            2.9708    -3.0512     1.3040 O.3     
  12 N12            7.6706    -5.7064     2.2343 N.pl3   
  13 N13            7.5974    -5.6641     3.6345 N.2     
  14 N14            6.5210    -5.0553     3.9887 N.2     
  15 C15            5.8256    -4.6630     2.9027 C.ar    
  16 C16            6.5441    -5.0700     1.7652 C.ar    
  17 C17            4.6134    -3.9788     2.7380 C.ar    
  18 C18            4.1463    -3.7152     1.4669 C.ar    
  19 C19            4.8697    -4.1246     0.3494 C.ar    
  20 C20            6.0523    -4.7937     0.4945 C.ar    
  21 C21            8.7389    -6.3046     1.4298 C.3     
  22 C22            8.4064    -7.7717     1.1505 C.3     
  23 C23            7.0834    -7.8584     0.3870 C.3     
  24 C24            9.5220    -8.3965     0.3104 C.3     
  25 C25            8.2813    -8.5274     2.4750 C.3     
  26 Br26           3.6243    -3.4193     4.2494 Br      
  27 H27            2.1498    -0.1408    -0.0195 H       
  28 H28            0.0543    -3.8533    -0.0196 H       
  29 H29           -2.0953    -2.6580     0.0073 H       
  30 H30           -2.1407    -0.1990     0.0321 H       
  31 H31            2.4162    -3.7604    -0.5556 H       
  32 H32            3.2917    -2.2107    -0.5559 H       
  33 H33            4.4925    -3.9121    -0.6401 H       
  34 H34            6.6057    -5.1071    -0.3784 H       
  35 H35            8.8280    -5.7663     0.4862 H       
  36 H36            9.6814    -6.2429     1.9738 H       
  37 H37            7.1725    -7.3201    -0.5566 H       
  38 H38            6.8465    -8.9036     0.1880 H       
  39 H39            6.2886    -7.4133     0.9855 H       
  40 H40           10.4646    -8.3347     0.8544 H       
  41 H41            9.2852    -9.4417     0.1114 H       
  42 H42            9.6112    -7.8582    -0.6332 H       
  43 H43            7.4865    -8.0823     3.0736 H       
  44 H44            8.0444    -9.5726     2.2761 H       
  45 H45            9.2238    -8.4656     3.0190 H       
@<TRIPOS>BOND
   1    1    2 1
   2    1    8 ar
   3    1    9 ar
   4    2    3 ar
   5    2    7 ar
   6    3    4 ar
   7    3   27 1
   8    4    5 ar
   9    4   10 1
  10    5    6 ar
  11    5   28 1
  12    6    7 ar
  13    6   29 1
  14    7   30 1
  15   10   11 1
  16   10   31 1
  17   10   32 1
  18   11   18 1
  19   12   13 1
  20   12   16 1
  21   12   21 1
  22   13   14 2
  23   14   15 1
  24   15   16 ar
  25   15   17 ar
  26   16   20 ar
  27   17   18 ar
  28   17   26 1
  29   18   19 ar
  30   19   20 ar
  31   19   33 1
  32   20   34 1
  33   21   22 1
  34   21   35 1
  35   21   36 1
  36   22   23 1
  37   22   24 1
  38   22   25 1
  39   23   37 1
  40   23   38 1
  41   23   39 1
  42   24   40 1
  43   24   41 1
  44   24   42 1
  45   25   43 1
  46   25   44 1
  47   25   45 1

#	End of record

