#	Name: ASD01810586
#	Creating user name:	WinNT
#	Creation time:	15. 06. 2019 19:24

#	Modifying user name:	WinNT
#	Modification time:	15. 06. 2019 19:24

#	Program:	/corina/corina34_cracker 3.40 0067  02.08.2006

@<TRIPOS>MOLECULE
ASD01810586
  55   60    0    0    0
SMALL
NO_CHARGES


@<TRIPOS>ATOM
   1 N1            -0.0147     1.2927    -0.1139 N.pl3   
   2 N2             0.0046     0.0244    -0.3040 N.2     
   3 C3             1.1026    -0.6729    -0.4424 C.2     
   4 C4             2.4173     0.0115    -0.3811 C.2     
   5 C5             2.3878     1.4696    -0.1632 C.ar    
   6 C6             3.5429     2.2362    -0.0851 C.ar    
   7 C7             3.4435     3.5975     0.1202 C.ar    
   8 C8             2.1994     4.1960     0.2477 C.ar    
   9 C9             1.0437     3.4451     0.1724 C.ar    
  10 C10            1.1219     2.0714    -0.0330 C.ar    
  11 N11            2.7722    -2.1591    -0.7158 N.am    
  12 N12            3.3363    -0.8925    -0.5444 N.2     
  13 C13            1.4249    -2.0844    -0.6628 C.2     
  14 O14            0.6351    -3.0072    -0.7755 O.2     
  15 C15           -1.3160     1.9525     0.0188 C.3     
  16 C16           -2.4138     0.9276    -0.1055 C.ar    
  17 C17           -2.8874     0.2834     1.0227 C.ar    
  18 C18           -3.8935    -0.6563     0.9120 C.ar    
  19 C19           -4.4297    -0.9537    -0.3337 C.ar    
  20 C20           -3.9525    -0.3049    -1.4646 C.ar    
  21 C21           -2.9495     0.6374    -1.3469 C.ar    
  22 N22           -5.4506    -1.9073    -0.4494 N.pl3   
  23 N23           -6.0234    -2.6337     0.6026 N.2     
  24 C24           -6.9408    -3.4224     0.1035 C.2     
  25 C25           -6.9824    -3.2245    -1.2810 C.2     
  26 C26           -6.0609    -2.2848    -1.5955 C.2     
  27 C27            5.2297    -4.5271    -2.3620 C.3     
  28 C28            4.3784    -3.2656    -2.1955 C.3     
  29 C29            3.5341    -3.3930    -0.9238 C.3     
  30 C30            4.4630    -3.6292     0.2710 C.3     
  31 C31            5.3111    -4.8766     0.0093 C.3     
  32 O32            6.0472    -4.7047    -1.2034 O.3     
  33 O33            5.2316    -2.1242    -2.0900 O.3     
  34 Cl34          -0.5046     4.2132     0.3353 Cl      
  35 H35            4.5123     1.7706    -0.1840 H       
  36 H36            4.3384     4.1989     0.1822 H       
  37 H37            2.1338     5.2620     0.4081 H       
  38 H38           -1.3800     2.4371     0.9930 H       
  39 H39           -1.4262     2.7000    -0.7668 H       
  40 H40           -2.4699     0.5151     1.9914 H       
  41 H41           -4.2624    -1.1597     1.7934 H       
  42 H42           -4.3676    -0.5341    -2.4349 H       
  43 H43           -2.5805     1.1452    -2.2257 H       
  44 H44           -7.5589    -4.1083     0.6637 H       
  45 H45           -7.6373    -3.7296    -1.9756 H       
  46 H46           -5.8493    -1.9060    -2.5845 H       
  47 H47            4.5778    -5.3922    -2.4830 H       
  48 H48            5.8642    -4.4238    -3.2423 H       
  49 H49            3.7222    -3.1525    -3.0585 H       
  50 H50            2.8481    -4.2341    -1.0242 H       
  51 H51            5.1156    -2.7659     0.4014 H       
  52 H52            3.8675    -3.7761     1.1720 H       
  53 H53            6.0042    -5.0252     0.8373 H       
  54 H54            4.6603    -5.7463    -0.0807 H       
  55 H55            5.7995    -1.9850    -2.8602 H       
@<TRIPOS>BOND
   1    1    2 1
   2    1   10 1
   3    1   15 1
   4    2    3 2
   5    3    4 1
   6    3   13 1
   7    4    5 1
   8    4   12 2
   9    5    6 ar
  10    5   10 ar
  11    6    7 ar
  12    6   35 1
  13    7    8 ar
  14    7   36 1
  15    8    9 ar
  16    8   37 1
  17    9   10 ar
  18    9   34 1
  19   11   12 1
  20   11   13 am
  21   11   29 1
  22   13   14 2
  23   15   16 1
  24   15   38 1
  25   15   39 1
  26   16   17 ar
  27   16   21 ar
  28   17   18 ar
  29   17   40 1
  30   18   19 ar
  31   18   41 1
  32   19   20 ar
  33   19   22 1
  34   20   21 ar
  35   20   42 1
  36   21   43 1
  37   22   23 1
  38   22   26 1
  39   23   24 2
  40   24   25 1
  41   24   44 1
  42   25   26 2
  43   25   45 1
  44   26   46 1
  45   27   28 1
  46   27   32 1
  47   27   47 1
  48   27   48 1
  49   28   29 1
  50   28   33 1
  51   28   49 1
  52   29   30 1
  53   29   50 1
  54   30   31 1
  55   30   51 1
  56   30   52 1
  57   31   32 1
  58   31   53 1
  59   31   54 1
  60   33   55 1

#	End of record

