#	Name: ASD01028065
#	Creating user name:	WinNT
#	Creation time:	15. 06. 2019 18:56

#	Modifying user name:	WinNT
#	Modification time:	15. 06. 2019 18:56

#	Program:	/corina/corina34_cracker 3.40 0067  02.08.2006

@<TRIPOS>MOLECULE
ASD01028065
  78   83    0    0    0
SMALL
NO_CHARGES


@<TRIPOS>ATOM
   1 C1             0.0574     1.4797     0.0382 C.3     
   2 C2             0.0606    -0.0493     0.0208 C.3     
   3 C3            -1.3433    -0.5678     0.3374 C.3     
   4 C4             2.1632     1.7214     1.3619 C.3     
   5 C5             1.4876     2.0208     0.0268 C.3     
   6 N6             2.5975     2.9904     2.0040 N.3     
   7 N7             0.3443     1.7516     4.4290 N.pl3   
   8 C8             1.0810     2.8004     5.0136 C.ar    
   9 C9             1.6160     3.7483     4.1389 C.ar    
  10 C10            1.4181     3.6021     2.6570 C.3     
  11 C11            1.3193     2.9009     6.3744 C.ar    
  12 C12            2.0187     3.9955     6.8714 C.ar    
  13 C13            2.4986     4.9653     6.0014 C.ar    
  14 C14            2.3028     4.8362     4.6419 C.ar    
  15 O15           -1.2794    -1.6735     1.2386 O.3     
  16 C16           -1.5562    -1.4288     2.5460 C.ar    
  17 C17           -0.9138    -0.3889     3.1623 C.ar    
  18 C18           -1.1804    -0.1029     4.5040 C.ar    
  19 C19           -0.5425     0.9807     5.1733 C.ar    
  20 N20           -0.8476     1.1912     6.4347 N.ar    
  21 O21            1.0110     2.0778     7.4149 O.3     
  22 C22            1.3896     2.7392     8.6252 C.3     
  23 O23            2.1114     3.9074     8.2266 O.3     
  24 C24           -2.4732    -2.2179     3.2517 C.ar    
  25 C25           -2.7474    -1.9580     4.5789 C.ar    
  26 C26           -2.1057    -0.8940     5.2253 C.ar    
  27 N27           -2.3349    -0.5894     6.5124 N.ar    
  28 C28           -1.7173     0.4219     7.0764 C.ar    
  29 O29           -3.0995    -3.2469     2.6238 O.3     
  30 C30           -4.0234    -4.0139     3.3985 C.3     
  31 C31           -4.6243    -5.1195     2.5282 C.3     
  32 C32           -5.6135    -5.9406     3.3577 C.3     
  33 N33           -6.2650    -6.9373     2.4974 N.3     
  34 C34            3.5902     2.6191     3.0481 C.3     
  35 C35           -5.2938    -7.9115     1.9944 C.3     
  36 C36           -6.0235    -9.1515     1.4688 C.3     
  37 S37           -7.0768    -8.6586     0.0712 S.o2    
  38 C38           -8.0096    -7.2825     0.8073 C.3     
  39 C39           -7.0172    -6.2896     1.4204 C.3     
  40 O40           -6.2495    -8.1459    -0.9642 O.2     
  41 O41           -7.9787    -9.7185    -0.2157 O.2     
  42 H42           -0.4718     1.8511    -0.8401 H       
  43 H43           -0.4499     1.8300     0.9374 H       
  44 H44            0.3627    -0.4017    -0.9664 H       
  45 H45            0.7607    -0.4249     0.7667 H       
  46 H46           -1.9345     0.2302     0.7851 H       
  47 H47           -1.8223    -0.8910    -0.5887 H       
  48 H48            1.4761     1.2097     2.0257 H       
  49 H49            3.0471     1.1075     1.1967 H       
  50 H50            2.0475     1.5492    -0.7818 H       
  51 H51            1.4645     3.0991    -0.1358 H       
  52 H52            0.4605     1.5593     3.4801 H       
  53 H53            1.2699     4.5939     2.2177 H       
  54 H54            0.5417     2.9958     2.4473 H       
  55 H55            3.0271     5.8230     6.3912 H       
  56 H56            2.6854     5.5877     3.9663 H       
  57 H57           -0.2032     0.2019     2.6046 H       
  58 H58            0.5034     3.0233     9.1928 H       
  59 H59            2.0265     2.0885     9.2241 H       
  60 H60           -3.4534    -2.5737     5.1168 H       
  61 H61           -1.9290     0.6373     8.1133 H       
  62 H62           -3.5037    -4.4607     4.2461 H       
  63 H63           -4.8197    -3.3644     3.7620 H       
  64 H64           -5.1440    -4.6726     1.6807 H       
  65 H65           -3.8280    -5.7690     2.1648 H       
  66 H66           -5.0803    -6.4477     4.1618 H       
  67 H67           -6.3681    -5.2789     3.7830 H       
  68 H68            4.4341     2.1101     2.5824 H       
  69 H69            3.9419     3.5196     3.5516 H       
  70 H70            3.1219     1.9557     3.7752 H       
  71 H71           -4.7155    -7.4623     1.1869 H       
  72 H72           -4.6212    -8.2021     2.8014 H       
  73 H73           -5.2951    -9.8904     1.1349 H       
  74 H74           -6.6412    -9.5753     2.2606 H       
  75 H75           -8.5961    -6.7840     0.0356 H       
  76 H76           -8.6722    -7.6641     1.5842 H       
  77 H77           -7.5616    -5.4350     1.8222 H       
  78 H78           -6.3254    -5.9472     0.6508 H       
@<TRIPOS>BOND
   1    1    2 1
   2    1    5 1
   3    1   42 1
   4    1   43 1
   5    2    3 1
   6    2   44 1
   7    2   45 1
   8    3   15 1
   9    3   46 1
  10    3   47 1
  11    4    5 1
  12    4    6 1
  13    4   48 1
  14    4   49 1
  15    5   50 1
  16    5   51 1
  17    6   34 1
  18    6   10 1
  19    7    8 1
  20    7   19 1
  21    7   52 1
  22    8    9 ar
  23    8   11 ar
  24    9   10 1
  25    9   14 ar
  26   10   53 1
  27   10   54 1
  28   11   12 ar
  29   11   21 1
  30   12   13 ar
  31   12   23 1
  32   13   14 ar
  33   13   55 1
  34   14   56 1
  35   15   16 1
  36   16   17 ar
  37   16   24 ar
  38   17   18 ar
  39   17   57 1
  40   18   19 ar
  41   18   26 ar
  42   19   20 ar
  43   20   28 ar
  44   21   22 1
  45   22   23 1
  46   22   58 1
  47   22   59 1
  48   24   25 ar
  49   24   29 1
  50   25   26 ar
  51   25   60 1
  52   26   27 ar
  53   27   28 ar
  54   28   61 1
  55   29   30 1
  56   30   31 1
  57   30   62 1
  58   30   63 1
  59   31   32 1
  60   31   64 1
  61   31   65 1
  62   32   33 1
  63   32   66 1
  64   32   67 1
  65   33   35 1
  66   33   39 1
  67   34   68 1
  68   34   69 1
  69   34   70 1
  70   35   36 1
  71   35   71 1
  72   35   72 1
  73   36   37 1
  74   36   73 1
  75   36   74 1
  76   37   38 1
  77   37   40 2
  78   37   41 2
  79   38   39 1
  80   38   75 1
  81   38   76 1
  82   39   77 1
  83   39   78 1

#	End of record

