#	Name: ASD03240307
#	Creating user name:	WinNT
#	Creation time:	15. 06. 2019 20:34

#	Modifying user name:	WinNT
#	Modification time:	15. 06. 2019 20:34

#	Program:	/corina/corina34_cracker 3.40 0067  02.08.2006

@<TRIPOS>MOLECULE
ASD03240307
  84   89    0    0    0
SMALL
NO_CHARGES


@<TRIPOS>ATOM
   1 C1             0.1005     1.7331     1.5343 C.2     
   2 N2             0.1769     0.5300     2.1953 N.pl3   
   3 O3            -3.4787     3.4892     1.2617 O.2     
   4 C4            -2.6157     4.1469     0.7198 C.2     
   5 C5            -1.1903     3.6580     0.7101 C.3     
   6 N6            -1.1088     2.3760     1.4144 N.pl3   
   7 N7             1.1755     2.2669     1.0261 N.2     
   8 N8            -2.9316     5.3149     0.1263 N.am    
   9 C9            -4.2633     5.7128     0.0368 C.ar    
  10 C10           -4.5957     7.0725     0.1200 C.ar    
  11 C11           -5.9245     7.4653     0.0303 C.ar    
  12 C12           -6.9216     6.5043    -0.1422 C.ar    
  13 C13           -6.5805     5.1508    -0.2240 C.ar    
  14 C14           -5.2615     4.7628    -0.1406 C.ar    
  15 C15           -8.3356     6.9164    -0.2376 C.2     
  16 N16           -9.2983     5.9880    -0.4042 N.am    
  17 O17           -8.6320     8.0936    -0.1660 O.2     
  18 C18          -10.6473     6.3643    -0.3719 C.ar    
  19 C19          -11.5959     5.6057    -1.0451 C.ar    
  20 C20          -11.0366     7.4926     0.3379 C.ar    
  21 C21          -12.3660     7.8635     0.3697 C.ar    
  22 C22          -13.3141     7.1082    -0.3082 C.ar    
  23 C23          -12.9254     5.9765    -1.0134 C.ar    
  24 N24          -14.6613     7.4837    -0.2757 N.pl3   
  25 C25          -15.6614     6.6869    -0.9908 C.3     
  26 C26          -15.0722     8.6737     0.4735 C.3     
  27 C27           -3.5310     8.0882     0.3037 C.ar    
  28 C28           -2.5761     7.9200     1.3195 C.ar    
  29 C29           -1.5913     8.8359     1.5088 C.ar    
  30 C30           -1.5184     9.9706     0.6814 C.ar    
  31 C31           -2.4770    10.1506    -0.3479 C.ar    
  32 C32           -3.4834     9.1901    -0.5302 C.ar    
  33 C33          -15.0188     9.8790    -0.4296 C.ar    
  34 C34          -16.1985     5.6165    -0.0761 C.ar    
  35 C35          -16.1321    10.2410    -1.1648 C.ar    
  36 C36          -16.0845    11.3464    -1.9929 C.ar    
  37 C37          -14.9212    12.0914    -2.0860 C.ar    
  38 C38          -13.8068    11.7279    -1.3491 C.ar    
  39 C39          -13.8584    10.6252    -0.5177 C.ar    
  40 C40          -17.3043     5.8731     0.7128 C.ar    
  41 C41          -17.7981     4.8921     1.5517 C.ar    
  42 C42          -17.1847     3.6518     1.6019 C.ar    
  43 C43          -16.0771     3.3959     0.8113 C.ar    
  44 C44          -15.5884     4.3768    -0.0307 C.ar    
  45 F45          -14.8733    13.1719    -2.8956 F       
  46 F46          -17.6662     2.6922     2.4219 F       
  47 C47           -0.5096    10.9330     0.8572 C.ar    
  48 C48           -0.4656    12.0210     0.0405 C.ar    
  49 C49           -1.4076    12.1981    -0.9713 C.ar    
  50 C50           -2.3991    11.2877    -1.1719 C.ar    
  51 H51            1.0308     0.0784     2.2834 H       
  52 H52           -0.6231     0.1328     2.5736 H       
  53 H53           -0.8576     3.5285    -0.3198 H       
  54 H54           -0.5525     4.3877     1.2089 H       
  55 H55           -1.9082     1.9807     1.7961 H       
  56 H56            1.1216     3.1157     0.5597 H       
  57 H57           -2.2315     5.8785    -0.2385 H       
  58 H58           -6.1857     8.5113     0.0941 H       
  59 H59           -7.3530     4.4079    -0.3571 H       
  60 H60           -5.0033     3.7161    -0.2044 H       
  61 H61           -9.0571     5.0593    -0.5463 H       
  62 H62          -11.2936     4.7260    -1.5938 H       
  63 H63          -10.2994     8.0797     0.8653 H       
  64 H64          -12.6688     8.7408     0.9220 H       
  65 H65          -13.6625     5.3893    -1.5409 H       
  66 H66          -16.4780     7.3330    -1.3129 H       
  67 H67          -15.2002     6.2223    -1.8623 H       
  68 H68          -16.0899     8.5390     0.8399 H       
  69 H69          -14.3987     8.8221     1.3176 H       
  70 H70           -2.6257     7.0510     1.9588 H       
  71 H71           -0.8645     8.6930     2.2948 H       
  72 H72           -4.2197     9.3144    -1.3105 H       
  73 H73          -17.0393     9.6595    -1.0923 H       
  74 H74          -16.9543    11.6288    -2.5675 H       
  75 H75          -12.8988    12.3083    -1.4209 H       
  76 H76          -12.9892    10.3415     0.0572 H       
  77 H77          -17.7824     6.8407     0.6738 H       
  78 H78          -18.6618     5.0929     2.1682 H       
  79 H79          -15.5978     2.4288     0.8496 H       
  80 H80          -14.7245     4.1774    -0.6474 H       
  81 H81            0.2273    10.8100     1.6370 H       
  82 H82            0.3110    12.7587     0.1789 H       
  83 H83           -1.3499    13.0704    -1.6053 H       
  84 H84           -3.1221    11.4375    -1.9600 H       
@<TRIPOS>BOND
   1    1    2 1
   2    1    7 2
   3    1    6 1
   4    2   51 1
   5    2   52 1
   6    3    4 2
   7    4    5 1
   8    4    8 am
   9    5    6 1
  10    5   53 1
  11    5   54 1
  12    6   55 1
  13    7   56 1
  14    8    9 1
  15    8   57 1
  16    9   10 ar
  17    9   14 ar
  18   10   11 ar
  19   10   27 1
  20   11   12 ar
  21   11   58 1
  22   12   13 ar
  23   12   15 1
  24   13   14 ar
  25   13   59 1
  26   14   60 1
  27   15   16 am
  28   15   17 2
  29   16   18 1
  30   16   61 1
  31   18   19 ar
  32   18   20 ar
  33   19   23 ar
  34   19   62 1
  35   20   21 ar
  36   20   63 1
  37   21   22 ar
  38   21   64 1
  39   22   23 ar
  40   22   24 1
  41   23   65 1
  42   24   25 1
  43   24   26 1
  44   25   34 1
  45   25   66 1
  46   25   67 1
  47   26   33 1
  48   26   68 1
  49   26   69 1
  50   27   28 ar
  51   27   32 ar
  52   28   29 ar
  53   28   70 1
  54   29   30 ar
  55   29   71 1
  56   30   31 ar
  57   30   47 ar
  58   31   32 ar
  59   31   50 ar
  60   32   72 1
  61   33   35 ar
  62   33   39 ar
  63   34   40 ar
  64   34   44 ar
  65   35   36 ar
  66   35   73 1
  67   36   37 ar
  68   36   74 1
  69   37   38 ar
  70   37   45 1
  71   38   39 ar
  72   38   75 1
  73   39   76 1
  74   40   41 ar
  75   40   77 1
  76   41   42 ar
  77   41   78 1
  78   42   43 ar
  79   42   46 1
  80   43   44 ar
  81   43   79 1
  82   44   80 1
  83   47   48 ar
  84   47   81 1
  85   48   49 ar
  86   48   82 1
  87   49   50 ar
  88   49   83 1
  89   50   84 1

#	End of record

