#	Name: ASD00900005
#	Creating user name:	WinNT
#	Creation time:	15. 06. 2019 18:53

#	Modifying user name:	WinNT
#	Modification time:	15. 06. 2019 18:53

#	Program:	/corina/corina34_cracker 3.40 0067  02.08.2006

@<TRIPOS>MOLECULE
ASD00900005
  43   44    0    0    0
SMALL
NO_CHARGES


@<TRIPOS>ATOM
   1 C1            -0.0173     1.4248     0.0099 C.3     
   2 C2             1.4181     1.9544    -0.0010 C.3     
   3 C3             1.4245     3.4933     0.1334 C.3     
   4 O4             1.6779     3.8766     1.4866 O.3     
   5 C5             2.5832     3.9454    -0.7833 C.3     
   6 C6             3.1397     2.6261    -1.3632 C.3     
   7 O7             2.0408     1.6928    -1.2776 O.3     
   8 N8             3.5429     2.8126    -2.7592 N.am    
   9 C9             4.8391     2.6953    -3.0998 C.2     
  10 O10            5.6626     2.4358    -2.2437 O.2     
  11 N11            5.2373     2.8606    -4.3749 N.am    
  12 C12            4.3368     3.1487    -5.3362 C.2     
  13 O13            4.6963     3.2980    -6.4902 O.2     
  14 C14            2.9690     3.2755    -4.9917 C.2     
  15 C15            2.5965     3.0990    -3.7057 C.2     
  16 I16            1.5417     3.7223    -6.4587 I       
  17 P17           -1.3361    -0.8992     0.0100 P.3     
  18 O18           -2.2020    -0.5022    -1.1227 O.2     
  19 O19            0.0021    -0.0041     0.0020 O.3     
  20 O20           -0.0760    -7.5129     0.3741 O.3     
  21 O21           -2.1257    -0.6718     1.3945 O.3     
  22 O22           -0.9428    -2.4537    -0.1344 O.3     
  23 P23           -1.7459    -3.7731    -0.5887 P.3     
  24 O24           -3.1181    -3.7302    -0.0358 O.2     
  25 O25           -1.8167    -3.8314    -2.1961 O.3     
  26 O26           -0.9857    -5.0807    -0.0372 O.3     
  27 P27           -1.3983    -6.6282     0.1274 P.3     
  28 O28           -2.0790    -7.0908    -1.1026 O.2     
  29 O29           -2.3928    -6.7877     1.3834 O.3     
  30 H30           -0.5275     1.7763     0.9067 H       
  31 H31           -0.5445     1.7859    -0.8732 H       
  32 H32            1.9953     1.5007     0.8047 H       
  33 H33            0.4780     3.9106    -0.2099 H       
  34 H34            1.6929     4.8331     1.6281 H       
  35 H35            2.2103     4.5864    -1.5821 H       
  36 H36            3.3492     4.4613    -0.2044 H       
  37 H37            3.9826     2.2755    -0.7675 H       
  38 H38            6.1759     2.7725    -4.6031 H       
  39 H39            1.5574     3.1874    -3.4248 H       
  40 H40           -0.2497    -8.4580     0.4824 H       
  41 H41           -1.6172    -0.9117     2.1813 H       
  42 H42           -0.9515    -3.8615    -2.6271 H       
  43 H43           -2.0119    -6.5028     2.2254 H       
@<TRIPOS>BOND
   1    1   19 1
   2    1    2 1
   3    1   30 1
   4    1   31 1
   5    2    3 1
   6    2    7 1
   7    2   32 1
   8    3    4 1
   9    3    5 1
  10    3   33 1
  11    4   34 1
  12    5    6 1
  13    5   35 1
  14    5   36 1
  15    6    7 1
  16    6    8 1
  17    6   37 1
  18    8    9 am
  19    8   15 1
  20    9   10 2
  21    9   11 am
  22   11   12 am
  23   11   38 1
  24   12   13 2
  25   12   14 1
  26   14   15 2
  27   14   16 1
  28   15   39 1
  29   17   18 2
  30   17   19 1
  31   17   21 1
  32   17   22 1
  33   20   27 1
  34   20   40 1
  35   21   41 1
  36   22   23 1
  37   23   24 2
  38   23   25 1
  39   23   26 1
  40   25   42 1
  41   26   27 1
  42   27   28 2
  43   27   29 1
  44   29   43 1

#	End of record

