#	Name: ASD02508040
#	Creating user name:	WinNT
#	Creation time:	15. 06. 2019 20:23

#	Modifying user name:	WinNT
#	Modification time:	15. 06. 2019 20:23

#	Program:	/corina/corina34_cracker 3.40 0067  02.08.2006

@<TRIPOS>MOLECULE
ASD02508040
  37   39    0    0    0
SMALL
NO_CHARGES


@<TRIPOS>ATOM
   1 C1            -0.0170     1.3989     0.0097 C.ar    
   2 C2             0.0021    -0.0041     0.0020 C.ar    
   3 C3             1.2105     2.0621     0.0016 C.ar    
   4 C4             2.4090     1.3711    -0.0133 C.ar    
   5 C5             2.4101    -0.0096    -0.0208 C.ar    
   6 C6             1.1990    -0.6927    -0.0127 C.ar    
   7 N7            -1.1198     2.2339     0.0192 N.am    
   8 C8            -0.9225     3.5557     0.0247 C.2     
   9 S9             0.8333     3.7906     0.0134 S.3     
  10 N10            1.1930    -2.0917    -0.0198 N.am    
  11 S11            2.2132    -2.9292     0.9803 S.o2    
  12 C12            1.7229    -2.5803     2.6363 C.ar    
  13 C13            1.2251    -3.5898     3.4369 C.ar    
  14 C14           -2.4763     1.6806     0.0225 C.3     
  15 O15           -1.7766     4.4229     0.0330 O.2     
  16 O16            1.9446    -4.3078     0.7643 O.2     
  17 O17            3.5013    -2.3529     0.8133 O.2     
  18 C18            1.8420    -1.2926     3.1388 C.ar    
  19 C19            1.4558    -1.0205     4.4429 C.ar    
  20 C20            0.9534    -2.0319     5.2390 C.ar    
  21 C21            0.8399    -3.3163     4.7377 C.ar    
  22 Cl22           0.2079    -4.5852     5.7396 Cl      
  23 O23            2.3368    -0.2990     2.3543 O.3     
  24 C24            2.4312     1.0021     2.9376 C.3     
  25 H25           -0.9291    -0.5511     0.0080 H       
  26 H26            3.3439     1.9118    -0.0193 H       
  27 H27            3.3429    -0.5539    -0.0330 H       
  28 H28            0.5912    -2.5711    -0.6105 H       
  29 H29            1.1361    -4.5932     3.0474 H       
  30 H30           -2.8080     1.5381     1.0510 H       
  31 H31           -3.1512     2.3701    -0.4846 H       
  32 H32           -2.4790     0.7220    -0.4963 H       
  33 H33            1.5481    -0.0188     4.8360 H       
  34 H34            0.6526    -1.8204     6.2545 H       
  35 H35            3.0854     0.9632     3.8086 H       
  36 H36            2.8405     1.6992     2.2065 H       
  37 H37            1.4395     1.3362     3.2427 H       
@<TRIPOS>BOND
   1    1    2 ar
   2    1    3 ar
   3    1    7 1
   4    2    6 ar
   5    2   25 1
   6    3    4 ar
   7    3    9 1
   8    4    5 ar
   9    4   26 1
  10    5    6 ar
  11    5   27 1
  12    6   10 1
  13    7    8 am
  14    7   14 1
  15    8    9 1
  16    8   15 2
  17   10   11 am
  18   10   28 1
  19   11   12 1
  20   11   16 2
  21   11   17 2
  22   12   13 ar
  23   12   18 ar
  24   13   21 ar
  25   13   29 1
  26   14   30 1
  27   14   31 1
  28   14   32 1
  29   18   19 ar
  30   18   23 1
  31   19   20 ar
  32   19   33 1
  33   20   21 ar
  34   20   34 1
  35   21   22 1
  36   23   24 1
  37   24   35 1
  38   24   36 1
  39   24   37 1

#	End of record

