#	Name: ASD01150445
#	Creating user name:	WinNT
#	Creation time:	15. 06. 2019 19:04

#	Modifying user name:	WinNT
#	Modification time:	15. 06. 2019 19:04

#	Program:	/corina/corina34_cracker 3.40 0067  02.08.2006

@<TRIPOS>MOLECULE
ASD01150445
  38   40    0    0    0
SMALL
NO_CHARGES


@<TRIPOS>ATOM
   1 C1             0.3253     1.3764     0.8383 C.ar    
   2 C2             0.3430    -0.0043     0.8292 C.ar    
   3 C3             1.2095    -0.6812    -0.0129 C.ar    
   4 C4             2.0602     0.0248    -0.8472 C.ar    
   5 C5             2.0458     1.4055    -0.8414 C.ar    
   6 C6             1.1773     2.0864     0.0020 C.ar    
   7 N7             1.1606     3.4862     0.0092 N.am    
   8 C8            -0.0136     4.1355    -0.0785 C.2     
   9 N9            -0.0663     5.4805    -0.0744 N.am    
  10 C10            1.0705     6.2011     0.0187 C.2     
  11 C11            2.3579     5.4971     0.1154 C.2     
  12 N12            2.3662     4.1900     0.1135 N.2     
  13 O13            1.0310     7.4175     0.0222 O.2     
  14 C14           -1.3593     6.1624    -0.1717 C.3     
  15 O15           -1.0451     3.4968    -0.1633 O.2     
  16 C16           -1.9137     6.3876     1.2114 C.ar    
  17 C17           -1.6126     7.5507     1.8953 C.ar    
  18 C18           -2.1209     7.7585     3.1635 C.ar    
  19 C19           -2.9320     6.8013     3.7491 C.ar    
  20 C20           -3.2329     5.6368     3.0632 C.ar    
  21 C21           -2.7278     5.4336     1.7930 C.ar    
  22 O22            3.5200     6.1942     0.2104 O.3     
  23 C23            4.7269     5.4344     0.3005 C.3     
  24 F24           -3.4290     7.0032     4.9890 F       
  25 F25            1.2252    -2.0321    -0.0202 F       
  26 H26           -0.3537     1.9039     1.4919 H       
  27 H27           -0.3190    -0.5567     1.4795 H       
  28 H28            2.7356    -0.5051    -1.5026 H       
  29 H29            2.7096     1.9556    -1.4919 H       
  30 H30           -1.2271     7.1223    -0.6709 H       
  31 H31           -2.0524     5.5470    -0.7453 H       
  32 H32           -0.9796     8.2971     1.4384 H       
  33 H33           -1.8852     8.6671     3.6977 H       
  34 H34           -3.8655     4.8895     3.5190 H       
  35 H35           -2.9624     4.5253     1.2577 H       
  36 H36            4.6921     4.8009     1.1869 H       
  37 H37            4.8310     4.8112    -0.5876 H       
  38 H38            5.5781     6.1115     0.3711 H       
@<TRIPOS>BOND
   1    1    2 ar
   2    1    6 ar
   3    1   26 1
   4    2    3 ar
   5    2   27 1
   6    3    4 ar
   7    3   25 1
   8    4    5 ar
   9    4   28 1
  10    5    6 ar
  11    5   29 1
  12    6    7 1
  13    7    8 am
  14    7   12 1
  15    8    9 am
  16    8   15 2
  17    9   10 am
  18    9   14 1
  19   10   11 1
  20   10   13 2
  21   11   12 2
  22   11   22 1
  23   14   16 1
  24   14   30 1
  25   14   31 1
  26   16   17 ar
  27   16   21 ar
  28   17   18 ar
  29   17   32 1
  30   18   19 ar
  31   18   33 1
  32   19   20 ar
  33   19   24 1
  34   20   21 ar
  35   20   34 1
  36   21   35 1
  37   22   23 1
  38   23   36 1
  39   23   37 1
  40   23   38 1

#	End of record

