#	Name: ASD01911128
#	Creating user name:	WinNT
#	Creation time:	15. 06. 2019 19:57

#	Modifying user name:	WinNT
#	Modification time:	15. 06. 2019 19:57

#	Program:	/corina/corina34_cracker 3.40 0067  02.08.2006

@<TRIPOS>MOLECULE
ASD01911128
  49   52    0    0    0
SMALL
NO_CHARGES


@<TRIPOS>ATOM
   1 C1             0.1213     1.0160     0.1994 C.2     
   2 O2             1.1350     1.6854     0.2517 O.2     
   3 C3             0.2119    -0.4521     0.0767 C.ar    
   4 C4             1.2208    -1.0294    -0.6988 C.ar    
   5 C5             1.3021    -2.3994    -0.8103 C.ar    
   6 C6             0.3821    -3.2080    -0.1532 C.ar    
   7 C7            -0.6229    -2.6376     0.6192 C.ar    
   8 C8            -0.7076    -1.2686     0.7405 C.ar    
   9 O9             0.4651    -4.5578    -0.2663 O.3     
  10 C10           -0.5123    -5.3289     0.4352 C.3     
  11 N11           -1.0850     1.6141     0.2591 N.am    
  12 C12           -2.3161     0.8384     0.0555 C.3     
  13 C13           -3.1459     1.5099    -1.0433 C.3     
  14 C14           -3.3809     2.9766    -0.6751 C.3     
  15 C15           -2.0364     3.7008    -0.5746 C.3     
  16 C16           -1.1942     3.0531     0.5351 C.3     
  17 O17           -5.3981     0.6723    -0.2197 O.3     
  18 N18           -6.3480     0.0521    -0.6490 N.2     
  19 C19           -6.1450    -0.2750    -1.8956 C.2     
  20 N20           -4.9344     0.2075    -2.2443 N.2     
  21 C21           -4.4717     0.8054    -1.1737 C.2     
  22 O22           -6.9931    -0.9712    -2.6926 O.3     
  23 C23           -8.1281    -1.4693    -2.1353 C.ar    
  24 C24           -8.4649    -1.1376    -0.8311 C.ar    
  25 C25           -9.6209    -1.6461    -0.2663 C.ar    
  26 C26          -10.4405    -2.4854    -1.0029 C.ar    
  27 C27          -10.1053    -2.8161    -2.3023 C.ar    
  28 C28           -8.9545    -2.3056    -2.8719 C.ar    
  29 F29           -9.9501    -1.3245     1.0039 F       
  30 H30            1.9356    -0.4018    -1.2103 H       
  31 H31            2.0816    -2.8464    -1.4095 H       
  32 H32           -1.3359    -3.2692     1.1283 H       
  33 H33           -1.4861    -0.8263     1.3444 H       
  34 H34           -0.3321    -6.3896     0.2603 H       
  35 H35           -0.4425    -5.1197     1.5026 H       
  36 H36           -1.5078    -5.0657     0.0776 H       
  37 H37           -2.0620    -0.1773    -0.2477 H       
  38 H38           -2.8893     0.8128     0.9822 H       
  39 H39           -2.6089     1.4540    -1.9902 H       
  40 H40           -3.9920     3.4505    -1.4433 H       
  41 H41           -3.8959     3.0323     0.2839 H       
  42 H42           -1.5099     3.6243    -1.5259 H       
  43 H43           -2.2056     4.7507    -0.3353 H       
  44 H44           -1.6779     3.2044     1.5001 H       
  45 H45           -0.1998     3.4991     0.5485 H       
  46 H46           -7.8253    -0.4835    -0.2572 H       
  47 H47          -11.3426    -2.8822    -0.5611 H       
  48 H48          -10.7458    -3.4706    -2.8747 H       
  49 H49           -8.6962    -2.5610    -3.8889 H       
@<TRIPOS>BOND
   1    1    2 2
   2    1    3 1
   3    1   11 am
   4    3    4 ar
   5    3    8 ar
   6    4    5 ar
   7    4   30 1
   8    5    6 ar
   9    5   31 1
  10    6    7 ar
  11    6    9 1
  12    7    8 ar
  13    7   32 1
  14    8   33 1
  15    9   10 1
  16   10   34 1
  17   10   35 1
  18   10   36 1
  19   11   12 1
  20   11   16 1
  21   12   13 1
  22   12   37 1
  23   12   38 1
  24   13   14 1
  25   13   21 1
  26   13   39 1
  27   14   15 1
  28   14   40 1
  29   14   41 1
  30   15   16 1
  31   15   42 1
  32   15   43 1
  33   16   44 1
  34   16   45 1
  35   17   18 1
  36   17   21 1
  37   18   19 2
  38   19   20 1
  39   19   22 1
  40   20   21 2
  41   22   23 1
  42   23   24 ar
  43   23   28 ar
  44   24   25 ar
  45   24   46 1
  46   25   26 ar
  47   25   29 1
  48   26   27 ar
  49   26   47 1
  50   27   28 ar
  51   27   48 1
  52   28   49 1

#	End of record

