#	Name: ASD01913956
#	Creating user name:	WinNT
#	Creation time:	15. 06. 2019 20:02

#	Modifying user name:	WinNT
#	Modification time:	15. 06. 2019 20:02

#	Program:	/corina/corina34_cracker 3.40 0067  02.08.2006

@<TRIPOS>MOLECULE
ASD01913956
  38   41    0    0    0
SMALL
NO_CHARGES


@<TRIPOS>ATOM
   1 C1            -0.1698     1.6797    -0.0715 C.ar    
   2 C2            -0.1904     0.2963    -0.0864 C.ar    
   3 C3             0.9966    -0.4136    -0.0729 C.ar    
   4 C4             2.2005     0.2696    -0.0450 C.ar    
   5 C5             2.2283     1.6774    -0.0482 C.ar    
   6 C6             1.0284     2.3688    -0.0528 C.ar    
   7 C7             3.5079    -0.4104     0.0150 C.2     
   8 C8             4.6354     0.3297     0.3152 C.2     
   9 C9             4.5582     1.8042     0.5869 C.3     
  10 O10            3.4085     2.3432    -0.0727 O.3     
  11 N11            3.9069    -1.6802    -0.1663 N.pl3   
  12 N12            5.1859    -1.7626    -0.0030 N.2     
  13 C13            5.6947    -0.5748     0.2921 C.2     
  14 C14            7.1167    -0.2679     0.5476 C.2     
  15 N15            8.0387    -1.2494     0.4909 N.am    
  16 C16            9.3914    -0.9433     0.6263 C.ar    
  17 C17           10.3259    -1.9696     0.6784 C.ar    
  18 C18           11.6781    -1.6461     0.8139 C.ar    
  19 C19           12.0306    -0.2927     0.8914 C.ar    
  20 C20           11.0388     0.6644     0.8318 C.ar    
  21 N21            9.7719     0.3224     0.6985 N.ar    
  22 O22            7.4555     0.8699     0.8092 O.2     
  23 C23            3.0252    -2.8019    -0.4989 C.3     
  24 C24           12.6770    -2.6705     0.8724 C.1     
  25 N25           13.4694    -3.4832     0.9188 N.1     
  26 H26           -1.1005     2.2274    -0.0791 H       
  27 H27           -1.1335    -0.2294    -0.1082 H       
  28 H28            0.9844    -1.4934    -0.0837 H       
  29 H29            1.0287     3.4487    -0.0424 H       
  30 H30            4.4748     1.9729     1.6606 H       
  31 H31            5.4569     2.2918     0.2092 H       
  32 H32            7.7606    -2.1688     0.3558 H       
  33 H33           10.0121    -3.0011     0.6155 H       
  34 H34           13.0654    -0.0022     0.9969 H       
  35 H35           11.3041     1.7096     0.8911 H       
  36 H36            2.8547    -2.8232    -1.5753 H       
  37 H37            3.4919    -3.7360    -0.1864 H       
  38 H38            2.0729    -2.6810     0.0174 H       
@<TRIPOS>BOND
   1    1    2 ar
   2    1    6 ar
   3    1   26 1
   4    2    3 ar
   5    2   27 1
   6    3    4 ar
   7    3   28 1
   8    4    5 ar
   9    4    7 1
  10    5    6 ar
  11    5   10 1
  12    6   29 1
  13    7    8 2
  14    7   11 1
  15    8    9 1
  16    8   13 1
  17    9   10 1
  18    9   30 1
  19    9   31 1
  20   11   12 1
  21   11   23 1
  22   12   13 2
  23   13   14 1
  24   14   15 am
  25   14   22 2
  26   15   16 1
  27   15   32 1
  28   16   17 ar
  29   16   21 ar
  30   17   18 ar
  31   17   33 1
  32   18   19 ar
  33   18   24 1
  34   19   20 ar
  35   19   34 1
  36   20   21 ar
  37   20   35 1
  38   23   36 1
  39   23   37 1
  40   23   38 1
  41   24   25 3

#	End of record

