#	Name: ASD02030138
#	Creating user name:	WinNT
#	Creation time:	15. 06. 2019 20:14

#	Modifying user name:	WinNT
#	Modification time:	15. 06. 2019 20:14

#	Program:	/corina/corina34_cracker 3.40 0067  02.08.2006

@<TRIPOS>MOLECULE
ASD02030138
  55   59    0    0    0
SMALL
NO_CHARGES


@<TRIPOS>ATOM
   1 N1            -0.1848     1.2368     0.5417 N.am    
   2 C2            -0.4431    -0.2100     0.5477 C.3     
   3 C3            -1.5091    -0.5131     1.6079 C.3     
   4 N4            -2.6385     0.4072     1.4148 N.am    
   5 C5            -2.3802     1.8540     1.4088 C.3     
   6 C6            -1.3150     2.1573     0.3542 C.3     
   7 C7             1.0654     1.7111     0.7107 C.2     
   8 C8             2.1710     0.7832     1.0304 C.2     
   9 N9             3.4034     1.1253     1.3387 N.2     
  10 N10            2.0928    -0.5598     1.0630 N.2     
  11 C11            3.2784    -1.0108     1.3850 C.2     
  12 N12            4.0877     0.0549     1.5543 N.pl3   
  13 O13            1.2838     2.9018     0.6003 O.2     
  14 C14           -3.8887    -0.0671     1.2458 C.2     
  15 C15           -4.1185    -1.5197     1.1447 C.2     
  16 O16           -4.8271     0.7033     1.1767 O.2     
  17 C17           -0.8344     3.6014     0.5103 C.3     
  18 C18           -1.9045     1.9568    -1.0434 C.3     
  19 C19            5.4437     0.0063     1.9051 C.ar    
  20 C20            6.1678     1.1823     2.0485 C.ar    
  21 C21            7.5040     1.1311     2.3942 C.ar    
  22 C22            8.1208    -0.0898     2.5970 C.ar    
  23 C23            7.4024    -1.2628     2.4549 C.ar    
  24 C24            6.0643    -1.2178     2.1154 C.ar    
  25 C25           -5.2982    -2.1334     0.8552 C.2     
  26 N26           -3.1898    -2.4991     1.3174 N.2     
  27 C27           -3.7689    -3.6500     1.1491 C.2     
  28 O28           -5.0642    -3.4554     0.8642 O.3     
  29 C29           -3.0904    -4.9916     1.2532 C.3     
  30 C30           -3.6147    -5.9684     2.3077 C.3     
  31 C31           -3.8906    -6.2232     0.8245 C.3     
  32 H32           -0.8034    -0.5213    -0.4328 H       
  33 H33            0.4756    -0.7446     0.7892 H       
  34 H34           -1.8524    -1.5418     1.4977 H       
  35 H35           -1.0867    -0.3703     2.6025 H       
  36 H36           -3.2988     2.3886     1.1672 H       
  37 H37           -2.0199     2.1653     2.3893 H       
  38 H38            3.5573    -2.0480     1.4978 H       
  39 H39           -0.3105     3.7093     1.4600 H       
  40 H40           -0.1584     3.8498    -0.3078 H       
  41 H41           -1.6919     4.2739     0.4900 H       
  42 H42           -2.7514     2.6292    -1.1804 H       
  43 H43           -1.1435     2.1736    -1.7932 H       
  44 H44           -2.2384     0.9250    -1.1524 H       
  45 H45            5.6867     2.1361     1.8895 H       
  46 H46            8.0677     2.0455     2.5059 H       
  47 H47            9.1660    -0.1273     2.8665 H       
  48 H48            7.8869    -2.2148     2.6139 H       
  49 H49            5.5036    -2.1343     2.0049 H       
  50 H50           -6.2428    -1.6492     0.6561 H       
  51 H51           -2.0187    -4.9931     1.0545 H       
  52 H52           -2.8880    -6.6129     2.8023 H       
  53 H53           -4.4504    -5.6407     2.9260 H       
  54 H54           -4.9078    -6.0630     0.4671 H       
  55 H55           -3.3454    -7.0352     0.3433 H       
@<TRIPOS>BOND
   1    1    2 1
   2    1    7 am
   3    1    6 1
   4    2    3 1
   5    2   32 1
   6    2   33 1
   7    3    4 1
   8    3   34 1
   9    3   35 1
  10    4    5 1
  11    4   14 am
  12    5    6 1
  13    5   36 1
  14    5   37 1
  15    6   17 1
  16    6   18 1
  17    7    8 1
  18    7   13 2
  19    8    9 2
  20    8   10 1
  21    9   12 1
  22   10   11 2
  23   11   12 1
  24   11   38 1
  25   12   19 1
  26   14   15 1
  27   14   16 2
  28   15   26 1
  29   15   25 2
  30   17   39 1
  31   17   40 1
  32   17   41 1
  33   18   42 1
  34   18   43 1
  35   18   44 1
  36   19   20 ar
  37   19   24 ar
  38   20   21 ar
  39   20   45 1
  40   21   22 ar
  41   21   46 1
  42   22   23 ar
  43   22   47 1
  44   23   24 ar
  45   23   48 1
  46   24   49 1
  47   25   28 1
  48   25   50 1
  49   26   27 2
  50   27   28 1
  51   27   29 1
  52   29   30 1
  53   29   31 1
  54   29   51 1
  55   30   31 1
  56   30   52 1
  57   30   53 1
  58   31   54 1
  59   31   55 1

#	End of record

