#	Name: ASD03570010
#	Creating user name:	WinNT
#	Creation time:	15. 06. 2019 20:43

#	Modifying user name:	WinNT
#	Modification time:	15. 06. 2019 20:43

#	Program:	/corina/corina34_cracker 3.40 0067  02.08.2006

@<TRIPOS>MOLECULE
ASD03570010
  28   29    0    0    0
SMALL
NO_CHARGES


@<TRIPOS>ATOM
   1 C1            -0.0168     1.3859     0.0097 C.ar    
   2 C2             0.0021    -0.0041     0.0020 C.ar    
   3 C3             1.1965    -0.6897    -0.0131 C.ar    
   4 C4             2.3980     0.0134    -0.0209 C.ar    
   5 C5             2.3759     1.4220    -0.0131 C.ar    
   6 C6             1.1476     2.0964     0.0024 C.ar    
   7 N7             3.7160    -0.3772    -0.0356 N.pl3   
   8 C8             4.5144     0.7510    -0.0372 C.2     
   9 C9             3.7230     1.8565    -0.0237 C.2     
  10 C10            4.1952     3.2876    -0.0210 C.3     
  11 C11            4.3413     3.7791    -1.4625 C.3     
  12 I12           -1.8037    -1.0662     0.0143 I       
  13 C13            4.8136     5.2102    -1.4598 C.2     
  14 O14            5.0128     5.7787    -0.4124 O.2     
  15 O15            5.0128     5.8534    -2.6210 O.3     
  16 C16            5.9830     0.7551    -0.0513 C.2     
  17 O17            6.5880     1.8097    -0.0510 O.2     
  18 O18            6.6604    -0.4108    -0.0645 O.3     
  19 H19           -0.9621     1.9081     0.0170 H       
  20 H20            1.2010    -1.7697    -0.0186 H       
  21 H21            1.1230     3.1761     0.0080 H       
  22 H22            4.0334    -1.2937    -0.0433 H       
  23 H23            3.4688     3.9089     0.5029 H       
  24 H24            5.1590     3.3512     0.4840 H       
  25 H25            5.0677     3.1578    -1.9864 H       
  26 H26            3.3775     3.7155    -1.9675 H       
  27 H27            5.3159     6.7702    -2.5687 H       
  28 H28            7.6259    -0.3575    -0.0735 H       
@<TRIPOS>BOND
   1    1    2 ar
   2    1    6 ar
   3    1   19 1
   4    2    3 ar
   5    2   12 1
   6    3    4 ar
   7    3   20 1
   8    4    5 ar
   9    4    7 1
  10    5    6 ar
  11    5    9 1
  12    6   21 1
  13    7    8 1
  14    7   22 1
  15    8    9 2
  16    8   16 1
  17    9   10 1
  18   10   11 1
  19   10   23 1
  20   10   24 1
  21   11   13 1
  22   11   25 1
  23   11   26 1
  24   13   14 2
  25   13   15 1
  26   15   27 1
  27   16   17 2
  28   16   18 1
  29   18   28 1

#	End of record

