#	Name: ASD02039010
#	Creating user name:	WinNT
#	Creation time:	15. 06. 2019 20:17

#	Modifying user name:	WinNT
#	Modification time:	15. 06. 2019 20:17

#	Program:	/corina/corina34_cracker 3.40 0067  02.08.2006

@<TRIPOS>MOLECULE
ASD02039010
  44   46    0    0    0
SMALL
NO_CHARGES


@<TRIPOS>ATOM
   1 N1             0.1780     1.3327     0.5229 N.2     
   2 N2             0.2837     0.0518     0.4640 N.2     
   3 C3             1.3662     1.8582     0.6965 C.2     
   4 O4             2.2485     0.8428     0.7466 O.3     
   5 C5             1.5323    -0.2884     0.5964 C.2     
   6 N6             1.6591     3.2058     0.8071 N.pl3   
   7 C7             0.6239     4.1444     0.8577 C.ar    
   8 C8             2.0784    -1.6929     0.5845 C.3     
   9 O9             2.4135    -2.0623    -0.7547 O.3     
  10 C10            2.9235    -3.3088    -0.9419 C.ar    
  11 C11            3.2700    -3.7318    -2.2168 C.ar    
  12 C12            3.1023    -4.1549     0.1427 C.ar    
  13 C13            3.6207    -5.4208    -0.0468 C.ar    
  14 C14            3.9628    -5.8466    -1.3231 C.ar    
  15 C15            3.7884    -4.9974    -2.4076 C.ar    
  16 C16           -0.5864     3.8136     1.4529 C.ar    
  17 C17            0.8064     5.4114     0.3178 C.ar    
  18 C18           -0.2171     6.3370     0.3692 C.ar    
  19 C19           -1.4243     6.0040     0.9580 C.ar    
  20 C20           -1.6078     4.7437     1.5019 C.ar    
  21 Cl21          -2.7086     7.1703     1.0209 Cl      
  22 N22            4.4893    -7.1311    -1.5160 N.am    
  23 C23            4.0935    -8.1475    -0.7245 C.2     
  24 O24            3.2119    -7.9729     0.0934 O.2     
  25 O25            4.6749    -9.3566    -0.8400 O.3     
  26 Cl26          -3.1236     4.3296     2.2398 Cl      
  27 C27            4.1982   -10.4045     0.0449 C.3     
  28 C28            4.9711   -11.6958    -0.2310 C.3     
  29 H29            2.5826     3.4995     0.8495 H       
  30 H30            2.9707    -1.7411     1.2087 H       
  31 H31            1.3257    -2.3788     0.9731 H       
  32 H32            3.1340    -3.0713    -3.0603 H       
  33 H33            2.8365    -3.8234     1.1356 H       
  34 H34            3.7602    -6.0793     0.7978 H       
  35 H35            4.0540    -5.3282    -3.4008 H       
  36 H36           -0.7295     2.8306     1.8767 H       
  37 H37            1.7483     5.6724    -0.1417 H       
  38 H38           -0.0751     7.3221    -0.0502 H       
  39 H39            5.1387    -7.2885    -2.2192 H       
  40 H40            4.3524   -10.1031     1.0810 H       
  41 H41            3.1356   -10.5725    -0.1303 H       
  42 H42            6.0337   -11.5277    -0.0558 H       
  43 H43            4.6132   -12.4824     0.4333 H       
  44 H44            4.8169   -11.9971    -1.2671 H       
@<TRIPOS>BOND
   1    1    2 1
   2    1    3 2
   3    2    5 2
   4    3    4 1
   5    3    6 1
   6    4    5 1
   7    5    8 1
   8    6    7 1
   9    6   29 1
  10    7   16 ar
  11    7   17 ar
  12    8    9 1
  13    8   30 1
  14    8   31 1
  15    9   10 1
  16   10   11 ar
  17   10   12 ar
  18   11   15 ar
  19   11   32 1
  20   12   13 ar
  21   12   33 1
  22   13   14 ar
  23   13   34 1
  24   14   15 ar
  25   14   22 1
  26   15   35 1
  27   16   20 ar
  28   16   36 1
  29   17   18 ar
  30   17   37 1
  31   18   19 ar
  32   18   38 1
  33   19   20 ar
  34   19   21 1
  35   20   26 1
  36   22   23 am
  37   22   39 1
  38   23   24 2
  39   23   25 1
  40   25   27 1
  41   27   28 1
  42   27   40 1
  43   27   41 1
  44   28   42 1
  45   28   43 1
  46   28   44 1

#	End of record

