#	Name: ASD01814298
#	Creating user name:	WinNT
#	Creation time:	15. 06. 2019 19:32

#	Modifying user name:	WinNT
#	Modification time:	15. 06. 2019 19:32

#	Program:	/corina/corina34_cracker 3.40 0067  02.08.2006

@<TRIPOS>MOLECULE
ASD01814298
  57   62    0    0    0
SMALL
NO_CHARGES


@<TRIPOS>ATOM
   1 C1             0.0326     1.2731    -0.0019 C.ar    
   2 C2             0.0710    -0.1174     0.0084 C.ar    
   3 C3             1.2585    -0.7866     0.0104 C.ar    
   4 C4             2.4633    -0.0672     0.0019 C.ar    
   5 C5             2.4204     1.3484    -0.0085 C.ar    
   6 C6             1.1849     2.0037    -0.0103 C.ar    
   7 C7             3.7074    -0.7324     0.0033 C.ar    
   8 C8             4.8717    -0.0406    -0.0053 C.ar    
   9 C9             4.8851     1.3631    -0.0155 C.ar    
  10 C10            3.6791     2.0882    -0.0173 C.ar    
  11 C11            6.1412     2.1227    -0.0249 C.2     
  12 N12            6.0536     3.4731    -0.0348 N.am    
  13 C13            4.8402     4.0851    -0.0358 C.2     
  14 N14            3.7153     3.4310    -0.0279 N.2     
  15 C15            3.7414    -2.2389     0.0150 C.3     
  16 C16            3.6245    -2.7550    -1.3961 C.ar    
  17 C17            4.7639    -2.9653    -2.1506 C.ar    
  18 C18            4.6594    -3.4383    -3.4443 C.ar    
  19 C19            3.4099    -3.7024    -3.9863 C.ar    
  20 C20            2.2682    -3.4906    -3.2271 C.ar    
  21 C21            2.3784    -3.0228    -1.9320 C.ar    
  22 O22            7.2209     1.5592    -0.0235 O.2     
  23 C23            7.2154     4.2413    -0.0435 C.2     
  24 N24            7.9277     4.6056    -1.1335 N.pl3   
  25 N25            9.0199     5.3704    -0.7080 N.2     
  26 C26            8.9833     5.4742     0.5936 C.2     
  27 C27            7.8518     4.7785     1.0605 C.2     
  28 C28            7.4270     4.6389     2.4747 C.ar    
  29 C29            8.3045     4.1097     3.4194 C.ar    
  30 C30            7.9051     3.9815     4.7345 C.ar    
  31 C31            6.6364     4.3766     5.1167 C.ar    
  32 C32            5.7587     4.9032     4.1825 C.ar    
  33 C33            6.1512     5.0419     2.8646 C.ar    
  34 F34            4.5201     5.2871     4.5617 F       
  35 O35            3.3045    -4.1674    -5.2589 O.3     
  36 C36            1.9864    -4.4173    -5.7512 C.3     
  37 H37           -0.9207     1.7805    -0.0077 H       
  38 H38           -0.8539    -0.6751     0.0153 H       
  39 H39            1.2722    -1.8665     0.0188 H       
  40 H40            1.1431     3.0829    -0.0179 H       
  41 H41            5.8078    -0.5793    -0.0040 H       
  42 H42            4.8080     5.1645    -0.0438 H       
  43 H43            4.6821    -2.5778     0.4490 H       
  44 H44            2.9098    -2.6165     0.6100 H       
  45 H45            5.7363    -2.7592    -1.7284 H       
  46 H46            5.5496    -3.6021    -4.0335 H       
  47 H47            1.2944    -3.6954    -3.6468 H       
  48 H48            1.4899    -2.8581    -1.3404 H       
  49 H49            7.7179     4.3763    -2.0524 H       
  50 H50            9.6963     6.0061     1.2061 H       
  51 H51            9.2956     3.7999     3.1227 H       
  52 H52            8.5851     3.5714     5.4665 H       
  53 H53            6.3282     4.2741     6.1467 H       
  54 H54            5.4672     5.4523     2.1365 H       
  55 H55            1.5004    -5.1653    -5.1249 H       
  56 H56            1.4087    -3.4933    -5.7282 H       
  57 H57            2.0448    -4.7839    -6.7761 H       
@<TRIPOS>BOND
   1    1    2 ar
   2    1    6 ar
   3    1   37 1
   4    2    3 ar
   5    2   38 1
   6    3    4 ar
   7    3   39 1
   8    4    5 ar
   9    4    7 ar
  10    5    6 ar
  11    5   10 ar
  12    6   40 1
  13    7    8 ar
  14    7   15 1
  15    8    9 ar
  16    8   41 1
  17    9   10 ar
  18    9   11 1
  19   10   14 1
  20   11   12 am
  21   11   22 2
  22   12   13 1
  23   12   23 1
  24   13   14 2
  25   13   42 1
  26   15   16 1
  27   15   43 1
  28   15   44 1
  29   16   17 ar
  30   16   21 ar
  31   17   18 ar
  32   17   45 1
  33   18   19 ar
  34   18   46 1
  35   19   20 ar
  36   19   35 1
  37   20   21 ar
  38   20   47 1
  39   21   48 1
  40   23   24 1
  41   23   27 2
  42   24   25 1
  43   24   49 1
  44   25   26 2
  45   26   27 1
  46   26   50 1
  47   27   28 1
  48   28   29 ar
  49   28   33 ar
  50   29   30 ar
  51   29   51 1
  52   30   31 ar
  53   30   52 1
  54   31   32 ar
  55   31   53 1
  56   32   33 ar
  57   32   34 1
  58   33   54 1
  59   35   36 1
  60   36   55 1
  61   36   56 1
  62   36   57 1

#	End of record

