#	Name: ASD01816757
#	Creating user name:	WinNT
#	Creation time:	15. 06. 2019 19:35

#	Modifying user name:	WinNT
#	Modification time:	15. 06. 2019 19:35

#	Program:	/corina/corina34_cracker 3.40 0067  02.08.2006

@<TRIPOS>MOLECULE
ASD01816757
  70   75    0    0    0
SMALL
NO_CHARGES


@<TRIPOS>ATOM
   1 C1            -1.4572     1.8278     1.1914 C.2     
   2 C2            -1.5977     0.4865     0.8102 C.2     
   3 C3            -0.4839    -0.2769     0.6170 C.2     
   4 C4             0.7859     0.2947     0.8036 C.2     
   5 N5             0.8937     1.6071     1.1765 N.am    
   6 C6            -0.2268     2.3605     1.3662 C.2     
   7 C7             1.9323    -0.4872     0.6060 C.2     
   8 C8             3.1705     0.0590     0.7847 C.2     
   9 C9             3.2771     1.4082     1.1674 C.2     
  10 C10            2.1060     2.1683     1.3593 C.2     
  11 C11            1.7978    -1.9313     0.1965 C.3     
  12 O12            2.1894     3.3390     1.6907 O.2     
  13 C13            4.5954     2.0185     1.3659 C.2     
  14 N14            4.7185     3.3601     1.4011 N.am    
  15 O15            5.5787     1.3134     1.4988 O.2     
  16 N16            1.9005    -2.0374    -1.2651 N.3     
  17 C17            2.0120    -3.4403    -1.6843 C.3     
  18 C18            2.2626    -3.5051    -3.1926 C.3     
  19 C19            1.1047    -2.8238    -3.9272 C.3     
  20 C20            0.9796    -1.3785    -3.4372 C.3     
  21 C21            0.7661    -1.3755    -1.9218 C.3     
  22 C22            1.3748    -2.8314    -5.4098 C.ar    
  23 N23            2.5889    -3.0980    -5.8496 N.ar    
  24 C24            2.8716    -3.1157    -7.1376 C.ar    
  25 C25            1.8952    -2.8524    -8.0793 C.ar    
  26 C26            0.6061    -2.5677    -7.6546 C.ar    
  27 C27            0.3457    -2.5642    -6.2930 C.ar    
  28 C28           -0.1471    -3.5472    -3.6503 C.1     
  29 N29           -1.1131    -4.1055    -3.4366 N.1     
  30 C30            5.5144     4.0098     2.4514 C.3     
  31 C31            4.7118     5.2087     2.9735 C.3     
  32 C32            4.5276     6.2128     1.8358 C.3     
  33 C33            3.9773     5.5286     0.6124 C.ar    
  34 C34            4.0943     4.1582     0.4335 C.ar    
  35 C35            3.3461     6.2921    -0.3556 C.ar    
  36 C36            2.8328     5.6941    -1.4899 C.ar    
  37 C37            2.9469     4.3272    -1.6670 C.ar    
  38 C38            3.5780     3.5590    -0.7102 C.ar    
  39 C39            3.7029     2.0696    -0.9024 C.3     
  40 H40           -2.3347     2.4393     1.3418 H       
  41 H41           -2.5803     0.0605     0.6707 H       
  42 H42           -0.5773    -1.3120     0.3234 H       
  43 H43           -0.1304     3.3952     1.6604 H       
  44 H44            4.0579    -0.5380     0.6344 H       
  45 H45            2.5925    -2.5159     0.6600 H       
  46 H46            0.8296    -2.3124     0.5213 H       
  47 H47            2.8416    -3.9119    -1.1577 H       
  48 H48            1.0864    -3.9649    -1.4471 H       
  49 H49            3.1952    -2.9926    -3.4288 H       
  50 H50            2.3297    -4.5469    -3.5060 H       
  51 H51            1.8919    -0.8326    -3.6773 H       
  52 H52            0.1300    -0.9011    -3.9254 H       
  53 H53           -0.1537    -1.9097    -1.6835 H       
  54 H54            0.6909    -0.3473    -1.5677 H       
  55 H55            3.8780    -3.3383    -7.4602 H       
  56 H56            2.1330    -2.8677    -9.1326 H       
  57 H57           -0.1772    -2.3577    -8.3679 H       
  58 H58           -0.6468    -2.3471    -5.9267 H       
  59 H59            5.6981     3.3066     3.2637 H       
  60 H60            6.4627     4.3525     2.0373 H       
  61 H61            3.7365     4.8707     3.3237 H       
  62 H62            5.2527     5.6811     3.7935 H       
  63 H63            3.8359     6.9932     2.1533 H       
  64 H64            5.4904     6.6629     1.5939 H       
  65 H65            3.2545     7.3600    -0.2226 H       
  66 H66            2.3410     6.2953    -2.2403 H       
  67 H67            2.5455     3.8615    -2.5550 H       
  68 H68            3.8735     1.8523    -1.9568 H       
  69 H69            4.5414     1.6964    -0.3143 H       
  70 H70            2.7843     1.5826    -0.5751 H       
@<TRIPOS>BOND
   1    1    2 1
   2    1    6 2
   3    1   40 1
   4    2    3 2
   5    2   41 1
   6    3    4 1
   7    3   42 1
   8    4    5 1
   9    4    7 2
  10    5    6 1
  11    5   10 am
  12    6   43 1
  13    7    8 1
  14    7   11 1
  15    8    9 2
  16    8   44 1
  17    9   10 1
  18    9   13 1
  19   10   12 2
  20   11   16 1
  21   11   45 1
  22   11   46 1
  23   13   15 2
  24   13   14 am
  25   14   30 1
  26   14   34 1
  27   16   17 1
  28   16   21 1
  29   17   18 1
  30   17   47 1
  31   17   48 1
  32   18   19 1
  33   18   49 1
  34   18   50 1
  35   19   20 1
  36   19   22 1
  37   19   28 1
  38   20   21 1
  39   20   51 1
  40   20   52 1
  41   21   53 1
  42   21   54 1
  43   22   23 ar
  44   22   27 ar
  45   23   24 ar
  46   24   25 ar
  47   24   55 1
  48   25   26 ar
  49   25   56 1
  50   26   27 ar
  51   26   57 1
  52   27   58 1
  53   28   29 3
  54   30   31 1
  55   30   59 1
  56   30   60 1
  57   31   32 1
  58   31   61 1
  59   31   62 1
  60   32   33 1
  61   32   63 1
  62   32   64 1
  63   33   34 ar
  64   33   35 ar
  65   34   38 ar
  66   35   36 ar
  67   35   65 1
  68   36   37 ar
  69   36   66 1
  70   37   38 ar
  71   37   67 1
  72   38   39 1
  73   39   68 1
  74   39   69 1
  75   39   70 1

#	End of record

