#	Name: ASD02500874
#	Creating user name:	WinNT
#	Creation time:	15. 06. 2019 20:23

#	Modifying user name:	WinNT
#	Modification time:	15. 06. 2019 20:23

#	Program:	/corina/corina34_cracker 3.40 0067  02.08.2006

@<TRIPOS>MOLECULE
ASD02500874
  40   42    0    0    0
SMALL
NO_CHARGES


@<TRIPOS>ATOM
   1 C1             0.0808     1.4714    -0.1234 C.2     
   2 C2            -1.0052     2.0416     0.4549 C.2     
   3 C3            -1.0640     3.2800     1.2437 C.2     
   4 N4            -2.2676     3.6000     1.6891 N.am    
   5 C5            -3.3081     2.8088     1.4043 C.2     
   6 S6            -2.6847     1.4681     0.4272 S.3     
   7 O7            -0.0802     3.9592     1.4703 O.2     
   8 C8            -2.4599     4.8121     2.4891 C.3     
   9 C9            -2.7667     5.9722     1.5775 C.2     
  10 O10           -2.9815     7.1926     2.0935 O.3     
  11 O11           -2.8193     5.8038     0.3822 O.2     
  12 S12           -4.9333     3.0495     1.8856 S.2     
  13 C13            1.3647     2.1874    -0.1418 C.ar    
  14 C14            2.5590     1.4947     0.0859 C.ar    
  15 C15            1.3985     3.5630    -0.3927 C.ar    
  16 C16            2.6114     4.2287    -0.4081 C.ar    
  17 C17            3.7907     3.5321    -0.1750 C.ar    
  18 C18            3.7609     2.1709     0.0676 C.ar    
  19 O19            2.6492     5.5653    -0.6519 O.3     
  20 C20            3.2251     5.9608    -1.8039 C.2     
  21 O21            3.5922     5.1340    -2.6147 O.2     
  22 C22            3.4100     7.3999    -2.0811 C.ar    
  23 C23            4.0065     7.8133    -3.2740 C.ar    
  24 C24            4.1762     9.1588    -3.5264 C.ar    
  25 C25            3.7569    10.0979    -2.6007 C.ar    
  26 C26            3.1655     9.6951    -1.4164 C.ar    
  27 C27            2.9840     8.3531    -1.1539 C.ar    
  28 H28            0.0037     0.4896    -0.5666 H       
  29 H29           -3.2898     4.6635     3.1800 H       
  30 H30           -1.5512     5.0233     3.0528 H       
  31 H31           -3.1747     7.9054     1.4692 H       
  32 H32            2.5396     0.4318     0.2761 H       
  33 H33            0.4813     4.1035    -0.5742 H       
  34 H34            4.7354     4.0552    -0.1882 H       
  35 H35            4.6818     1.6363     0.2483 H       
  36 H36            4.3346     7.0814    -3.9972 H       
  37 H37            4.6377     9.4800    -4.4485 H       
  38 H38            3.8921    11.1500    -2.8033 H       
  39 H39            2.8411    10.4333    -0.6978 H       
  40 H40            2.5219     8.0401    -0.2293 H       
@<TRIPOS>BOND
   1    1    2 2
   2    1   13 1
   3    1   28 1
   4    2    3 1
   5    2    6 1
   6    3    4 am
   7    3    7 2
   8    4    5 am
   9    4    8 1
  10    5    6 1
  11    5   12 2
  12    8    9 1
  13    8   29 1
  14    8   30 1
  15    9   10 1
  16    9   11 2
  17   10   31 1
  18   13   14 ar
  19   13   15 ar
  20   14   18 ar
  21   14   32 1
  22   15   16 ar
  23   15   33 1
  24   16   17 ar
  25   16   19 1
  26   17   18 ar
  27   17   34 1
  28   18   35 1
  29   19   20 1
  30   20   21 2
  31   20   22 1
  32   22   23 ar
  33   22   27 ar
  34   23   24 ar
  35   23   36 1
  36   24   25 ar
  37   24   37 1
  38   25   26 ar
  39   25   38 1
  40   26   27 ar
  41   26   39 1
  42   27   40 1

#	End of record

