#	Name: ASD03240379
#	Creating user name:	WinNT
#	Creation time:	15. 06. 2019 20:34

#	Modifying user name:	WinNT
#	Modification time:	15. 06. 2019 20:34

#	Program:	/corina/corina34_cracker 3.40 0067  02.08.2006

@<TRIPOS>MOLECULE
ASD03240379
  46   46    0    0    0
SMALL
NO_CHARGES


@<TRIPOS>ATOM
   1 C1            -0.0187     1.5258     0.0104 C.3     
   2 C2             0.0021    -0.0041     0.0020 C.3     
   3 C3            -1.4333    -0.5336     0.0129 C.3     
   4 C4            -1.4126    -2.0635     0.0045 C.3     
   5 C5            -2.8479    -2.5931     0.0153 C.3     
   6 C6            -2.8272    -4.1229     0.0069 C.3     
   7 C7            -4.2626    -4.6525     0.0178 C.3     
   8 C8            -4.2421    -6.1593     0.0095 C.2     
   9 O9            -3.1883    -6.7488    -0.0037 O.2     
  10 C10           -5.5368    -6.9305     0.0177 C.3     
  11 C11           -5.2369    -8.4308     0.0068 C.3     
  12 C12           -6.5316    -9.2020     0.0150 C.ar    
  13 C13           -7.1354    -9.5484    -1.1790 C.ar    
  14 C14           -8.3235   -10.2560    -1.1767 C.ar    
  15 C15           -8.9111   -10.6192     0.0240 C.ar    
  16 C16           -8.3029   -10.2703     1.2265 C.ar    
  17 C17           -7.1099    -9.5663     1.2171 C.ar    
  18 O18           -8.8759   -10.6246     2.4079 O.3     
  19 C19           -8.1958   -10.2328     3.6020 C.3     
  20 O20          -10.0797   -11.3147     0.0279 O.3     
  21 H21            1.0039     1.9031     0.0027 H       
  22 H22           -0.5459     1.8868    -0.8726 H       
  23 H23           -0.5289     1.8773     0.9072 H       
  24 H24            0.5123    -0.3556    -0.8948 H       
  25 H25            0.5293    -0.3651     0.8851 H       
  26 H26           -1.9435    -0.1821     0.9097 H       
  27 H27           -1.9605    -0.1726    -0.8702 H       
  28 H28           -0.9024    -2.4150    -0.8923 H       
  29 H29           -0.8854    -2.4246     0.8875 H       
  30 H30           -3.3581    -2.2415     0.9121 H       
  31 H31           -3.3751    -2.2320    -0.8677 H       
  32 H32           -2.3170    -4.4744    -0.8899 H       
  33 H33           -2.3000    -4.4840     0.8900 H       
  34 H34           -4.7728    -4.3010     0.9146 H       
  35 H35           -4.7898    -4.2914    -0.8653 H       
  36 H36           -6.1034    -6.6798     0.9145 H       
  37 H37           -6.1204    -6.6702    -0.8654 H       
  38 H38           -4.6703    -8.6815    -0.8900 H       
  39 H39           -4.6533    -8.6911     0.8899 H       
  40 H40           -6.6785    -9.2655    -2.1158 H       
  41 H41           -8.7935   -10.5252    -2.1111 H       
  42 H42           -6.6361    -9.2944     2.1487 H       
  43 H43           -8.1107    -9.1465     3.6319 H       
  44 H44           -8.7580   -10.5773     4.4700 H       
  45 H45           -7.1999   -10.6757     3.6150 H       
  46 H46           -9.9659   -12.2750     0.0205 H       
@<TRIPOS>BOND
   1    1    2 1
   2    1   21 1
   3    1   22 1
   4    1   23 1
   5    2    3 1
   6    2   24 1
   7    2   25 1
   8    3    4 1
   9    3   26 1
  10    3   27 1
  11    4    5 1
  12    4   28 1
  13    4   29 1
  14    5    6 1
  15    5   30 1
  16    5   31 1
  17    6    7 1
  18    6   32 1
  19    6   33 1
  20    7    8 1
  21    7   34 1
  22    7   35 1
  23    8    9 2
  24    8   10 1
  25   10   11 1
  26   10   36 1
  27   10   37 1
  28   11   12 1
  29   11   38 1
  30   11   39 1
  31   12   13 ar
  32   12   17 ar
  33   13   14 ar
  34   13   40 1
  35   14   15 ar
  36   14   41 1
  37   15   16 ar
  38   15   20 1
  39   16   17 ar
  40   16   18 1
  41   17   42 1
  42   18   19 1
  43   19   43 1
  44   19   44 1
  45   19   45 1
  46   20   46 1

#	End of record

