#	Name: ASD00960197
#	Creating user name:	WinNT
#	Creation time:	15. 06. 2019 18:53

#	Modifying user name:	WinNT
#	Modification time:	15. 06. 2019 18:53

#	Program:	/corina/corina34_cracker 3.40 0067  02.08.2006

@<TRIPOS>MOLECULE
ASD00960197
  32   34    0    0    0
SMALL
NO_CHARGES


@<TRIPOS>ATOM
   1 C1            -0.0168     1.3888     0.0097 C.2     
   2 C2             0.0021    -0.0041     0.0020 C.2     
   3 N3             1.2759     1.8333    -0.0003 N.pl3   
   4 C4             2.1097     0.7445    -0.0141 C.2     
   5 C5             1.3267    -0.4035    -0.0128 C.2     
   6 N6             1.8468     3.1135     0.0011 N.2     
   7 C7             3.1465     3.2504    -0.0105 C.2     
   8 N8             3.9672     2.2045    -0.0239 N.2     
   9 C9             3.5083     0.9651    -0.0262 C.2     
  10 N10            4.3831    -0.1029    -0.0399 N.pl3   
  11 I11           -1.6710    -1.2649     0.0118 I       
  12 C12           -1.1765     2.2046     0.0199 C.2     
  13 O13           -2.2804     1.6928     0.0230 O.2     
  14 O14           -1.0560     3.5487     0.0261 O.3     
  15 C15           -2.2662     4.3086     0.0362 C.3     
  16 C16           -1.9360     5.7790     0.0420 C.ar    
  17 C17           -1.7909     6.4594    -1.1525 C.ar    
  18 C18           -1.4880     7.8082    -1.1472 C.ar    
  19 C19           -1.3307     8.4766     0.0525 C.ar    
  20 C20           -1.4768     7.7963     1.2470 C.ar    
  21 C21           -1.7840     6.4485     1.2418 C.ar    
  22 H22            1.6865    -1.4218    -0.0217 H       
  23 H23            3.5673     4.2450    -0.0096 H       
  24 H24            5.3403     0.0542    -0.0478 H       
  25 H25            4.0406    -1.0104    -0.0415 H       
  26 H26           -2.8517     4.0711    -0.8519 H       
  27 H27           -2.8425     4.0621     0.9280 H       
  28 H28           -1.9137     5.9372    -2.0899 H       
  29 H29           -1.3739     8.3396    -2.0805 H       
  30 H30           -1.0934     9.5301     0.0566 H       
  31 H31           -1.3536     8.3184     2.1844 H       
  32 H32           -1.9018     5.9178     2.1750 H       
@<TRIPOS>BOND
   1    1    2 2
   2    1    3 1
   3    1   12 1
   4    2   11 1
   5    2    5 1
   6    3    4 1
   7    3    6 1
   8    4    5 2
   9    4    9 1
  10    5   22 1
  11    6    7 2
  12    7    8 1
  13    7   23 1
  14    8    9 2
  15    9   10 1
  16   10   24 1
  17   10   25 1
  18   12   13 2
  19   12   14 1
  20   14   15 1
  21   15   16 1
  22   15   26 1
  23   15   27 1
  24   16   17 ar
  25   16   21 ar
  26   17   18 ar
  27   17   28 1
  28   18   19 ar
  29   18   29 1
  30   19   20 ar
  31   19   30 1
  32   20   21 ar
  33   20   31 1
  34   21   32 1

#	End of record

