#	Name: ASD01903279
#	Creating user name:	WinNT
#	Creation time:	15. 06. 2019 19:54

#	Modifying user name:	WinNT
#	Modification time:	15. 06. 2019 19:54

#	Program:	/corina/corina34_cracker 3.40 0067  02.08.2006

@<TRIPOS>MOLECULE
ASD01903279
  39   42    0    0    0
SMALL
NO_CHARGES


@<TRIPOS>ATOM
   1 C1             0.0316     1.3107     0.0770 C.ar    
   2 C2            -1.0988     1.6194    -0.6624 C.ar    
   3 C3            -1.0981     2.7499    -1.4649 C.ar    
   4 C4             0.0425     3.5362    -1.4983 C.ar    
   5 C5             1.1429     3.1653    -0.7284 C.ar    
   6 N6             1.1011     2.0746     0.0268 N.ar    
   7 C7             2.3699     3.9948    -0.7534 C.2     
   8 O8             2.4138     4.9942    -1.4434 O.2     
   9 N9             3.4376     3.6411    -0.0108 N.am    
  10 C10            4.6295     4.3682    -0.1082 C.ar    
  11 C11            4.5905     5.7426    -0.3035 C.ar    
  12 C12            5.7673     6.4599    -0.3996 C.ar    
  13 C13            6.9891     5.8060    -0.3009 C.ar    
  14 C14            7.0274     4.4321    -0.1057 C.ar    
  15 C15            5.8516     3.7160    -0.0039 C.ar    
  16 N16            8.1847     6.5335    -0.4047 N.am    
  17 C17            8.8327     6.7720    -1.5592 C.2     
  18 C18           10.0432     7.5653    -1.2644 C.ar    
  19 C19           10.0438     7.7637     0.1321 C.ar    
  20 C20            8.8305     7.0889     0.6365 C.2     
  21 O21            8.4813     6.3973    -2.6599 O.2     
  22 O22            8.4786     7.0379     1.7979 O.2     
  23 C23           12.0874     8.8121    -1.4274 C.ar    
  24 C24           12.0879     9.0064    -0.0603 C.ar    
  25 C25           11.0688     8.4847     0.7255 C.ar    
  26 C26           11.0677     8.0924    -2.0359 C.ar    
  27 Cl27          11.0759     7.8529    -3.7553 Cl      
  28 Cl28           5.7194     8.1779    -0.6442 Cl      
  29 Cl29          11.0778     8.7346     2.4434 Cl      
  30 H30            0.0329     0.4333     0.7067 H       
  31 H31           -1.9717     0.9853    -0.6144 H       
  32 H32           -1.9667     3.0116    -2.0510 H       
  33 H33            0.0780     4.4238    -2.1126 H       
  34 H34            3.3800     2.8826     0.5911 H       
  35 H35            3.6405     6.2505    -0.3805 H       
  36 H36            7.9773     3.9239    -0.0293 H       
  37 H37            5.8818     2.6472     0.1483 H       
  38 H38           12.8855     9.2233    -2.0276 H       
  39 H39           12.8867     9.5680     0.4011 H       
@<TRIPOS>BOND
   1    1    2 ar
   2    1    6 ar
   3    1   30 1
   4    2    3 ar
   5    2   31 1
   6    3    4 ar
   7    3   32 1
   8    4    5 ar
   9    4   33 1
  10    5    6 ar
  11    5    7 1
  12    7    8 2
  13    7    9 am
  14    9   10 1
  15    9   34 1
  16   10   11 ar
  17   10   15 ar
  18   11   12 ar
  19   11   35 1
  20   12   28 1
  21   12   13 ar
  22   13   14 ar
  23   13   16 1
  24   14   15 ar
  25   14   36 1
  26   15   37 1
  27   16   17 am
  28   16   20 am
  29   17   18 1
  30   17   21 2
  31   18   19 ar
  32   18   26 ar
  33   19   20 1
  34   19   25 ar
  35   20   22 2
  36   23   24 ar
  37   23   26 ar
  38   23   38 1
  39   24   25 ar
  40   24   39 1
  41   25   29 1
  42   26   27 1

#	End of record

