#	Name: ASD01913084
#	Creating user name:	WinNT
#	Creation time:	15. 06. 2019 20:00

#	Modifying user name:	WinNT
#	Modification time:	15. 06. 2019 20:00

#	Program:	/corina/corina34_cracker 3.40 0067  02.08.2006

@<TRIPOS>MOLECULE
ASD01913084
  28   30    0    0    0
SMALL
NO_CHARGES


@<TRIPOS>ATOM
   1 N1            -0.0169     1.3964     0.0097 N.2     
   2 N2             0.0021    -0.0041     0.0020 N.pl3   
   3 C3             1.2268     1.8293     0.0002 C.2     
   4 C4             2.0821     0.7143    -0.0140 C.2     
   5 C5             1.3050    -0.4067    -0.0126 C.2     
   6 C6             1.7880    -1.8055    -0.0247 C.ar    
   7 C7             1.6522     3.2507     0.0033 C.ar    
   8 C8             0.6909     4.2587     0.0179 C.ar    
   9 C9             1.1014     5.5803     0.0207 C.ar    
  10 C10            2.4643     5.8510     0.0087 C.ar    
  11 C11            3.3647     4.7986    -0.0056 C.ar    
  12 N12            2.9445     3.5500    -0.0024 N.ar    
  13 F13            2.9065     7.1276     0.0105 F       
  14 C14            0.8763    -2.8613    -0.0217 C.ar    
  15 C15            1.3329    -4.1633    -0.0330 C.ar    
  16 C16            2.6917    -4.4228    -0.0468 C.ar    
  17 C17            3.6009    -3.3801    -0.0499 C.ar    
  18 C18            3.1568    -2.0737    -0.0450 C.ar    
  19 H19           -0.7746    -0.5852     0.0066 H       
  20 H20            3.1617     0.7403    -0.0242 H       
  21 H21           -0.3606     4.0122     0.0267 H       
  22 H22            0.3790     6.3830     0.0316 H       
  23 H23            4.4249     5.0043    -0.0150 H       
  24 H24           -0.1847    -2.6600    -0.0101 H       
  25 H25            0.6280    -4.9816    -0.0306 H       
  26 H26            3.0441    -5.4436    -0.0549 H       
  27 H27            4.6604    -3.5890    -0.0604 H       
  28 H28            3.8675    -1.2605    -0.0474 H       
@<TRIPOS>BOND
   1    1    2 1
   2    1    3 2
   3    2    5 1
   4    2   19 1
   5    3    4 1
   6    3    7 1
   7    4    5 2
   8    4   20 1
   9    5    6 1
  10    6   14 ar
  11    6   18 ar
  12    7    8 ar
  13    7   12 ar
  14    8    9 ar
  15    8   21 1
  16    9   10 ar
  17    9   22 1
  18   10   11 ar
  19   10   13 1
  20   11   12 ar
  21   11   23 1
  22   14   15 ar
  23   14   24 1
  24   15   16 ar
  25   15   25 1
  26   16   17 ar
  27   16   26 1
  28   17   18 ar
  29   17   27 1
  30   18   28 1

#	End of record

