#	Name: ASD03730192
#	Creating user name:	WinNT
#	Creation time:	15. 06. 2019 20:44

#	Modifying user name:	WinNT
#	Modification time:	15. 06. 2019 20:44

#	Program:	/corina/corina34_cracker 3.40 0067  02.08.2006

@<TRIPOS>MOLECULE
ASD03730192
  36   39    0    0    0
SMALL
NO_CHARGES


@<TRIPOS>ATOM
   1 C1            -0.0225     1.8097     0.0120 C.3     
   2 S2             0.0021    -0.0041     0.0020 S.o2    
   3 O3            -1.3056    -0.5216     0.2056 O.2     
   4 O4             0.8248    -0.4858    -1.0517 O.2     
   5 O5             0.7562    -0.3806     1.2693 O.3     
   6 F6             1.2900     2.2940     0.0021 F       
   7 F7            -0.6992     2.2732    -1.1214 F       
   8 F8            -0.6773     2.2609     1.1630 F       
   9 O9            -2.0676     0.4509     5.9058 O.3     
  10 C10           -2.0828     1.8867     6.0178 C.3     
  11 C11           -0.8550     2.2987     5.1940 C.3     
  12 C12           -0.6698     1.1418     4.2492 C.ar    
  13 C13           -1.4371     0.0939     4.7505 C.ar    
  14 C14           -1.4651    -1.1128     4.0580 C.ar    
  15 C15           -0.7357    -1.2692     2.8978 C.ar    
  16 C16            0.0335    -0.2233     2.4104 C.ar    
  17 C17            0.0625     0.9844     3.0932 C.ar    
  18 N18           -0.1132     4.4388     4.8868 N.am    
  19 C19           -1.0784     3.5952     4.4699 C.2     
  20 C20            0.3486     2.5285     6.0589 C.ar    
  21 C21            1.0464     1.7409     6.9472 C.ar    
  22 C22            2.1464     2.2532     7.6117 C.ar    
  23 C23            2.5438     3.5577     7.3814 C.ar    
  24 C24            1.8486     4.3505     6.4921 C.ar    
  25 C25            0.7399     3.8432     5.8189 C.ar    
  26 O26           -1.9550     3.8359     3.6670 O.2     
  27 H27           -2.9947     2.2989     5.5857 H       
  28 H28           -1.9724     2.1949     7.0575 H       
  29 H29           -2.0621    -1.9318     4.4311 H       
  30 H30           -0.7628    -2.2098     2.3677 H       
  31 H31            0.6596     1.8021     2.7175 H       
  32 H32           -0.0217     5.3530     4.5758 H       
  33 H33            0.7344     0.7225     7.1256 H       
  34 H34            2.6934     1.6359     8.3090 H       
  35 H35            3.4022     3.9577     7.9005 H       
  36 H36            2.1648     5.3684     6.3178 H       
@<TRIPOS>BOND
   1    1    2 1
   2    1    6 1
   3    1    7 1
   4    1    8 1
   5    2    3 2
   6    2    4 2
   7    2    5 1
   8    5   16 1
   9    9   10 1
  10    9   13 1
  11   10   11 1
  12   10   27 1
  13   10   28 1
  14   11   12 1
  15   11   19 1
  16   11   20 1
  17   12   13 ar
  18   12   17 ar
  19   13   14 ar
  20   14   15 ar
  21   14   29 1
  22   15   16 ar
  23   15   30 1
  24   16   17 ar
  25   17   31 1
  26   18   19 am
  27   18   25 1
  28   18   32 1
  29   19   26 2
  30   20   21 ar
  31   20   25 ar
  32   21   22 ar
  33   21   33 1
  34   22   23 ar
  35   22   34 1
  36   23   24 ar
  37   23   35 1
  38   24   25 ar
  39   24   36 1

#	End of record

