#	Name: ASD01881744
#	Creating user name:	WinNT
#	Creation time:	15. 06. 2019 19:43

#	Modifying user name:	WinNT
#	Modification time:	15. 06. 2019 19:43

#	Program:	/corina/corina34_cracker 3.40 0067  02.08.2006

@<TRIPOS>MOLECULE
ASD01881744
  43   45    0    0    0
SMALL
NO_CHARGES


@<TRIPOS>ATOM
   1 C1            -0.9832    -0.3521     0.8027 C.2     
   2 C2             0.0447    -0.0094    -0.2447 C.3     
   3 C3            -0.3665    -0.6252    -1.5836 C.3     
   4 O4            -0.6598    -0.9774     1.7847 O.2     
   5 O5            -2.2569     0.0420     0.6473 O.3     
   6 C6             0.1378     1.5109    -0.3897 C.3     
   7 O7             1.3166    -0.5292     0.1480 O.3     
   8 N8             1.9714    -5.9268     0.8126 N.pl3   
   9 N9             3.3569    -5.8889     1.0286 N.2     
  10 N10            3.7667    -4.6711     0.9670 N.2     
  11 C11            2.7342    -3.8414     0.7168 C.ar    
  12 C12            1.5717    -4.6249     0.6138 C.ar    
  13 C13            2.6393    -2.4520     0.5581 C.ar    
  14 C14            1.4116    -1.8769     0.3029 C.ar    
  15 C15            0.2686    -2.6665     0.2033 C.ar    
  16 C16            0.3454    -4.0221     0.3571 C.ar    
  17 C17            1.1190    -7.1181     0.7956 C.3     
  18 C18            0.5968    -7.3917     2.2075 C.3     
  19 C19           -0.4100    -8.5308     2.3800 C.3     
  20 C20            1.0267    -8.6975     2.8790 C.3     
  21 Br21           4.1858    -1.3720     0.6919 Br      
  22 C22           -3.1926    -0.3235     1.6957 C.3     
  23 C23           -4.5838     0.2085     1.3459 C.3     
  24 H24           -1.4128    -0.3940    -1.7837 H       
  25 H25            0.2551    -0.2138    -2.3789 H       
  26 H26           -0.2349    -1.7064    -1.5420 H       
  27 H27            0.3447     1.9566     0.5832 H       
  28 H28            0.9414     1.7612    -1.0823 H       
  29 H29           -0.8063     1.8977    -0.7733 H       
  30 H30           -0.6865    -2.2035     0.0036 H       
  31 H31           -0.5467    -4.6257     0.2783 H       
  32 H32            0.2775    -6.9532     0.1227 H       
  33 H33            1.6981    -7.9744     0.4502 H       
  34 H34            0.4776    -6.5141     2.8429 H       
  35 H35           -1.1914    -8.4028     3.1291 H       
  36 H36           -0.7004    -9.0852     1.4876 H       
  37 H37            1.6815    -9.3617     2.3149 H       
  38 H38            1.1905    -8.6792     3.9564 H       
  39 H39           -3.2309    -1.4091     1.7863 H       
  40 H40           -2.8656     0.1087     2.6414 H       
  41 H41           -4.9108    -0.2237     0.4001 H       
  42 H42           -5.2862    -0.0659     2.1329 H       
  43 H43           -4.5455     1.2940     1.2553 H       
@<TRIPOS>BOND
   1    1    2 1
   2    1    4 2
   3    1    5 1
   4    2    3 1
   5    2    6 1
   6    2    7 1
   7    3   24 1
   8    3   25 1
   9    3   26 1
  10    5   22 1
  11    6   27 1
  12    6   28 1
  13    6   29 1
  14    7   14 1
  15    8    9 1
  16    8   12 1
  17    8   17 1
  18    9   10 2
  19   10   11 1
  20   11   12 ar
  21   11   13 ar
  22   12   16 ar
  23   13   14 ar
  24   13   21 1
  25   14   15 ar
  26   15   16 ar
  27   15   30 1
  28   16   31 1
  29   17   18 1
  30   17   32 1
  31   17   33 1
  32   18   19 1
  33   18   20 1
  34   18   34 1
  35   19   20 1
  36   19   35 1
  37   19   36 1
  38   20   37 1
  39   20   38 1
  40   22   23 1
  41   22   39 1
  42   22   40 1
  43   23   41 1
  44   23   42 1
  45   23   43 1

#	End of record

