#	Name: ASD01148319
#	Creating user name:	WinNT
#	Creation time:	15. 06. 2019 19:02

#	Modifying user name:	WinNT
#	Modification time:	15. 06. 2019 19:02

#	Program:	/corina/corina34_cracker 3.40 0067  02.08.2006

@<TRIPOS>MOLECULE
ASD01148319
  58   61    0    0    0
SMALL
NO_CHARGES


@<TRIPOS>ATOM
   1 C1            -0.0167     1.3793     0.0096 C.ar    
   2 C2             0.0021    -0.0041     0.0020 C.ar    
   3 C3            -1.1869    -0.7115     0.0095 C.ar    
   4 C4            -2.3926    -0.0360     0.0246 C.ar    
   5 C5            -2.4107     1.3463     0.0322 C.ar    
   6 C6            -1.2230     2.0537     0.0305 C.ar    
   7 C7            -3.7257     2.0823     0.0482 C.3     
   8 O8            -4.7306     1.3282     0.7560 O.3     
   9 C9            -3.6316     3.3658     0.9073 C.3     
  10 C10           -4.1229     2.8923     2.2621 C.2     
  11 N11           -4.7174     1.7576     2.1030 N.2     
  12 C12           -3.9502     3.6062     3.5425 C.ar    
  13 C13           -4.4544     3.0551     4.7233 C.ar    
  14 C14           -3.2776     4.8305     3.5747 C.ar    
  15 C15           -3.1163     5.4959     4.7689 C.ar    
  16 C16           -3.6250     4.9472     5.9485 C.ar    
  17 C17           -4.2929     3.7207     5.9173 C.ar    
  18 C18           -3.4513     5.6616     7.2307 C.2     
  19 O19           -2.8658     6.7265     7.2587 O.2     
  20 N20           -3.9421     5.1323     8.3688 N.am    
  21 C21           -4.1855     2.4070    -1.3745 C.3     
  22 F22           -4.3278     1.2200    -2.1010 F       
  23 F23           -5.4141     3.0746    -1.3265 F       
  24 F24           -3.2351     3.2236    -1.9968 F       
  25 Cl25           1.5169    -0.8519    -0.0175 Cl      
  26 N26           -3.7775     5.8094     9.5842 N.pl3   
  27 C27           -4.5907     6.9915     9.8802 C.3     
  28 C28           -2.8380     5.3575    10.5137 C.ar    
  29 C29           -2.6734     6.0277    11.7193 C.ar    
  30 C30           -1.7439     5.5779    12.6363 C.ar    
  31 C31           -0.9774     4.4617    12.3556 C.ar    
  32 C32           -1.1384     3.7924    11.1562 C.ar    
  33 C33           -2.0701     4.2335    10.2371 C.ar    
  34 C34            1.2779     2.1506     0.0014 C.3     
  35 F35            1.0035     3.5224     0.0114 F       
  36 F36            2.0270     1.8166     1.1348 F       
  37 F37            2.0051     1.8289    -1.1496 F       
  38 C38           -1.1673    -2.2184     0.0007 C.3     
  39 F39           -2.4801    -2.7018     0.0107 F       
  40 F40           -0.5129    -2.6695    -1.1505 F       
  41 F41           -0.4908    -2.6826     1.1339 F       
  42 H42           -3.3208    -0.5881     0.0301 H       
  43 H43           -1.2377     3.1336     0.0364 H       
  44 H44           -2.6009     3.7149     0.9698 H       
  45 H45           -4.2820     4.1454     0.5107 H       
  46 H46           -4.9710     2.1070     4.6991 H       
  47 H47           -2.8840     5.2545     2.6627 H       
  48 H48           -2.5961     6.4420     4.7938 H       
  49 H49           -4.6862     3.2967     6.8294 H       
  50 H50           -4.4094     4.2825     8.3465 H       
  51 H51           -5.5071     6.6850    10.3845 H       
  52 H52           -4.0290     7.6666    10.5259 H       
  53 H53           -4.8410     7.5024     8.9504 H       
  54 H54           -3.2715     6.8998    11.9391 H       
  55 H55           -1.6152     6.0988    13.5737 H       
  56 H56           -0.2512     4.1121    13.0744 H       
  57 H57           -0.5379     2.9212    10.9399 H       
  58 H58           -2.1952     3.7103     9.3006 H       
@<TRIPOS>BOND
   1    1    2 ar
   2    1   34 1
   3    1    6 ar
   4    2    3 ar
   5    2   25 1
   6    3    4 ar
   7    3   38 1
   8    4    5 ar
   9    4   42 1
  10    5    6 ar
  11    5    7 1
  12    6   43 1
  13    7    8 1
  14    7    9 1
  15    7   21 1
  16    8   11 1
  17    9   10 1
  18    9   44 1
  19    9   45 1
  20   10   11 2
  21   10   12 1
  22   12   13 ar
  23   12   14 ar
  24   13   17 ar
  25   13   46 1
  26   14   15 ar
  27   14   47 1
  28   15   16 ar
  29   15   48 1
  30   16   17 ar
  31   16   18 1
  32   17   49 1
  33   18   19 2
  34   18   20 am
  35   20   26 1
  36   20   50 1
  37   21   22 1
  38   21   23 1
  39   21   24 1
  40   26   27 1
  41   26   28 1
  42   27   51 1
  43   27   52 1
  44   27   53 1
  45   28   29 ar
  46   28   33 ar
  47   29   30 ar
  48   29   54 1
  49   30   31 ar
  50   30   55 1
  51   31   32 ar
  52   31   56 1
  53   32   33 ar
  54   32   57 1
  55   33   58 1
  56   34   35 1
  57   34   36 1
  58   34   37 1
  59   38   39 1
  60   38   40 1
  61   38   41 1

#	End of record

