#	Name: ASD01200272
#	Creating user name:	WinNT
#	Creation time:	15. 06. 2019 19:08

#	Modifying user name:	WinNT
#	Modification time:	15. 06. 2019 19:08

#	Program:	/corina/corina34_cracker 3.40 0067  02.08.2006

@<TRIPOS>MOLECULE
ASD01200272
  47   49    0    0    0
SMALL
NO_CHARGES


@<TRIPOS>ATOM
   1 C1            -0.5161     0.6839     1.1186 C.2     
   2 C2            -0.2742    -0.6736     0.5793 C.ar    
   3 C3            -1.3394    -1.4858     0.1731 C.ar    
   4 C4            -1.0726    -2.7454    -0.3249 C.ar    
   5 N5             0.1651    -3.1892    -0.4213 N.ar    
   6 C6             1.2027    -2.4572    -0.0498 C.ar    
   7 C7             1.0229    -1.1757     0.4568 C.ar    
   8 O8             0.4200     1.3748     1.4662 O.2     
   9 O9            -1.7740     1.1546     1.2185 O.3     
  10 C10            3.5548    -2.1476    -0.1564 C.2     
  11 C11            4.9511    -2.7147    -0.1577 C.3     
  12 C12            5.1969    -3.4678     1.1513 C.3     
  13 O13            3.3882    -0.9464    -0.1402 O.2     
  14 N14            2.4913    -2.9753    -0.1731 N.am    
  15 C15            6.0778    -0.5890     0.5701 C.2     
  16 N16            7.0373     0.1766     0.1273 N.2     
  17 C17            7.5225    -0.3369    -1.0128 C.2     
  18 C18            6.8376    -1.4636    -1.2869 C.2     
  19 N19            5.9210    -1.6240    -0.2831 N.pl3   
  20 C20            8.6382     0.2452    -1.8420 C.3     
  21 F21            9.1794     1.3541    -1.1829 F       
  22 F22            9.6343    -0.7196    -2.0265 F       
  23 F23            8.1365     0.6413    -3.0864 F       
  24 C24            6.5625    -4.1553     1.0954 C.3     
  25 C25            6.8813    -4.8055     2.4531 C.3     
  26 C26            7.0396    -6.3176     2.1913 C.3     
  27 C27            7.4110    -6.4063     0.6902 C.3     
  28 C28            6.5383    -5.2949     0.0559 C.3     
  29 H29           -2.3570    -1.1318     0.2486 H       
  30 H30           -1.8901    -3.3768    -0.6401 H       
  31 H31            1.8726    -0.5794     0.7551 H       
  32 H32           -1.8819     2.0463     1.5765 H       
  33 H33            5.0642    -3.3998    -0.9978 H       
  34 H34            5.1779    -2.7647     1.9840 H       
  35 H35            4.4181    -4.2175     1.2909 H       
  36 H36            2.6223    -3.9314    -0.2709 H       
  37 H37            5.5068    -0.4246     1.4720 H       
  38 H38            6.9833    -2.1151    -2.1358 H       
  39 H39            7.3349    -3.4306     0.8380 H       
  40 H40            7.8088    -4.3969     2.8542 H       
  41 H41            6.0631    -4.6313     3.1518 H       
  42 H42            7.8390    -6.7297     2.8070 H       
  43 H43            6.1016    -6.8383     2.3836 H       
  44 H44            8.4704    -6.1976     0.5414 H       
  45 H45            7.1478    -7.3830     0.2842 H       
  46 H46            5.5192    -5.6505    -0.0966 H       
  47 H47            6.9718    -4.9608    -0.8867 H       
@<TRIPOS>BOND
   1    1    2 1
   2    1    8 2
   3    1    9 1
   4    2    3 ar
   5    2    7 ar
   6    3    4 ar
   7    3   29 1
   8    4    5 ar
   9    4   30 1
  10    5    6 ar
  11    6    7 ar
  12    6   14 1
  13    7   31 1
  14    9   32 1
  15   10   11 1
  16   10   13 2
  17   10   14 am
  18   11   12 1
  19   11   19 1
  20   11   33 1
  21   12   24 1
  22   12   34 1
  23   12   35 1
  24   14   36 1
  25   15   16 2
  26   15   19 1
  27   15   37 1
  28   16   17 1
  29   17   18 2
  30   17   20 1
  31   18   19 1
  32   18   38 1
  33   20   21 1
  34   20   22 1
  35   20   23 1
  36   24   25 1
  37   24   28 1
  38   24   39 1
  39   25   26 1
  40   25   40 1
  41   25   41 1
  42   26   27 1
  43   26   42 1
  44   26   43 1
  45   27   28 1
  46   27   44 1
  47   27   45 1
  48   28   46 1
  49   28   47 1

#	End of record

