#	Name: ASD05860009
#	Creating user name:	WinNT
#	Creation time:	15. 06. 2019 21:04

#	Modifying user name:	WinNT
#	Modification time:	15. 06. 2019 21:04

#	Program:	/corina/corina34_cracker 3.40 0067  02.08.2006

@<TRIPOS>MOLECULE
ASD05860009
 248  254    0    0    0
SMALL
NO_CHARGES


@<TRIPOS>ATOM
   1 N1             1.4432     1.3161     0.1190 N.3     
   2 C2             1.5738    -0.1433     0.0135 C.3     
   3 C3             1.5307    -0.5479    -1.4376 C.2     
   4 O4             1.7674     0.2690    -2.3022 O.2     
   5 C5             2.9056    -0.5817     0.6258 C.3     
   6 O6             2.9002    -0.3030     2.0274 O.3     
   7 N7             1.2291    -1.8176    -1.7744 N.am    
   8 C8             1.1872    -2.2109    -3.1850 C.3     
   9 C9             1.4438    -3.6913    -3.3015 C.2     
  10 O10            1.3393    -4.4036    -2.3255 O.2     
  11 C11           -0.1907    -1.8849    -3.7647 C.3     
  12 C12           -1.2725    -2.5581    -2.9177 C.3     
  13 C13           -0.4033    -0.3698    -3.7533 C.3     
  14 N14            1.7894    -4.2238    -4.4904 N.am    
  15 C15            2.1474    -5.6415    -4.5818 C.3     
  16 C16            1.8951    -6.1340    -5.9835 C.2     
  17 O17            1.4590    -5.3756    -6.8234 O.2     
  18 C18            3.6281    -5.8167    -4.2385 C.3     
  19 C19            3.8613    -5.4338    -2.7757 C.3     
  20 C20            3.1164    -6.4138    -1.8670 C.3     
  21 C21            5.3587    -5.4890    -2.4665 C.3     
  22 N22            2.1539    -7.4174    -6.3036 N.am    
  23 C23            1.9085    -7.8962    -7.6662 C.3     
  24 C24            2.7947    -9.0818    -7.9493 C.2     
  25 O25            3.5562    -9.4869    -7.0967 O.2     
  26 C26            0.4423    -8.3107    -7.8049 C.3     
  27 N27            2.7409    -9.6919    -9.1498 N.am    
  28 C28            3.6024   -10.8445    -9.4249 C.3     
  29 C29            2.9743   -11.6963   -10.4978 C.2     
  30 O30            1.9118   -11.3725   -10.9847 O.2     
  31 C31            4.9725   -10.3556    -9.8988 C.3     
  32 N32            3.5935   -12.8179   -10.9163 N.am    
  33 C33            2.9829   -13.6460   -11.9593 C.3     
  34 C34            4.0556   -14.4306   -12.6698 C.2     
  35 O35            5.2158   -14.3100   -12.3376 O.2     
  36 C36            1.9816   -14.6118   -11.3227 C.3     
  37 C37            0.8269   -13.8178   -10.7086 C.3     
  38 C38           -0.1745   -14.7836   -10.0720 C.3     
  39 N39           -1.2802   -14.0233    -9.4840 N.pl3   
  40 C40           -2.3078   -14.6822    -8.8516 C.2     
  41 N41           -3.2915   -14.0058    -8.3285 N.2     
  42 N42           -2.2979   -16.0546    -8.7710 N.pl3   
  43 N43            3.7256   -15.2664   -13.6743 N.am    
  44 C44            4.7683   -16.0292   -14.3650 C.3     
  45 C45            4.1663   -17.2735   -14.9651 C.2     
  46 O46            2.9827   -17.5008   -14.8293 O.2     
  47 C47            5.3774   -15.1707   -15.4754 C.3     
  48 N48            4.9431   -18.1338   -15.6528 N.am    
  49 C49            4.3578   -19.3435   -16.2362 C.3     
  50 C50            5.1953   -19.7930   -17.4057 C.2     
  51 O51            6.1837   -19.1648   -17.7208 O.2     
  52 C52            4.3187   -20.4510   -15.1813 C.3     
  53 C53            3.3693   -20.0462   -14.0519 C.3     
  54 C54            3.3302   -21.1537   -12.9970 C.3     
  55 N55            2.4212   -20.7661   -11.9155 N.pl3   
  56 C56            2.2236   -21.6097   -10.8480 C.2     
  57 N57            2.8450   -22.7544   -10.7983 N.2     
  58 N58            1.3705   -21.2460    -9.8331 N.pl3   
  59 N59            4.8458   -20.8932   -18.1014 N.am    
  60 C60            5.6599   -21.3302   -19.2383 C.3     
  61 C61            5.4729   -22.8104   -19.4506 C.2     
  62 O62            4.7325   -23.4384   -18.7238 O.2     
  63 C63            5.2257   -20.5756   -20.4965 C.3     
  64 C64            5.5313   -19.0859   -20.3287 C.3     
  65 S65            5.0165   -18.1913   -21.8204 S.3     
  66 C66            5.4525   -16.4728   -21.4365 C.3     
  67 N67            6.1284   -23.4362   -20.4481 N.am    
  68 C68            5.9466   -24.8752   -20.6545 C.3     
  69 C69            6.2411   -25.2176   -22.0922 C.2     
  70 O70            6.5704   -24.3456   -22.8681 O.2     
  71 C71            6.9014   -25.6461   -19.7407 C.3     
  72 C72            6.5283   -25.3995   -18.3016 C.2     
  73 C73            7.0608   -24.4762   -17.4857 C.2     
  74 C74            5.5112   -26.1177   -17.5298 C.ar    
  75 C75            5.5196   -25.5423   -16.2458 C.ar    
  76 C76            4.6308   -27.1615   -17.8195 C.ar    
  77 N77            6.4722   -24.5480   -16.2525 N.pl3   
  78 C78            4.6457   -26.0246   -15.2772 C.ar    
  79 C79            3.7803   -27.6197   -16.8528 C.ar    
  80 C80            3.7853   -27.0560   -15.5846 C.ar    
  81 N81            6.1385   -26.4930   -22.5158 N.am    
  82 C82            6.4247   -26.8259   -23.9135 C.3     
  83 C83            6.8408   -28.2710   -24.0106 C.2     
  84 O84            6.8931   -28.9555   -23.0108 O.2     
  85 C85            5.1701   -26.5984   -24.7592 C.3     
  86 C86            4.8197   -25.1091   -24.7614 C.3     
  87 S87            3.3322   -24.8395   -25.7641 S.3     
  88 C88            3.0806   -23.0468   -25.6470 C.3     
  89 N89            7.1548   -28.8028   -25.2085 N.am    
  90 C90            7.5593   -30.2077   -25.3029 C.3     
  91 C91            7.2658   -30.7230   -26.6884 C.2     
  92 O92            6.7678   -29.9889   -27.5155 O.2     
  93 C93            9.0585   -30.3268   -25.0215 C.3     
  94 C94            9.3351   -29.9273   -23.5949 C.2     
  95 C95            9.7124   -28.7130   -23.1646 C.2     
  96 C96            9.2370   -30.7887   -22.4142 C.ar    
  97 C97            9.5807   -29.9815   -21.3146 C.ar    
  98 C98            8.8971   -32.1284   -22.2156 C.ar    
  99 N99            9.8697   -28.7279   -21.8055 N.pl3   
 100 C100           9.5776   -30.5325   -20.0371 C.ar    
 101 C101           8.9002   -32.6489   -20.9524 C.ar    
 102 C102           9.2394   -31.8566   -19.8640 C.ar    
 103 N103           7.5568   -31.9995   -27.0083 N.am    
 104 C104           7.2715   -32.5003   -28.3551 C.3     
 105 C105           8.1869   -33.6565   -28.6655 C.2     
 106 O106           8.9978   -34.0258   -27.8426 O.2     
 107 C107           5.8165   -32.9680   -28.4277 C.3     
 108 C108           4.8993   -31.7873   -28.2389 C.2     
 109 C109           4.4838   -30.9328   -29.1932 C.2     
 110 N110           4.3236   -31.3808   -27.0654 N.pl3   
 111 C111           3.5799   -30.2883   -27.3428 C.2     
 112 N112           3.6805   -30.0262   -28.6173 N.2     
 113 N113           8.1045   -34.2802   -29.8574 N.am    
 114 C114           8.9944   -35.4042   -30.1591 C.3     
 115 C115           8.3985   -36.6768   -29.6147 C.2     
 116 O116           9.0445   -37.8425   -29.7746 O.3     
 117 C117           9.1639   -35.5279   -31.6746 C.3     
 118 C118           9.8714   -34.3064   -32.2023 C.2     
 119 C119           9.2940   -33.2081   -32.7143 C.2     
 120 C120          11.3195   -34.0899   -32.2480 C.ar    
 121 C121          11.5043   -32.8168   -32.8180 C.ar    
 122 C122          12.4266   -34.8484   -31.8639 C.ar    
 123 N123          10.2540   -32.3081   -33.0896 N.pl3   
 124 C124          12.7952   -32.3292   -32.9922 C.ar    
 125 C125          13.6862   -34.3496   -32.0438 C.ar    
 126 C126          13.8738   -33.0948   -32.6063 C.ar    
 127 O127           7.3391   -36.6479   -29.0343 O.2     
 128 H128           2.1929     1.7825    -0.3694 H       
 129 H129           0.5441     1.6241    -0.2200 H       
 130 H130           0.7531    -0.6212     0.5484 H       
 131 H131           3.0431    -1.6515     0.4687 H       
 132 H132           3.7211    -0.0368     0.1502 H       
 133 H133           3.7155    -0.5557     2.4818 H       
 134 H134           1.0398    -2.4709    -1.0829 H       
 135 H135           1.9522    -1.6650    -3.7373 H       
 136 H136          -0.2501    -2.2525    -4.7891 H       
 137 H137          -1.2131    -2.1905    -1.8933 H       
 138 H138          -2.2542    -2.3258    -3.3306 H       
 139 H139          -1.1210    -3.6375    -2.9258 H       
 140 H140           0.4292     0.1177    -4.2607 H       
 141 H141          -1.3335    -0.1296    -4.2682 H       
 142 H142          -0.4571    -0.0182    -2.7230 H       
 143 H143           1.8011    -3.6684    -5.2856 H       
 144 H144           1.5415    -6.2151    -3.8805 H       
 145 H145           3.9161    -6.8566    -4.3922 H       
 146 H146           4.2288    -5.1743    -4.8824 H       
 147 H147           3.4913    -4.4234    -2.6011 H       
 148 H148           3.4864    -7.4241    -2.0415 H       
 149 H149           3.2825    -6.1410    -0.8248 H       
 150 H150           2.0496    -6.3744    -2.0873 H       
 151 H151           5.8894    -4.7908    -3.1138 H       
 152 H152           5.5248    -5.2162    -1.4243 H       
 153 H153           5.7287    -6.4993    -2.6410 H       
 154 H154           2.5026    -8.0240    -5.6318 H       
 155 H155           2.1296    -7.0996    -8.3766 H       
 156 H156          -0.1987    -7.4532    -7.6002 H       
 157 H157           0.2597    -8.6670    -8.8187 H       
 158 H158           0.2212    -9.1074    -7.0945 H       
 159 H159           2.1319    -9.3679    -9.8317 H       
 160 H160           3.7215   -11.4343    -8.5161 H       
 161 H161           5.4268    -9.7395    -9.1228 H       
 162 H162           5.6135   -11.2131   -10.1035 H       
 163 H163           4.8534    -9.7658   -10.8077 H       
 164 H164           4.4433   -13.0769   -10.5269 H       
 165 H165           2.4663   -13.0064   -12.6749 H       
 166 H166           1.5932   -15.2872   -12.0850 H       
 167 H167           2.4792   -15.1902   -10.5443 H       
 168 H168           1.2152   -13.1424    -9.9463 H       
 169 H169           0.3292   -13.2394   -11.4870 H       
 170 H170          -0.5629   -15.4590   -10.8343 H       
 171 H171           0.3231   -15.3620    -9.2936 H       
 172 H172          -1.2872   -13.0550    -9.5409 H       
 173 H173          -4.0166   -14.4707    -7.8823 H       
 174 H174          -1.5658   -16.5581    -9.1603 H       
 175 H175          -3.0229   -16.5195    -8.3248 H       
 176 H176           2.7977   -15.3628   -13.9400 H       
 177 H177           5.5457   -16.3083   -13.6538 H       
 178 H178           5.8128   -14.2707   -15.0413 H       
 179 H179           6.1532   -15.7382   -15.9893 H       
 180 H180           4.6000   -14.8916   -16.1866 H       
 181 H181           5.8897   -17.9521   -15.7615 H       
 182 H182           3.3445   -19.1294   -16.5760 H       
 183 H183           3.9663   -21.3757   -15.6383 H       
 184 H184           5.3196   -20.6036   -14.7775 H       
 185 H185           3.7217   -19.1215   -13.5949 H       
 186 H186           2.3685   -19.8936   -14.4557 H       
 187 H187           2.9779   -22.0784   -13.4539 H       
 188 H188           4.3311   -21.3063   -12.5931 H       
 189 H189           1.9587   -19.9142   -11.9525 H       
 190 H190           2.7056   -23.3496   -10.0452 H       
 191 H191           0.9080   -20.3941    -9.8702 H       
 192 H192           1.2310   -21.8412    -9.0800 H       
 193 H193           4.0553   -21.3956   -17.8494 H       
 194 H194           6.7103   -21.1223   -19.0343 H       
 195 H195           5.7691   -20.9632   -21.3583 H       
 196 H196           4.1553   -20.7119   -20.6506 H       
 197 H197           4.9880   -18.6983   -19.4669 H       
 198 H198           6.6017   -18.9497   -20.1746 H       
 199 H199           5.1835   -15.8332   -22.2771 H       
 200 H200           4.9111   -16.1506   -20.5470 H       
 201 H201           6.5249   -16.4020   -21.2547 H       
 202 H202           6.7206   -22.9339   -21.0294 H       
 203 H203           4.9181   -25.1489   -20.4191 H       
 204 H204           6.8300   -26.7121   -19.9570 H       
 205 H205           7.9229   -25.3078   -19.9143 H       
 206 H206           7.8387   -23.7797   -17.7616 H       
 207 H207           4.6215   -27.6051   -18.8041 H       
 208 H208           6.6917   -23.9815   -15.4964 H       
 209 H209           4.6418   -25.5925   -14.2875 H       
 210 H210           3.0994   -28.4273   -17.0775 H       
 211 H211           3.1076   -27.4293   -14.8310 H       
 212 H212           5.8751   -27.1904   -21.8953 H       
 213 H213           7.2305   -26.1903   -24.2807 H       
 214 H214           5.3558   -26.9296   -25.7809 H       
 215 H215           4.3404   -27.1663   -24.3383 H       
 216 H216           4.6340   -24.7780   -23.7397 H       
 217 H217           5.6494   -24.5412   -25.1823 H       
 218 H218           2.9384   -22.7673   -24.6031 H       
 219 H219           3.9538   -22.5306   -26.0457 H       
 220 H220           2.1982   -22.7655   -26.2218 H       
 221 H221           7.1130   -28.2554   -26.0082 H       
 222 H222           7.0045   -30.7955   -24.5716 H       
 223 H223           9.3769   -31.3574   -25.1784 H       
 224 H224           9.6081   -29.6700   -25.6958 H       
 225 H225           9.8691   -27.8520   -23.7975 H       
 226 H226           8.6324   -32.7508   -23.0576 H       
 227 H227          10.1387   -27.9671   -21.2673 H       
 228 H228           9.8397   -29.9243   -19.1840 H       
 229 H229           8.6372   -33.6851   -20.7994 H       
 230 H230           9.2380   -32.2826   -18.8716 H       
 231 H231           7.9551   -32.5865   -26.3468 H       
 232 H232           7.4336   -31.7035   -29.0810 H       
 233 H233           5.6289   -33.4219   -29.4008 H       
 234 H234           5.6310   -33.7014   -27.6429 H       
 235 H235           4.7510   -30.9707   -30.2390 H       
 236 H236           4.4298   -31.7995   -26.1969 H       
 237 H237           2.9961   -29.7264   -26.6288 H       
 238 H238           7.4559   -33.9849   -30.5155 H       
 239 H239           9.9667   -35.2318   -29.6976 H       
 240 H240           8.6230   -38.6319   -29.4083 H       
 241 H241           9.7530   -36.4161   -31.9030 H       
 242 H242           8.1838   -35.6113   -32.1442 H       
 243 H243           8.2294   -33.0571   -32.8152 H       
 244 H244          12.2883   -35.8258   -31.4257 H       
 245 H245          10.0796   -31.4402   -33.4860 H       
 246 H246          12.9515   -31.3538   -33.4287 H       
 247 H247          14.5424   -34.9368   -31.7464 H       
 248 H248          14.8754   -32.7144   -32.7425 H       
@<TRIPOS>BOND
   1    1    2 1
   2    1  128 1
   3    1  129 1
   4    2    3 1
   5    2    5 1
   6    2  130 1
   7    3    4 2
   8    3    7 am
   9    5    6 1
  10    5  131 1
  11    5  132 1
  12    6  133 1
  13    7    8 1
  14    7  134 1
  15    8    9 1
  16    8   11 1
  17    8  135 1
  18    9   10 2
  19    9   14 am
  20   11   12 1
  21   11   13 1
  22   11  136 1
  23   12  137 1
  24   12  138 1
  25   12  139 1
  26   13  140 1
  27   13  141 1
  28   13  142 1
  29   14   15 1
  30   14  143 1
  31   15   16 1
  32   15   18 1
  33   15  144 1
  34   16   17 2
  35   16   22 am
  36   18   19 1
  37   18  145 1
  38   18  146 1
  39   19   21 1
  40   19   20 1
  41   19  147 1
  42   20  148 1
  43   20  149 1
  44   20  150 1
  45   21  151 1
  46   21  152 1
  47   21  153 1
  48   22   23 1
  49   22  154 1
  50   23   24 1
  51   23   26 1
  52   23  155 1
  53   24   25 2
  54   24   27 am
  55   26  156 1
  56   26  157 1
  57   26  158 1
  58   27   28 1
  59   27  159 1
  60   28   29 1
  61   28   31 1
  62   28  160 1
  63   29   30 2
  64   29   32 am
  65   31  161 1
  66   31  162 1
  67   31  163 1
  68   32   33 1
  69   32  164 1
  70   33   34 1
  71   33   36 1
  72   33  165 1
  73   34   35 2
  74   34   43 am
  75   36   37 1
  76   36  166 1
  77   36  167 1
  78   37   38 1
  79   37  168 1
  80   37  169 1
  81   38   39 1
  82   38  170 1
  83   38  171 1
  84   39   40 1
  85   39  172 1
  86   40   41 2
  87   40   42 1
  88   41  173 1
  89   42  174 1
  90   42  175 1
  91   43   44 1
  92   43  176 1
  93   44   45 1
  94   44   47 1
  95   44  177 1
  96   45   48 am
  97   45   46 2
  98   47  178 1
  99   47  179 1
 100   47  180 1
 101   48   49 1
 102   48  181 1
 103   49   50 1
 104   49   52 1
 105   49  182 1
 106   50   51 2
 107   50   59 am
 108   52   53 1
 109   52  183 1
 110   52  184 1
 111   53   54 1
 112   53  185 1
 113   53  186 1
 114   54   55 1
 115   54  187 1
 116   54  188 1
 117   55   56 1
 118   55  189 1
 119   56   58 1
 120   56   57 2
 121   57  190 1
 122   58  191 1
 123   58  192 1
 124   59   60 1
 125   59  193 1
 126   60   61 1
 127   60   63 1
 128   60  194 1
 129   61   67 am
 130   61   62 2
 131   63   64 1
 132   63  195 1
 133   63  196 1
 134   64   65 1
 135   64  197 1
 136   64  198 1
 137   65   66 1
 138   66  199 1
 139   66  200 1
 140   66  201 1
 141   67   68 1
 142   67  202 1
 143   68   71 1
 144   68   69 1
 145   68  203 1
 146   69   81 am
 147   69   70 2
 148   71   72 1
 149   71  204 1
 150   71  205 1
 151   72   73 2
 152   72   74 1
 153   73   77 1
 154   73  206 1
 155   74   75 ar
 156   74   76 ar
 157   75   78 ar
 158   75   77 1
 159   76   79 ar
 160   76  207 1
 161   77  208 1
 162   78   80 ar
 163   78  209 1
 164   79   80 ar
 165   79  210 1
 166   80  211 1
 167   81   82 1
 168   81  212 1
 169   82   83 1
 170   82   85 1
 171   82  213 1
 172   83   84 2
 173   83   89 am
 174   85   86 1
 175   85  214 1
 176   85  215 1
 177   86   87 1
 178   86  216 1
 179   86  217 1
 180   87   88 1
 181   88  218 1
 182   88  219 1
 183   88  220 1
 184   89   90 1
 185   89  221 1
 186   90   93 1
 187   90   91 1
 188   90  222 1
 189   91  103 am
 190   91   92 2
 191   93   94 1
 192   93  223 1
 193   93  224 1
 194   94   95 2
 195   94   96 1
 196   95   99 1
 197   95  225 1
 198   96   97 ar
 199   96   98 ar
 200   97   99 1
 201   97  100 ar
 202   98  101 ar
 203   98  226 1
 204   99  227 1
 205  100  102 ar
 206  100  228 1
 207  101  102 ar
 208  101  229 1
 209  102  230 1
 210  103  104 1
 211  103  231 1
 212  104  105 1
 213  104  107 1
 214  104  232 1
 215  105  113 am
 216  105  106 2
 217  107  108 1
 218  107  233 1
 219  107  234 1
 220  108  109 2
 221  108  110 1
 222  109  112 1
 223  109  235 1
 224  110  111 1
 225  110  236 1
 226  111  112 2
 227  111  237 1
 228  113  114 1
 229  113  238 1
 230  114  117 1
 231  114  115 1
 232  114  239 1
 233  115  116 1
 234  115  127 2
 235  116  240 1
 236  117  118 1
 237  117  241 1
 238  117  242 1
 239  118  119 2
 240  118  120 1
 241  119  123 1
 242  119  243 1
 243  120  121 ar
 244  120  122 ar
 245  121  123 1
 246  121  124 ar
 247  122  125 ar
 248  122  244 1
 249  123  245 1
 250  124  126 ar
 251  124  246 1
 252  125  126 ar
 253  125  247 1
 254  126  248 1

#	End of record

