#	Name: ASD00100003
#	Creating user name:	WinNT
#	Creation time:	15. 06. 2019 18:30

#	Modifying user name:	WinNT
#	Modification time:	15. 06. 2019 18:30

#	Program:	/corina/corina34_cracker 3.40 0067  02.08.2006

@<TRIPOS>MOLECULE
ASD00100003
  31   31    0    0    0
SMALL
NO_CHARGES


@<TRIPOS>ATOM
   1 C1            -0.0167     1.3825     0.0096 C.ar    
   2 C2             0.0021    -0.0041     0.0020 C.ar    
   3 C3             1.1707     2.0896     0.0021 C.ar    
   4 C4             2.3811     1.4120    -0.0131 C.ar    
   5 C5             2.3994     0.0252    -0.0207 C.ar    
   6 C6             1.2126    -0.6813    -0.0132 C.ar    
   7 O7            -1.1662    -0.6999     0.0099 O.3     
   8 C8            -2.3750     0.0620     0.0260 C.3     
   9 I9             1.1427     4.1844     0.0129 I       
  10 O10            3.5497     2.1076    -0.0210 O.3     
  11 C11            4.7583     1.3453    -0.0366 C.3     
  12 C12            1.2328    -2.1882    -0.0215 C.3     
  13 C13            1.1002    -2.6921    -1.4600 C.3     
  14 N14           -0.2177    -2.3182    -1.9903 N.3     
  15 C15            1.2456    -4.2150    -1.4823 C.3     
  16 H16           -0.9592     1.9098     0.0170 H       
  17 H17            3.3418    -0.5023    -0.0329 H       
  18 H18           -3.2303    -0.6136     0.0308 H       
  19 H19           -2.3995     0.6857     0.9196 H       
  20 H20           -2.4172     0.6952    -0.8602 H       
  21 H21            4.7828     0.7213    -0.9300 H       
  22 H22            5.6138     2.0207    -0.0415 H       
  23 H23            4.8002     0.7124     0.8499 H       
  24 H24            2.1730    -2.5413     0.4020 H       
  25 H25            0.4016    -2.5659     0.5739 H       
  26 H26            1.8801    -2.2436    -2.0754 H       
  27 H27           -0.9582    -2.7220    -1.4365 H       
  28 H28           -0.3137    -1.3153    -2.0462 H       
  29 H29            0.4657    -4.6635    -0.8669 H       
  30 H30            1.1511    -4.5740    -2.5072 H       
  31 H31            2.2235    -4.4924    -1.0889 H       
@<TRIPOS>BOND
   1    1    2 ar
   2    1    3 ar
   3    1   16 1
   4    2    7 1
   5    2    6 ar
   6    3    4 ar
   7    3    9 1
   8    4    5 ar
   9    4   10 1
  10    5    6 ar
  11    5   17 1
  12    6   12 1
  13    7    8 1
  14    8   18 1
  15    8   19 1
  16    8   20 1
  17   10   11 1
  18   11   21 1
  19   11   22 1
  20   11   23 1
  21   12   13 1
  22   12   24 1
  23   12   25 1
  24   13   14 1
  25   13   15 1
  26   13   26 1
  27   14   27 1
  28   14   28 1
  29   15   29 1
  30   15   30 1
  31   15   31 1

#	End of record

