#	Name: ASD00310098
#	Creating user name:	WinNT
#	Creation time:	15. 06. 2019 18:33

#	Modifying user name:	WinNT
#	Modification time:	15. 06. 2019 18:33

#	Program:	/corina/corina34_cracker 3.40 0067  02.08.2006

@<TRIPOS>MOLECULE
ASD00310098
  29   30    0    0    0
SMALL
NO_CHARGES


@<TRIPOS>ATOM
   1 C1            -0.0184     1.5028     0.0103 C.2     
   2 C2             0.0021    -0.0041     0.0020 C.3     
   3 N3             1.1395     2.1925     0.0030 N.am    
   4 C4             1.2644     3.6574     0.0096 C.3     
   5 C5             2.7711     3.9890    -0.0293 C.3     
   6 C6             3.3952     2.7002    -0.6266 C.3     
   7 C7             2.4907     1.6029    -0.0067 C.3     
   8 C8             3.0335     5.1728    -0.9242 C.ar    
   9 C9             3.6472     6.3018    -0.4144 C.ar    
  10 C10            3.8885     7.3876    -1.2349 C.ar    
  11 C11            3.5159     7.3444    -2.5663 C.ar    
  12 C12            2.9019     6.2145    -3.0760 C.ar    
  13 C13            2.6658     5.1272    -2.2560 C.ar    
  14 Br14           3.8452     8.8298    -3.6892 Br      
  15 O15           -1.0768     2.0948     0.0185 O.2     
  16 H16            1.0345    -0.3534    -0.0097 H       
  17 H17           -0.4983    -0.3791     0.8948 H       
  18 H18           -0.5153    -0.3696    -0.8850 H       
  19 H19            0.7700     4.0755    -0.8672 H       
  20 H20            0.8188     4.0632     0.9178 H       
  21 H21            3.1518     4.1719     0.9756 H       
  22 H22            3.3254     2.7002    -1.7144 H       
  23 H23            4.4292     2.5806    -0.3030 H       
  24 H24            2.8115     1.3729     1.0093 H       
  25 H25            2.5082     0.7044    -0.6234 H       
  26 H26            3.9377     6.3355     0.6253 H       
  27 H27            4.3676     8.2697    -0.8364 H       
  28 H28            2.6105     6.1805    -4.1153 H       
  29 H29            2.1901     4.2434    -2.6548 H       
@<TRIPOS>BOND
   1    1    2 1
   2    1    3 am
   3    1   15 2
   4    2   16 1
   5    2   17 1
   6    2   18 1
   7    3    4 1
   8    3    7 1
   9    4    5 1
  10    4   19 1
  11    4   20 1
  12    5    6 1
  13    5    8 1
  14    5   21 1
  15    6    7 1
  16    6   22 1
  17    6   23 1
  18    7   24 1
  19    7   25 1
  20    8    9 ar
  21    8   13 ar
  22    9   10 ar
  23    9   26 1
  24   10   11 ar
  25   10   27 1
  26   11   12 ar
  27   11   14 1
  28   12   13 ar
  29   12   28 1
  30   13   29 1

#	End of record

