#	Name: ASD01730056
#	Creating user name:	WinNT
#	Creation time:	15. 06. 2019 19:23

#	Modifying user name:	WinNT
#	Modification time:	15. 06. 2019 19:23

#	Program:	/corina/corina34_cracker 3.40 0067  02.08.2006

@<TRIPOS>MOLECULE
ASD01730056
  33   35    0    0    0
SMALL
NO_CHARGES


@<TRIPOS>ATOM
   1 N1             0.1516     1.0850     0.3648 N.am    
   2 C2             0.0799    -0.2580     0.2772 C.2     
   3 S3             1.4903    -1.2059     0.4853 S.2     
   4 N4            -1.1021    -0.8548     0.0257 N.am    
   5 C5            -1.1620    -2.2414    -0.1512 C.ar    
   6 C6            -0.5050    -3.0849     0.7352 C.ar    
   7 C7            -0.5663    -4.4532     0.5584 C.ar    
   8 C8            -1.2810    -4.9839    -0.5008 C.ar    
   9 C9            -1.9361    -4.1460    -1.3857 C.ar    
  10 C10           -1.8834    -2.7771    -1.2102 C.ar    
  11 Br11          -1.3621    -6.8580    -0.7399 Br      
  12 N12            1.4423     2.9838     0.6653 N.2     
  13 C13            1.3331     1.6893     0.7377 C.2     
  14 S14            2.6740     0.6979     1.3062 S.3     
  15 C15            4.0560     1.6889     0.6841 C.3     
  16 C16            3.8269     3.1359     1.0398 C.ar    
  17 C17            2.5512     3.6936     1.0150 C.ar    
  18 C18            4.9137     3.9118     1.3966 C.ar    
  19 C19            4.7441     5.2416     1.7344 C.ar    
  20 C20            3.4805     5.8046     1.7166 C.ar    
  21 C21            2.3894     5.0432     1.3613 C.ar    
  22 H22           -0.6271     1.6265     0.1616 H       
  23 H23           -1.9112    -0.3230    -0.0327 H       
  24 H24            0.0536    -2.6711     1.5617 H       
  25 H25           -0.0556    -5.1096     1.2474 H       
  26 H26           -2.4930    -4.5629    -2.2118 H       
  27 H27           -2.3986    -2.1237    -1.8986 H       
  28 H28            4.9849     1.3446     1.1389 H       
  29 H29            4.1196     1.5857    -0.3992 H       
  30 H30            5.9019     3.4763     1.4119 H       
  31 H31            5.5984     5.8413     2.0120 H       
  32 H32            3.3494     6.8432     1.9822 H       
  33 H33            1.4049     5.4871     1.3492 H       
@<TRIPOS>BOND
   1    1    2 am
   2    1   13 1
   3    1   22 1
   4    2    3 2
   5    2    4 am
   6    4    5 1
   7    4   23 1
   8    5    6 ar
   9    5   10 ar
  10    6    7 ar
  11    6   24 1
  12    7    8 ar
  13    7   25 1
  14    8    9 ar
  15    8   11 1
  16    9   10 ar
  17    9   26 1
  18   10   27 1
  19   12   13 2
  20   12   17 1
  21   13   14 1
  22   14   15 1
  23   15   16 1
  24   15   28 1
  25   15   29 1
  26   16   17 ar
  27   16   18 ar
  28   17   21 ar
  29   18   19 ar
  30   18   30 1
  31   19   20 ar
  32   19   31 1
  33   20   21 ar
  34   20   32 1
  35   21   33 1

#	End of record

