#	Name: ASD07150002
#	Creating user name:	WinNT
#	Creation time:	15. 06. 2019 21:09

#	Modifying user name:	WinNT
#	Modification time:	15. 06. 2019 21:09

#	Program:	/corina/corina34_cracker 3.40 0067  02.08.2006

@<TRIPOS>MOLECULE
ASD07150002
  47   49    0    0    0
SMALL
NO_CHARGES


@<TRIPOS>ATOM
   1 C1            -0.1720     0.9347    -0.2082 C.ar    
   2 C2            -0.0507    -0.4422    -0.2238 C.ar    
   3 C3             1.2001    -1.0267    -0.1539 C.ar    
   4 C4             2.3296    -0.2342    -0.0689 C.ar    
   5 C5             2.2083     1.1427    -0.0542 C.ar    
   6 C6             0.9575     1.7272    -0.1227 C.ar    
   7 C7             3.4396     2.0066     0.0389 C.3     
   8 C8             4.0289     2.1912    -1.3357 C.ar    
   9 C9             5.0089     1.3329    -1.7885 C.ar    
  10 C10            5.5512     1.5010    -3.0507 C.ar    
  11 C11            5.1146     2.5294    -3.8667 C.ar    
  12 C12            4.1346     3.3948    -3.4264 C.ar    
  13 C13            3.5798     3.2281    -2.1562 C.ar    
  14 C14            2.5289     4.1514    -1.6779 C.2     
  15 O15            1.3906     4.0450    -2.0935 O.2     
  16 C16            2.8596     5.1983    -0.6997 C.2     
  17 C17            1.9904     6.0542    -0.0856 C.2     
  18 N18            2.6913     6.8631     0.7438 N.pl3   
  19 C19            4.0121     6.5664     0.6976 C.2     
  20 C20            4.1991     5.5350    -0.1756 C.2     
  21 C21            0.4986     6.0920    -0.2961 C.3     
  22 C22            5.0953     7.2574     1.4853 C.3     
  23 C23            5.4745     4.8953    -0.5297 C.2     
  24 O24            5.8748     3.9425     0.1103 O.2     
  25 O25            6.2000     5.3653    -1.5640 O.3     
  26 C26            7.4488     4.6847    -1.8565 C.3     
  27 H27           -1.1489     1.3914    -0.2673 H       
  28 H28           -0.9331    -1.0614    -0.2902 H       
  29 H29            1.2948    -2.1025    -0.1653 H       
  30 H30            3.3067    -0.6909    -0.0136 H       
  31 H31            0.8627     2.8029    -0.1116 H       
  32 H32            3.1710     2.9786     0.4526 H       
  33 H33            4.1725     1.5259     0.6869 H       
  34 H34            5.3543     0.5280    -1.1566 H       
  35 H35            6.3189     0.8265    -3.4001 H       
  36 H36            5.5422     2.6552    -4.8505 H       
  37 H37            3.7949     4.1974    -4.0643 H       
  38 H38            2.3012     7.5596     1.2948 H       
  39 H39            0.0104     5.4656     0.4504 H       
  40 H40            0.1437     7.1179    -0.1979 H       
  41 H41            0.2628     5.7199    -1.2931 H       
  42 H42            5.2318     6.7483     2.4394 H       
  43 H43            6.0281     7.2297     0.9220 H       
  44 H44            4.8095     8.2939     1.6641 H       
  45 H45            7.2467     3.6397    -2.0914 H       
  46 H46            7.9317     5.1619    -2.7092 H       
  47 H47            8.1055     4.7414    -0.9883 H       
@<TRIPOS>BOND
   1    1    2 ar
   2    1    6 ar
   3    1   27 1
   4    2    3 ar
   5    2   28 1
   6    3    4 ar
   7    3   29 1
   8    4    5 ar
   9    4   30 1
  10    5    6 ar
  11    5    7 1
  12    6   31 1
  13    7    8 1
  14    7   32 1
  15    7   33 1
  16    8    9 ar
  17    8   13 ar
  18    9   10 ar
  19    9   34 1
  20   10   11 ar
  21   10   35 1
  22   11   12 ar
  23   11   36 1
  24   12   13 ar
  25   12   37 1
  26   13   14 1
  27   14   15 2
  28   14   16 1
  29   16   17 2
  30   16   20 1
  31   17   18 1
  32   17   21 1
  33   18   19 1
  34   18   38 1
  35   19   20 2
  36   19   22 1
  37   20   23 1
  38   21   39 1
  39   21   40 1
  40   21   41 1
  41   22   42 1
  42   22   43 1
  43   22   44 1
  44   23   24 2
  45   23   25 1
  46   25   26 1
  47   26   45 1
  48   26   46 1
  49   26   47 1

#	End of record

