#	Name: ASD01811827
#	Creating user name:	WinNT
#	Creation time:	15. 06. 2019 19:27

#	Modifying user name:	WinNT
#	Modification time:	15. 06. 2019 19:27

#	Program:	/corina/corina34_cracker 3.40 0067  02.08.2006

@<TRIPOS>MOLECULE
ASD01811827
  54   57    0    0    0
SMALL
NO_CHARGES


@<TRIPOS>ATOM
   1 C1            -0.0167     1.3805     0.0096 C.ar    
   2 C2             0.0021    -0.0041     0.0020 C.ar    
   3 C3            -1.1845    -0.7161     0.0090 C.ar    
   4 C4            -2.3942    -0.0535     0.0241 C.ar    
   5 C5            -2.4213     1.3425     0.0323 C.ar    
   6 C6            -1.2177     2.0512     0.0304 C.ar    
   7 C7             1.2777     2.1522     0.0014 C.3     
   8 C8             1.3184    -0.7376    -0.0144 C.3     
   9 C9            -1.1549    -2.2228    -0.0004 C.3     
  10 C10           -1.0078    -2.7311     1.4107 C.ar    
  11 C11           -2.1348    -2.9876     2.1713 C.ar    
  12 C12           -2.0074    -3.4535     3.4634 C.ar    
  13 C13           -0.7374    -3.6661     4.0034 C.ar    
  14 C14            0.3957    -3.4053     3.2302 C.ar    
  15 C15            0.2536    -2.9447     1.9377 C.ar    
  16 C16           -0.5976    -4.1492     5.3442 C.1     
  17 N17           -0.4867    -4.5324     6.4078 N.1     
  18 C18           -3.5309     2.3149     0.0477 C.2     
  19 N19           -3.0504     3.5703     0.0501 N.am    
  20 C20           -1.5841     3.5142     0.0402 C.3     
  21 O21           -4.7107     2.0226     0.0563 O.2     
  22 C22           -3.8575     4.7928     0.0640 C.3     
  23 C23           -4.7285     4.8146     1.3217 C.3     
  24 C24           -5.5714     6.0914     1.3363 C.3     
  25 C25           -6.4661     6.1261     0.0956 C.3     
  26 C26           -5.5951     6.1043    -1.1620 C.3     
  27 C27           -4.7522     4.8275    -1.1766 C.3     
  28 O28           -3.8929     4.7823     2.4805 O.3     
  29 H29           -3.3180    -0.6130     0.0291 H       
  30 H30            1.5800     2.3437    -1.0282 H       
  31 H31            1.1390     3.0999     0.5217 H       
  32 H32            2.0504     1.5710     0.5048 H       
  33 H33            1.6456    -0.9199     1.0092 H       
  34 H34            1.1977    -1.6891    -0.5323 H       
  35 H35            2.0641    -0.1342    -0.5322 H       
  36 H36           -2.0831    -2.6018    -0.4281 H       
  37 H37           -0.3118    -2.5659    -0.5999 H       
  38 H38           -3.1165    -2.8223     1.7525 H       
  39 H39           -2.8879    -3.6529     4.0561 H       
  40 H40            1.3809    -3.5672     3.6419 H       
  41 H41            1.1291    -2.7425     1.3385 H       
  42 H42           -1.1849     3.9949     0.9333 H       
  43 H43           -1.1966     4.0028    -0.8538 H       
  44 H44           -3.2001     5.6623     0.0623 H       
  45 H45           -5.3859     3.9452     1.3235 H       
  46 H46           -6.1919     6.1069     2.2323 H       
  47 H47           -4.9140     6.9608     1.3345 H       
  48 H48           -7.1235     5.2566     0.0974 H       
  49 H49           -7.0666     7.0357     0.1060 H       
  50 H50           -6.2325     6.1290    -2.0459 H       
  51 H51           -4.9377     6.9737    -1.1638 H       
  52 H52           -4.1317     4.8120    -2.0726 H       
  53 H53           -5.4096     3.9581    -1.1749 H       
  54 H54           -4.3789     4.7937     3.3164 H       
@<TRIPOS>BOND
   1    1    2 ar
   2    1    7 1
   3    1    6 ar
   4    2    3 ar
   5    2    8 1
   6    3    4 ar
   7    3    9 1
   8    4    5 ar
   9    4   29 1
  10    5    6 ar
  11    5   18 1
  12    6   20 1
  13    7   30 1
  14    7   31 1
  15    7   32 1
  16    8   33 1
  17    8   34 1
  18    8   35 1
  19    9   10 1
  20    9   36 1
  21    9   37 1
  22   10   11 ar
  23   10   15 ar
  24   11   12 ar
  25   11   38 1
  26   12   13 ar
  27   12   39 1
  28   13   14 ar
  29   13   16 1
  30   14   15 ar
  31   14   40 1
  32   15   41 1
  33   16   17 3
  34   18   19 am
  35   18   21 2
  36   19   20 1
  37   19   22 1
  38   20   42 1
  39   20   43 1
  40   22   23 1
  41   22   27 1
  42   22   44 1
  43   23   24 1
  44   23   28 1
  45   23   45 1
  46   24   25 1
  47   24   46 1
  48   24   47 1
  49   25   26 1
  50   25   48 1
  51   25   49 1
  52   26   27 1
  53   26   50 1
  54   26   51 1
  55   27   52 1
  56   27   53 1
  57   28   54 1

#	End of record

