#	Name: ASD01911056
#	Creating user name:	WinNT
#	Creation time:	15. 06. 2019 19:57

#	Modifying user name:	WinNT
#	Modification time:	15. 06. 2019 19:57

#	Program:	/corina/corina34_cracker 3.40 0067  02.08.2006

@<TRIPOS>MOLECULE
ASD01911056
  48   51    0    0    0
SMALL
NO_CHARGES


@<TRIPOS>ATOM
   1 N1            -4.7490    -3.3381     1.0009 N.3     
   2 C2            -3.5012    -2.6353     1.3280 C.3     
   3 C3            -2.6776    -2.4421     0.0502 C.3     
   4 N4            -3.5217    -1.7762    -0.9534 N.am    
   5 C5            -4.8479    -2.3459    -1.2359 C.3     
   6 C6            -5.5860    -2.5429     0.0925 C.3     
   7 C7            -3.0915    -0.6728    -1.5969 C.2     
   8 C8            -3.9008    -0.0912    -2.6893 C.ar    
   9 C9            -4.0132     1.2952    -2.8150 C.ar    
  10 C10           -4.7690     1.8411    -3.8341 C.ar    
  11 C11           -5.4184     1.0221    -4.7354 C.ar    
  12 C12           -5.3148    -0.3680    -4.6219 C.ar    
  13 C13           -4.5480    -0.9250    -3.5985 C.ar    
  14 C14           -5.9897    -1.2170    -5.5569 C.1     
  15 O15           -2.0382    -0.1559    -1.2794 O.2     
  16 C16           -6.5429    -1.9131    -6.3236 C.1     
  17 C17           -7.2178    -2.7621    -7.2586 C.ar    
  18 N18           -7.1149    -4.0827    -7.1446 N.ar    
  19 C19           -7.7207    -4.8968    -7.9843 C.ar    
  20 C20           -8.4908    -4.4037    -9.0218 C.ar    
  21 C21           -8.6259    -3.0306    -9.1786 C.ar    
  22 C22           -7.9845    -2.1967    -8.2810 C.ar    
  23 C23           -5.4455    -3.6751     2.1509 C.2     
  24 S24           -6.9423    -4.5005     2.1830 S.3     
  25 C25           -6.9535    -4.4345     3.9434 C.2     
  26 C26           -5.8466    -3.8068     4.3413 C.2     
  27 N27           -5.0539    -3.4151     3.3596 N.2     
  28 C28           -6.2411     1.6269    -5.8438 C.3     
  29 F29           -6.1941     3.0220    -5.7514 F       
  30 F30           -5.7257     1.2238    -7.0804 F       
  31 F31           -7.5672     1.1963    -5.7285 F       
  32 H32           -3.7343    -1.6626     1.7610 H       
  33 H33           -2.9287    -3.2249     2.0440 H       
  34 H34           -1.8072    -1.8225     0.2658 H       
  35 H35           -2.3554    -3.4123    -0.3279 H       
  36 H36           -5.4123    -1.6628    -1.8706 H       
  37 H37           -4.7343    -3.3069    -1.7376 H       
  38 H38           -6.5255    -3.0655    -0.0874 H       
  39 H39           -5.7902    -1.5715     0.5427 H       
  40 H40           -3.5081     1.9423    -2.1132 H       
  41 H41           -4.8524     2.9139    -3.9260 H       
  42 H42           -4.4643    -1.9977    -3.5057 H       
  43 H43           -7.6143    -5.9644    -7.8612 H       
  44 H44           -8.9827    -5.0808    -9.7044 H       
  45 H45           -9.2223    -2.6229    -9.9814 H       
  46 H46           -8.0686    -1.1240    -8.3735 H       
  47 H47           -7.7230    -4.8330     4.5879 H       
  48 H48           -5.6147    -3.6360     5.3822 H       
@<TRIPOS>BOND
   1    1    2 1
   2    1   23 1
   3    1    6 1
   4    2    3 1
   5    2   32 1
   6    2   33 1
   7    3    4 1
   8    3   34 1
   9    3   35 1
  10    4    5 1
  11    4    7 am
  12    5    6 1
  13    5   36 1
  14    5   37 1
  15    6   38 1
  16    6   39 1
  17    7    8 1
  18    7   15 2
  19    8    9 ar
  20    8   13 ar
  21    9   10 ar
  22    9   40 1
  23   10   11 ar
  24   10   41 1
  25   11   12 ar
  26   11   28 1
  27   12   13 ar
  28   12   14 1
  29   13   42 1
  30   14   16 3
  31   16   17 1
  32   17   18 ar
  33   17   22 ar
  34   18   19 ar
  35   19   20 ar
  36   19   43 1
  37   20   21 ar
  38   20   44 1
  39   21   22 ar
  40   21   45 1
  41   22   46 1
  42   23   24 1
  43   23   27 2
  44   24   25 1
  45   25   26 2
  46   25   47 1
  47   26   27 1
  48   26   48 1
  49   28   29 1
  50   28   30 1
  51   28   31 1

#	End of record

