#	Name: ASD01208980
#	Creating user name:	WinNT
#	Creation time:	15. 06. 2019 19:10

#	Modifying user name:	WinNT
#	Modification time:	15. 06. 2019 19:10

#	Program:	/corina/corina34_cracker 3.40 0067  02.08.2006

@<TRIPOS>MOLECULE
ASD01208980
  55   59    0    0    0
SMALL
NO_CHARGES


@<TRIPOS>ATOM
   1 C1            -2.3091     1.6151    -0.8409 C.3     
   2 C2            -2.2177     0.0995    -1.0433 C.3     
   3 C3            -1.4476    -0.1864    -2.3362 C.3     
   4 C4            -2.1476     0.5145    -3.5035 C.3     
   5 C5            -2.9757     2.2464    -2.0660 C.3     
   6 C6            -1.4823    -0.5316     0.1407 C.3     
   7 C7            -1.5304    -2.0559     0.0171 C.3     
   8 C8            -0.7065    -2.6752     1.1166 C.2     
   9 O9            -1.2485    -3.3113     1.9956 O.2     
  10 N10           -2.9181    -2.5115     0.1309 N.pl3   
  11 C11           -3.6080    -3.2063    -0.8280 C.ar    
  12 C12           -4.8971    -3.4398    -0.3107 C.ar    
  13 C13           -4.9212    -2.8361     1.0177 C.2     
  14 N14           -3.7493    -2.3124     1.2381 N.2     
  15 N15            0.6325    -2.5222     1.1230 N.am    
  16 O16           -2.2267     1.9163    -3.2373 O.3     
  17 C17           -3.2861    -3.6741    -2.0994 C.ar    
  18 C18           -4.2195    -4.3527    -2.8308 C.ar    
  19 C19           -5.4915    -4.5840    -2.3223 C.ar    
  20 C20           -5.8350    -4.1382    -1.0787 C.ar    
  21 S21           -6.6721    -5.4626    -3.2913 S.o2    
  22 O22           -7.9290    -5.0012    -2.8153 O.2     
  23 O23           -6.2667    -5.2302    -4.6332 O.2     
  24 C24           -6.4212    -7.2023    -2.8427 C.3     
  25 C25           -7.2277    -8.2527    -3.6089 C.3     
  26 C26           -5.7270    -8.1027    -3.8665 C.3     
  27 C27            1.4022    -3.1746     2.0798 C.2     
  28 S28            3.1041    -3.0704     2.2043 S.3     
  29 C29            3.0796    -4.1529     3.5940 C.2     
  30 C30            1.8097    -4.4893     3.8342 C.2     
  31 N31            0.9331    -3.9452     3.0099 N.2     
  32 Cl32           4.4641    -4.6885     4.4939 Cl      
  33 H33           -2.9031     1.8287     0.0476 H       
  34 H34           -1.3075     2.0272    -0.7184 H       
  35 H35           -3.2212    -0.3198    -1.1163 H       
  36 H36           -0.4286     0.1893    -2.2439 H       
  37 H37           -1.4256    -1.2611    -2.5170 H       
  38 H38           -1.5800     0.3499    -4.4194 H       
  39 H39           -3.1527     0.1094    -3.6208 H       
  40 H40           -3.9917     1.8640    -2.1644 H       
  41 H41           -3.0048     3.3294    -1.9463 H       
  42 H42           -0.4441    -0.1998     0.1422 H       
  43 H43           -1.9624    -0.2271     1.0707 H       
  44 H44           -1.1280    -2.3548    -0.9508 H       
  45 H45           -5.7597    -2.8289     1.6983 H       
  46 H46            1.0593    -1.9570     0.4603 H       
  47 H47           -2.3009    -3.5007    -2.5065 H       
  48 H48           -3.9655    -4.7134    -3.8166 H       
  49 H49           -6.8259    -4.3219    -0.6906 H       
  50 H50           -6.2216    -7.3917    -1.7881 H       
  51 H51           -7.5583    -9.1335    -3.0584 H       
  52 H52           -7.9091    -7.8985    -4.3824 H       
  53 H53           -5.4211    -7.6498    -4.8096 H       
  54 H54           -5.0703    -8.8848    -3.4855 H       
  55 H55            1.5227    -5.1492     4.6396 H       
@<TRIPOS>BOND
   1    1    2 1
   2    1    5 1
   3    1   33 1
   4    1   34 1
   5    2    3 1
   6    2    6 1
   7    2   35 1
   8    3    4 1
   9    3   36 1
  10    3   37 1
  11    4   16 1
  12    4   38 1
  13    4   39 1
  14    5   16 1
  15    5   40 1
  16    5   41 1
  17    6    7 1
  18    6   42 1
  19    6   43 1
  20    7    8 1
  21    7   10 1
  22    7   44 1
  23    8    9 2
  24    8   15 am
  25   10   11 1
  26   10   14 1
  27   11   12 ar
  28   11   17 ar
  29   12   13 1
  30   12   20 ar
  31   13   14 2
  32   13   45 1
  33   15   27 1
  34   15   46 1
  35   17   18 ar
  36   17   47 1
  37   18   19 ar
  38   18   48 1
  39   19   20 ar
  40   19   21 1
  41   20   49 1
  42   21   22 2
  43   21   23 2
  44   21   24 1
  45   24   25 1
  46   24   26 1
  47   24   50 1
  48   25   26 1
  49   25   51 1
  50   25   52 1
  51   26   53 1
  52   26   54 1
  53   27   28 1
  54   27   31 2
  55   28   29 1
  56   29   30 2
  57   29   32 1
  58   30   31 1
  59   30   55 1

#	End of record

