#	Name: ASD05430130
#	Creating user name:	WinNT
#	Creation time:	15. 06. 2019 20:59

#	Modifying user name:	WinNT
#	Modification time:	15. 06. 2019 20:59

#	Program:	/corina/corina34_cracker 3.40 0067  02.08.2006

@<TRIPOS>MOLECULE
ASD05430130
  72   77    0    0    0
SMALL
NO_CHARGES


@<TRIPOS>ATOM
   1 C1             0.1576     0.9918    -0.1083 C.ar    
   2 C2             0.1934    -0.1503    -0.9078 C.ar    
   3 C3             1.3845    -0.5511    -1.4992 C.ar    
   4 C4             2.5366     0.1775    -1.2984 C.ar    
   5 C5             2.5083     1.3240    -0.4978 C.ar    
   6 C6             1.3092     1.7277     0.0971 C.ar    
   7 C7             5.0004    -0.0314    -0.1189 C.3     
   8 C8             4.9235     1.4753    -0.1760 C.2     
   9 C9             3.7382     2.1038    -0.2821 C.2     
  10 C10            6.3349    -0.4892     0.4656 C.3     
  11 C11            6.8757     0.5160     1.4848 C.3     
  12 N12            7.1226     1.7917     0.8155 N.pl3   
  13 C13            6.1821     2.2386    -0.1118 C.2     
  14 C14            9.4077     1.7495     1.6315 C.ar    
  15 C15           10.2454     1.0775     0.7610 C.ar    
  16 C16           11.2669     0.2886     1.2549 C.ar    
  17 C17           11.4511     0.1713     2.6222 C.ar    
  18 C18           10.6114     0.8448     3.4931 C.ar    
  19 C19            9.5906     1.6332     2.9968 C.ar    
  20 N20           -0.9753    -0.8956    -1.1147 N.pl3   
  21 C21           -1.4731    -1.3122    -2.3221 C.2     
  22 C22           -2.6054    -1.9936    -2.0630 C.2     
  23 N23           -2.7983    -1.9961    -0.7357 N.2     
  24 C24           -1.8255    -1.3467    -0.1562 C.2     
  25 C25           -3.5014    -2.6408    -3.0875 C.3     
  26 N26            6.4260     3.2536    -0.8714 N.2     
  27 C27           -0.9746     2.5634     1.2709 C.3     
  28 O28           -1.0112     1.3843     0.4644 O.3     
  29 C29            8.2980     2.6145     1.0915 C.3     
  30 C30            8.7464     3.2712    -0.2189 C.3     
  31 O31            7.6516     3.9489    -0.8268 O.3     
  32 C32            7.9419     3.6953     2.1142 C.3     
  33 O33            9.0944     4.4971     2.3807 O.3     
  34 C34            6.1445    -1.8462     1.1547 C.3     
  35 C35            5.6952    -2.8771     0.1163 C.3     
  36 O36            6.6674    -2.9545    -0.9282 O.3     
  37 C37            6.8601    -1.7288    -1.6371 C.3     
  38 C38            7.3543    -0.6518    -0.6682 C.3     
  39 F39           12.4491    -0.6000     3.1062 F       
  40 H40            1.4078    -1.4362    -2.1176 H       
  41 H41            3.4615    -0.1369    -1.7589 H       
  42 H42            1.2830     2.6126     0.7158 H       
  43 H43            4.1888    -0.4080     0.5036 H       
  44 H44            4.8940    -0.4338    -1.1264 H       
  45 H45            3.6893     3.1802    -0.2090 H       
  46 H46            6.1441     0.6576     2.2803 H       
  47 H47            7.8073     0.1403     1.9080 H       
  48 H48           10.1014     1.1689    -0.3054 H       
  49 H49           11.9211    -0.2366     0.5747 H       
  50 H50           10.7541     0.7541     4.5597 H       
  51 H51            8.9355     2.1586     3.6759 H       
  52 H52           -1.0404    -1.1290    -3.2945 H       
  53 H53           -1.7187    -1.1879     0.9067 H       
  54 H54           -3.1762    -3.6671    -3.2580 H       
  55 H55           -4.5288    -2.6410    -2.7233 H       
  56 H56           -3.4473    -2.0824    -4.0220 H       
  57 H57           -0.2784     2.4173     2.0967 H       
  58 H58           -0.6473     3.4082     0.6648 H       
  59 H59           -1.9703     2.7642     1.6663 H       
  60 H60            9.5431     3.9854    -0.0111 H       
  61 H61            9.1191     2.5046    -0.8983 H       
  62 H62            7.1459     4.3244     1.7158 H       
  63 H63            7.6052     3.2247     3.0379 H       
  64 H64            8.9417     5.2044     3.0221 H       
  65 H65            7.0873    -2.1643     1.5997 H       
  66 H66            5.3853    -1.7570     1.9317 H       
  67 H67            5.5947    -3.8525     0.5924 H       
  68 H68            4.7349    -2.5763    -0.3026 H       
  69 H69            7.5995    -1.8766    -2.4241 H       
  70 H70            5.9157    -1.4131    -2.0803 H       
  71 H71            7.4626     0.2939    -1.1992 H       
  72 H72            8.3170    -0.9497    -0.2527 H       
@<TRIPOS>BOND
   1    1    2 ar
   2    1    6 ar
   3    1   28 1
   4    2    3 ar
   5    2   20 1
   6    3    4 ar
   7    3   40 1
   8    4    5 ar
   9    4   41 1
  10    5    6 ar
  11    5    9 1
  12    6   42 1
  13    7    8 1
  14    7   10 1
  15    7   43 1
  16    7   44 1
  17    8    9 2
  18    8   13 1
  19    9   45 1
  20   10   11 1
  21   10   34 1
  22   10   38 1
  23   11   12 1
  24   11   46 1
  25   11   47 1
  26   12   13 1
  27   12   29 1
  28   13   26 2
  29   14   15 ar
  30   14   19 ar
  31   14   29 1
  32   15   16 ar
  33   15   48 1
  34   16   17 ar
  35   16   49 1
  36   17   18 ar
  37   17   39 1
  38   18   19 ar
  39   18   50 1
  40   19   51 1
  41   20   21 1
  42   20   24 1
  43   21   22 2
  44   21   52 1
  45   22   23 1
  46   22   25 1
  47   23   24 2
  48   24   53 1
  49   25   54 1
  50   25   55 1
  51   25   56 1
  52   26   31 1
  53   27   28 1
  54   27   57 1
  55   27   58 1
  56   27   59 1
  57   29   30 1
  58   29   32 1
  59   30   31 1
  60   30   60 1
  61   30   61 1
  62   32   33 1
  63   32   62 1
  64   32   63 1
  65   33   64 1
  66   34   35 1
  67   34   65 1
  68   34   66 1
  69   35   36 1
  70   35   67 1
  71   35   68 1
  72   36   37 1
  73   37   38 1
  74   37   69 1
  75   37   70 1
  76   38   71 1
  77   38   72 1

#	End of record

