#	Name: ASD01910244
#	Creating user name:	WinNT
#	Creation time:	15. 06. 2019 19:55

#	Modifying user name:	WinNT
#	Modification time:	15. 06. 2019 19:55

#	Program:	/corina/corina34_cracker 3.40 0067  02.08.2006

@<TRIPOS>MOLECULE
ASD01910244
  47   50    0    0    0
SMALL
NO_CHARGES


@<TRIPOS>ATOM
   1 C1             0.0611     1.2496    -0.0269 C.2     
   2 C2             1.2422     2.1856    -0.0205 C.3     
   3 C3             1.1921     3.0798    -1.2615 C.3     
   4 C4             2.4086     4.0082    -1.2728 C.3     
   5 C5             2.3743     4.9035    -0.0302 C.3     
   6 N6             2.2759     4.0523     1.1633 N.am    
   7 C7             1.1946     3.0602     1.2364 C.3     
   8 C8             3.1608     4.1790     2.1720 C.2     
   9 C9             2.9750     3.3881     3.4412 C.3     
  10 O10            4.1066     4.9297     2.0582 O.2     
  11 N11            0.1059    -0.0593    -0.0391 N.2     
  12 C12           -1.1834    -0.4669    -0.0396 C.2     
  13 N13           -1.9281     0.6082    -0.0277 N.2     
  14 O14           -1.2290     1.5992    -0.0153 O.3     
  15 C15           -1.6635    -1.8709    -0.0521 C.ar    
  16 C16           -3.0304    -2.1420    -0.0510 C.ar    
  17 C17           -3.4724    -3.4488    -0.0632 C.ar    
  18 C18           -2.5593    -4.4910    -0.0764 C.ar    
  19 C19           -1.1993    -4.2259    -0.0776 C.ar    
  20 C20           -0.7487    -2.9220    -0.0708 C.ar    
  21 F21           -2.9964    -5.7693    -0.0879 F       
  22 C22            4.1839     3.5920     4.3711 C.3     
  23 C23            3.6397     4.2219     5.6699 C.3     
  24 C24            2.1481     3.8055     5.6980 C.3     
  25 C25            1.7383     3.9014     4.2074 C.3     
  26 H26            2.1655     1.6064    -0.0265 H       
  27 H27            1.2009     2.4586    -2.1572 H       
  28 H28            0.2801     3.6764    -1.2426 H       
  29 H29            3.3212     3.4122    -1.2667 H       
  30 H30            2.3846     4.6285    -2.1688 H       
  31 H31            3.2875     5.4966     0.0182 H       
  32 H32            1.5090     5.5645    -0.0799 H       
  33 H33            0.2332     3.5709     1.2900 H       
  34 H34            1.3295     2.4371     2.1205 H       
  35 H35            2.8578     2.3299     3.2077 H       
  36 H36           -3.7427    -1.3303    -0.0404 H       
  37 H37           -4.5316    -3.6598    -0.0620 H       
  38 H38           -0.4910    -5.0411    -0.0879 H       
  39 H39            0.3115    -2.7162    -0.0717 H       
  40 H40            4.6529     2.6326     4.5895 H       
  41 H41            4.9050     4.2629     3.9043 H       
  42 H42            4.1642     3.8210     6.5372 H       
  43 H43            3.7321     5.3074     5.6352 H       
  44 H44            2.0390     2.7845     6.0637 H       
  45 H45            1.5649     4.4985     6.3043 H       
  46 H46            1.5236     4.9351     3.9365 H       
  47 H47            0.8751     3.2665     4.0075 H       
@<TRIPOS>BOND
   1    1   11 2
   2    1    2 1
   3    1   14 1
   4    2    3 1
   5    2    7 1
   6    2   26 1
   7    3    4 1
   8    3   27 1
   9    3   28 1
  10    4    5 1
  11    4   29 1
  12    4   30 1
  13    5    6 1
  14    5   31 1
  15    5   32 1
  16    6    7 1
  17    6    8 am
  18    7   33 1
  19    7   34 1
  20    8    9 1
  21    8   10 2
  22    9   22 1
  23    9   25 1
  24    9   35 1
  25   11   12 1
  26   12   13 2
  27   12   15 1
  28   13   14 1
  29   15   16 ar
  30   15   20 ar
  31   16   17 ar
  32   16   36 1
  33   17   18 ar
  34   17   37 1
  35   18   19 ar
  36   18   21 1
  37   19   20 ar
  38   19   38 1
  39   20   39 1
  40   22   23 1
  41   22   40 1
  42   22   41 1
  43   23   24 1
  44   23   42 1
  45   23   43 1
  46   24   25 1
  47   24   44 1
  48   24   45 1
  49   25   46 1
  50   25   47 1

#	End of record

