#	Name: ASD03092729
#	Creating user name:	WinNT
#	Creation time:	15. 06. 2019 20:33

#	Modifying user name:	WinNT
#	Modification time:	15. 06. 2019 20:33

#	Program:	/corina/corina34_cracker 3.40 0067  02.08.2006

@<TRIPOS>MOLECULE
ASD03092729
  51   53    0    0    0
SMALL
NO_CHARGES


@<TRIPOS>ATOM
   1 C1            -0.0500     1.1857     0.0141 C.2     
   2 O2             0.6518     1.2270    -0.9784 O.2     
   3 C3             0.3871     0.4157     1.1960 C.ar    
   4 C4             1.5493    -0.3578     1.1385 C.ar    
   5 C5             1.9527    -1.0740     2.2446 C.ar    
   6 C6             1.2075    -1.0280     3.4133 C.ar    
   7 C7             0.0529    -0.2623     3.4760 C.ar    
   8 C8            -0.3569     0.4625     2.3778 C.ar    
   9 F9             1.6076    -1.7320     4.4947 F       
  10 C10           -2.5497     1.2132    -0.0917 C.ar    
  11 C11           -1.3336     1.9090     0.0394 C.ar    
  12 C12           -1.3638     3.2985     0.1947 C.ar    
  13 C13           -2.6051     3.9340     0.2124 C.ar    
  14 C14           -3.7643     3.1702     0.0761 C.ar    
  15 N15           -3.7037     1.8623    -0.0682 N.ar    
  16 N16           -2.5394    -0.1595    -0.2518 N.pl3   
  17 C17           -3.8010    -0.9038    -0.2751 C.3     
  18 C18           -3.5105    -2.3942    -0.4628 C.3     
  19 C19           -4.8281    -3.1715    -0.4872 C.3     
  20 C20           -2.6917     5.4061     0.3751 C.ar    
  21 C21           -3.9361     6.0344     0.3919 C.ar    
  22 C22           -4.0146     7.4022     0.5435 C.ar    
  23 C23           -2.8535     8.1554     0.6797 C.ar    
  24 C24           -1.6112     7.5304     0.6632 C.ar    
  25 C25           -1.5290     6.1622     0.5170 C.ar    
  26 S26           -2.9563     9.9037     0.8729 S.3     
  27 C27           -1.2173    10.4026     1.0057 C.3     
  28 C28           -1.1341    11.9203     1.1810 C.3     
  29 H29            2.1302    -0.3946     0.2287 H       
  30 H30            2.8506    -1.6725     2.2011 H       
  31 H31           -0.5240    -0.2307     4.3885 H       
  32 H32           -1.2536     1.0622     2.4293 H       
  33 H33           -0.4499     3.8645     0.2985 H       
  34 H34           -4.7273     3.6591     0.0894 H       
  35 H35           -1.6968    -0.6302    -0.3487 H       
  36 H36           -4.3296    -0.7524     0.6661 H       
  37 H37           -4.4181    -0.5472    -1.0998 H       
  38 H38           -2.9819    -2.5456    -1.4040 H       
  39 H39           -2.8935    -2.7508     0.3619 H       
  40 H40           -4.6212    -4.2333    -0.6209 H       
  41 H41           -5.3567    -3.0201     0.4540 H       
  42 H42           -5.4452    -2.8149    -1.3119 H       
  43 H43           -4.8380     5.4498     0.2858 H       
  44 H44           -4.9784     7.8893     0.5563 H       
  45 H45           -0.7106     8.1169     0.7687 H       
  46 H46           -0.5643     5.6766     0.5087 H       
  47 H47           -0.7633     9.9120     1.8667 H       
  48 H48           -0.6857    10.1118     0.0997 H       
  49 H49           -1.5881    12.4109     0.3200 H       
  50 H50           -1.6657    12.2111     2.0870 H       
  51 H51           -0.0892    12.2200     1.2608 H       
@<TRIPOS>BOND
   1    1    2 2
   2    1    3 1
   3    1   11 1
   4    3    4 ar
   5    3    8 ar
   6    4    5 ar
   7    4   29 1
   8    5    6 ar
   9    5   30 1
  10    6    7 ar
  11    6    9 1
  12    7    8 ar
  13    7   31 1
  14    8   32 1
  15   10   11 ar
  16   10   15 ar
  17   10   16 1
  18   11   12 ar
  19   12   13 ar
  20   12   33 1
  21   13   14 ar
  22   13   20 1
  23   14   15 ar
  24   14   34 1
  25   16   17 1
  26   16   35 1
  27   17   18 1
  28   17   36 1
  29   17   37 1
  30   18   19 1
  31   18   38 1
  32   18   39 1
  33   19   40 1
  34   19   41 1
  35   19   42 1
  36   20   21 ar
  37   20   25 ar
  38   21   22 ar
  39   21   43 1
  40   22   23 ar
  41   22   44 1
  42   23   24 ar
  43   23   26 1
  44   24   25 ar
  45   24   45 1
  46   25   46 1
  47   26   27 1
  48   27   28 1
  49   27   47 1
  50   27   48 1
  51   28   49 1
  52   28   50 1
  53   28   51 1

#	End of record

