#	Name: ASD01917823
#	Creating user name:	WinNT
#	Creation time:	15. 06. 2019 20:10

#	Modifying user name:	WinNT
#	Modification time:	15. 06. 2019 20:10

#	Program:	/corina/corina34_cracker 3.40 0067  02.08.2006

@<TRIPOS>MOLECULE
ASD01917823
  46   49    0    0    0
SMALL
NO_CHARGES


@<TRIPOS>ATOM
   1 C1             0.0240     1.2336    -0.1600 C.2     
   2 C2            -0.0103    -0.1126    -0.1340 C.2     
   3 C3            -1.2714    -0.9342    -0.0458 C.3     
   4 C4            -2.4120    -0.0387     0.4539 C.3     
   5 N5            -2.3755     1.2392    -0.2731 N.am    
   6 C6            -1.2010     2.1120    -0.0940 C.3     
   7 C7            -3.3897     1.6029    -1.0828 C.2     
   8 O8            -4.2902     0.8211    -1.3177 O.2     
   9 O9             1.3091     1.6013    -0.2463 O.3     
  10 C10            2.0494     0.4817    -0.2689 C.2     
  11 N11            1.2540    -0.5506    -0.2008 N.2     
  12 C12            3.5527     0.4261    -0.3587 C.3     
  13 O13            3.9466     0.3825    -1.7316 O.3     
  14 C14            5.2798     0.3294    -1.9896 C.ar    
  15 C15            5.7327     0.2850    -3.3002 C.ar    
  16 C16            7.0885     0.2309    -3.5598 C.ar    
  17 C17            7.9938     0.2211    -2.5147 C.ar    
  18 C18            7.5449     0.2647    -1.2077 C.ar    
  19 C19            6.1904     0.3251    -0.9430 C.ar    
  20 C20           -3.4069     2.9537    -1.6855 C.ar    
  21 C21           -4.3674     3.2684    -2.6460 C.ar    
  22 C22           -4.3739     4.5352    -3.2023 C.ar    
  23 C23           -3.4149     5.4505    -2.7781 C.ar    
  24 C24           -2.4863     5.0652    -1.8142 C.ar    
  25 N25           -2.5106     3.8559    -1.3022 N.ar    
  26 O26           -3.3849     6.7039    -3.2979 O.3     
  27 C27           -2.3703     7.5842    -2.8106 C.3     
  28 F28           -1.1107     7.0366    -3.0767 F       
  29 F29           -2.4836     8.8245    -3.4478 F       
  30 F30           -2.5231     7.7533    -1.4303 F       
  31 H31           -1.5208    -1.3274    -1.0313 H       
  32 H32           -1.1221    -1.7586     0.6514 H       
  33 H33           -3.3674    -0.5321     0.2757 H       
  34 H34           -2.2895     0.1457     1.5212 H       
  35 H35           -1.2506     2.6063     0.8762 H       
  36 H36           -1.1673     2.8565    -0.8894 H       
  37 H37            3.9779     1.3118     0.1134 H       
  38 H38            3.9144    -0.4666     0.1516 H       
  39 H39            5.0260     0.2923    -4.1168 H       
  40 H40            7.4415     0.1960    -4.5798 H       
  41 H41            9.0533     0.1788    -2.7198 H       
  42 H42            8.2541     0.2562    -0.3931 H       
  43 H43            5.8403     0.3592     0.0781 H       
  44 H44           -5.0966     2.5328    -2.9519 H       
  45 H45           -5.1056     4.8073    -3.9486 H       
  46 H46           -1.7394     5.7706    -1.4811 H       
@<TRIPOS>BOND
   1    1    2 2
   2    1    9 1
   3    1    6 1
   4    2    3 1
   5    2   11 1
   6    3    4 1
   7    3   31 1
   8    3   32 1
   9    4    5 1
  10    4   33 1
  11    4   34 1
  12    5    6 1
  13    5    7 am
  14    6   35 1
  15    6   36 1
  16    7    8 2
  17    7   20 1
  18    9   10 1
  19   10   11 2
  20   10   12 1
  21   12   13 1
  22   12   37 1
  23   12   38 1
  24   13   14 1
  25   14   15 ar
  26   14   19 ar
  27   15   16 ar
  28   15   39 1
  29   16   17 ar
  30   16   40 1
  31   17   18 ar
  32   17   41 1
  33   18   19 ar
  34   18   42 1
  35   19   43 1
  36   20   21 ar
  37   20   25 ar
  38   21   22 ar
  39   21   44 1
  40   22   23 ar
  41   22   45 1
  42   23   24 ar
  43   23   26 1
  44   24   25 ar
  45   24   46 1
  46   26   27 1
  47   27   28 1
  48   27   29 1
  49   27   30 1

#	End of record

