#	Name: ASD01470037
#	Creating user name:	WinNT
#	Creation time:	15. 06. 2019 19:21

#	Modifying user name:	WinNT
#	Modification time:	15. 06. 2019 19:21

#	Program:	/corina/corina34_cracker 3.40 0067  02.08.2006

@<TRIPOS>MOLECULE
ASD01470037
  91   97    0    0    0
SMALL
NO_CHARGES


@<TRIPOS>ATOM
   1 N1             0.1833     2.4393     0.7572 N.am    
   2 C2             1.5025     2.3879     0.1331 C.3     
   3 C3             2.4407     1.4620     0.9200 C.3     
   4 C4             2.2916     0.0092     0.4957 C.3     
   5 C5             0.8742    -0.2956     0.0398 C.3     
   6 N6            -0.0971     0.0974     1.0615 N.am    
   7 C7            -0.4624     1.3814     1.2215 C.2     
   8 O8            -1.4867     1.5892     1.8427 O.2     
   9 C9            -0.6795    -0.9273     1.9315 C.3     
  10 C10           -0.4648     3.7471     0.8829 C.3     
  11 C11           -0.1327     4.3454     2.2256 C.ar    
  12 C12            0.1271    -1.0266     3.2005 C.ar    
  13 C13           -0.0974    -0.1420     4.2151 C.ar    
  14 C14            0.6520    -0.2355     5.3932 C.ar    
  15 C15            1.6296    -1.2412     5.5191 C.ar    
  16 C16            1.8361    -2.1300     4.4668 C.ar    
  17 C17            1.0887    -2.0217     3.3287 C.ar    
  18 C18            1.0477     5.0464     2.3959 C.ar    
  19 C19            1.3603     5.5990     3.6255 C.ar    
  20 C20            0.4955     5.4538     4.6902 C.ar    
  21 C21           -0.6976     4.7478     4.5251 C.ar    
  22 C22           -1.0093     4.1976     3.2808 C.ar    
  23 C23            0.6768     0.5191     6.6420 C.2     
  24 N24            1.5868    -0.0103     7.4087 N.2     
  25 N25            2.1934    -1.0903     6.7590 N.pl3   
  26 C26            1.3630     1.8656    -1.2982 C.3     
  27 O27            3.7913     1.8737     0.6998 O.3     
  28 C28            1.8331     2.9208    -2.2661 C.ar    
  29 C29            3.1351     2.9022    -2.7302 C.ar    
  30 C30            3.5663     3.8701    -3.6179 C.ar    
  31 C31            2.6954     4.8563    -4.0419 C.ar    
  32 C32            1.3932     4.8744    -3.5785 C.ar    
  33 C33            0.9607     3.9040    -2.6941 C.ar    
  34 C34            0.7431    -1.7960    -0.2294 C.3     
  35 O35            2.6186    -0.8360     1.6006 O.3     
  36 C36            1.6888    -2.1928    -1.3335 C.ar    
  37 C37            2.9817    -2.5774    -1.0313 C.ar    
  38 C38            3.8493    -2.9414    -2.0441 C.ar    
  39 C39            3.4237    -2.9211    -3.3592 C.ar    
  40 C40            2.1305    -2.5374    -3.6614 C.ar    
  41 C41            1.2617    -2.1776    -2.6481 C.ar    
  42 C42           -1.6288     4.5879     5.6617 C.2     
  43 N43           -1.3815     5.2148     6.8289 N.am    
  44 O44           -2.6177     3.8909     5.5438 O.2     
  45 C45           -2.2214     5.0098     7.9213 C.ar    
  46 N46           -1.7819     5.2654     9.1434 N.ar    
  47 C47           -2.5445     5.0850    10.2049 C.ar    
  48 C48           -3.8378     4.6190    10.0766 C.ar    
  49 C49           -4.3371     4.3388     8.8117 C.ar    
  50 C50           -3.5156     4.5438     7.7175 C.ar    
  51 C51           -4.6985     4.4162    11.2969 C.3     
  52 H52            1.9270     3.3916     0.1074 H       
  53 H53            2.2118     1.5459     1.9824 H       
  54 H54            2.9809    -0.1952    -0.3235 H       
  55 H55            0.6679     0.2507    -0.8806 H       
  56 H56           -1.7070    -0.6565     2.1744 H       
  57 H57           -0.6689    -1.8887     1.4180 H       
  58 H58           -0.1074     4.4072     0.0926 H       
  59 H59           -1.5447     3.6274     0.7955 H       
  60 H60           -0.8491     0.6262     4.1092 H       
  61 H61            2.5833    -2.9052     4.5519 H       
  62 H62            1.2521    -2.7133     2.5155 H       
  63 H63            1.7284     5.1628     1.5655 H       
  64 H64            2.2836     6.1448     3.7518 H       
  65 H65            0.7410     5.8849     5.6495 H       
  66 H66           -1.9308     3.6506     3.1464 H       
  67 H67            0.0521     1.3654     6.8867 H       
  68 H68            2.8998    -1.6438     7.1271 H       
  69 H69            1.9685     0.9672    -1.4179 H       
  70 H70            0.3180     1.6288    -1.4983 H       
  71 H71            4.4471     1.3362     1.1648 H       
  72 H72            3.8155     2.1316    -2.3989 H       
  73 H73            4.5837     3.8559    -3.9800 H       
  74 H74            3.0326     5.6129    -4.7349 H       
  75 H75            0.7129     5.6452    -3.9095 H       
  76 H76           -0.0567     3.9181    -2.3321 H       
  77 H77            0.9890    -2.3504     0.6763 H       
  78 H78           -0.2802    -2.0235    -0.5281 H       
  79 H79            3.5209    -0.7221     1.9293 H       
  80 H80            3.3142    -2.5932    -0.0038 H       
  81 H81            4.8596    -3.2411    -1.8080 H       
  82 H82            4.1017    -3.2048    -4.1506 H       
  83 H83            1.7982    -2.5213    -4.6888 H       
  84 H84            0.2514    -1.8778    -2.8842 H       
  85 H85           -0.6188     5.8088     6.9082 H       
  86 H86           -2.1518     5.3043    11.1868 H       
  87 H87           -5.3454     3.9733     8.6845 H       
  88 H88           -3.8718     4.3365     6.7192 H       
  89 H89           -5.2463     5.3337    11.5117 H       
  90 H90           -5.4043     3.6062    11.1131 H       
  91 H91           -4.0674     4.1620    12.1485 H       
@<TRIPOS>BOND
   1    1    2 1
   2    1   10 1
   3    1    7 am
   4    2    3 1
   5    2   26 1
   6    2   52 1
   7    3    4 1
   8    3   27 1
   9    3   53 1
  10    4    5 1
  11    4   35 1
  12    4   54 1
  13    5    6 1
  14    5   34 1
  15    5   55 1
  16    6    7 am
  17    6    9 1
  18    7    8 2
  19    9   12 1
  20    9   56 1
  21    9   57 1
  22   10   11 1
  23   10   58 1
  24   10   59 1
  25   11   18 ar
  26   11   22 ar
  27   12   13 ar
  28   12   17 ar
  29   13   14 ar
  30   13   60 1
  31   14   15 ar
  32   14   23 1
  33   15   16 ar
  34   15   25 1
  35   16   17 ar
  36   16   61 1
  37   17   62 1
  38   18   19 ar
  39   18   63 1
  40   19   20 ar
  41   19   64 1
  42   20   21 ar
  43   20   65 1
  44   21   22 ar
  45   21   42 1
  46   22   66 1
  47   23   24 2
  48   23   67 1
  49   24   25 1
  50   25   68 1
  51   26   28 1
  52   26   69 1
  53   26   70 1
  54   27   71 1
  55   28   29 ar
  56   28   33 ar
  57   29   30 ar
  58   29   72 1
  59   30   31 ar
  60   30   73 1
  61   31   32 ar
  62   31   74 1
  63   32   33 ar
  64   32   75 1
  65   33   76 1
  66   34   36 1
  67   34   77 1
  68   34   78 1
  69   35   79 1
  70   36   37 ar
  71   36   41 ar
  72   37   38 ar
  73   37   80 1
  74   38   39 ar
  75   38   81 1
  76   39   40 ar
  77   39   82 1
  78   40   41 ar
  79   40   83 1
  80   41   84 1
  81   42   43 am
  82   42   44 2
  83   43   45 1
  84   43   85 1
  85   45   46 ar
  86   45   50 ar
  87   46   47 ar
  88   47   48 ar
  89   47   86 1
  90   48   49 ar
  91   48   51 1
  92   49   50 ar
  93   49   87 1
  94   50   88 1
  95   51   89 1
  96   51   90 1
  97   51   91 1

#	End of record

