#	Name: ASD01884776
#	Creating user name:	WinNT
#	Creation time:	15. 06. 2019 19:48

#	Modifying user name:	WinNT
#	Modification time:	15. 06. 2019 19:48

#	Program:	/corina/corina34_cracker 3.40 0067  02.08.2006

@<TRIPOS>MOLECULE
ASD01884776
  43   45    0    0    0
SMALL
NO_CHARGES


@<TRIPOS>ATOM
   1 N1            -0.0163     1.3534     0.0095 N.am    
   2 C2             0.0021    -0.0041     0.0020 C.2     
   3 C3             1.1314     2.0576     0.0023 C.2     
   4 C4             2.3671     1.3883    -0.0131 C.2     
   5 C5             2.3876     0.0245    -0.0207 C.2     
   6 C6             1.1751    -0.6792    -0.0129 C.2     
   7 C7            -1.2995     2.0602     0.0194 C.3     
   8 C8            -1.7328     2.2948     1.4436 C.ar    
   9 C9            -1.6300     3.5563     1.9981 C.ar    
  10 C10           -2.2393     1.2474     2.1947 C.ar    
  11 C11           -2.6375     1.4639     3.5026 C.ar    
  12 C12           -2.5290     2.7262     4.0578 C.ar    
  13 C13           -2.0277     3.7726     3.3043 C.ar    
  14 Cl14          -3.0280     2.9989     5.6981 Cl      
  15 O15            1.0986     3.2777     0.0088 O.2     
  16 C16            1.1777    -2.1862    -0.0205 C.3     
  17 O17           -0.1687    -2.6649    -0.0103 O.3     
  18 C18           -0.3444    -4.0125    -0.0155 C.ar    
  19 C19           -1.6240    -4.5452    -0.0061 C.ar    
  20 C20            0.7573    -4.8565    -0.0359 C.ar    
  21 C21            0.5793    -6.2265    -0.0421 C.ar    
  22 C22           -0.6954    -6.7601    -0.0275 C.ar    
  23 C23           -1.8000    -5.9205    -0.0119 C.ar    
  24 F24           -2.3452     0.0151     1.6511 F       
  25 O25           -3.0533    -6.4458     0.0024 O.3     
  26 C26           -3.1595    -7.8709     0.0004 C.3     
  27 H27           -0.9291    -0.5510     0.0084 H       
  28 H28            3.2908     1.9479    -0.0193 H       
  29 H29            3.3275    -0.5074    -0.0329 H       
  30 H30           -1.1908     3.0178    -0.4898 H       
  31 H31           -2.0496     1.4587    -0.4942 H       
  32 H32           -1.2384     4.3737     1.4108 H       
  33 H33           -3.0330     0.6478     4.0891 H       
  34 H34           -1.9427     4.7579     3.7383 H       
  35 H35            1.6838    -2.5441    -0.9171 H       
  36 H36            1.7005    -2.5531     0.8627 H       
  37 H37           -2.4826    -3.8901     0.0060 H       
  38 H38            1.7545    -4.4419    -0.0473 H       
  39 H39            1.4378    -6.8816    -0.0588 H       
  40 H40           -0.8320    -7.8314    -0.0328 H       
  41 H41           -2.6851    -8.2693    -0.8964 H       
  42 H42           -2.6631    -8.2734     0.8834 H       
  43 H43           -4.2112    -8.1569     0.0128 H       
@<TRIPOS>BOND
   1    1    2 1
   2    1    3 am
   3    1    7 1
   4    2    6 2
   5    2   27 1
   6    3    4 1
   7    3   15 2
   8    4    5 2
   9    4   28 1
  10    5    6 1
  11    5   29 1
  12    6   16 1
  13    7    8 1
  14    7   30 1
  15    7   31 1
  16    8    9 ar
  17    8   10 ar
  18    9   13 ar
  19    9   32 1
  20   10   11 ar
  21   10   24 1
  22   11   12 ar
  23   11   33 1
  24   12   13 ar
  25   12   14 1
  26   13   34 1
  27   16   17 1
  28   16   35 1
  29   16   36 1
  30   17   18 1
  31   18   19 ar
  32   18   20 ar
  33   19   23 ar
  34   19   37 1
  35   20   21 ar
  36   20   38 1
  37   21   22 ar
  38   21   39 1
  39   22   23 ar
  40   22   40 1
  41   23   25 1
  42   25   26 1
  43   26   41 1
  44   26   42 1
  45   26   43 1

#	End of record

