#	Name: ASD03081143
#	Creating user name:	WinNT
#	Creation time:	15. 06. 2019 20:27

#	Modifying user name:	WinNT
#	Modification time:	15. 06. 2019 20:27

#	Program:	/corina/corina34_cracker 3.40 0067  02.08.2006

@<TRIPOS>MOLECULE
ASD03081143
  28   31    0    0    0
SMALL
NO_CHARGES


@<TRIPOS>ATOM
   1 O1            -0.0144     1.2085     0.0087 O.3     
   2 N2             0.0021    -0.0041     0.0020 N.2     
   3 C3             1.2349    -0.4422    -0.0121 C.2     
   4 N4             2.0457     0.6364    -0.0141 N.2     
   5 C5             1.2411     1.6828    -0.0008 C.2     
   6 C6             3.0155    -2.1956    -0.0376 C.ar    
   7 C7             1.6626    -1.8636    -0.0234 C.ar    
   8 C8             0.7149    -2.8901    -0.0194 C.ar    
   9 C9             1.1649    -4.1995    -0.0299 C.ar    
  10 C10            2.5252    -4.4469    -0.0438 C.ar    
  11 N11            3.3965    -3.4564    -0.0472 N.ar    
  12 N12            2.5049     7.1342     0.0165 N.pl3   
  13 N13            1.1835     7.6035     0.0317 N.2     
  14 N14            0.3728     6.6047     0.0341 N.2     
  15 C15            1.0656     5.4413     0.0212 C.ar    
  16 C16            2.4356     5.7623     0.0097 C.ar    
  17 C17            3.3920     4.7504    -0.0053 C.ar    
  18 C18            3.0055     3.4430    -0.0087 C.ar    
  19 C19            1.6453     3.1041     0.0030 C.ar    
  20 C20            0.6761     4.0986     0.0177 C.ar    
  21 H21            3.7587    -1.4119    -0.0453 H       
  22 H22           -0.3420    -2.6679    -0.0081 H       
  23 H23            0.4611    -5.0187    -0.0269 H       
  24 H24            2.8800    -5.4670    -0.0520 H       
  25 H25            3.3111     7.6735     0.0081 H       
  26 H26            4.4423     5.0019    -0.0140 H       
  27 H27            3.7524     2.6630    -0.0211 H       
  28 H28           -0.3715     3.8365     0.0263 H       
@<TRIPOS>BOND
   1    1    2 1
   2    1    5 1
   3    2    3 2
   4    3    4 1
   5    3    7 1
   6    4    5 2
   7    5   19 1
   8    6    7 ar
   9    6   11 ar
  10    6   21 1
  11    7    8 ar
  12    8    9 ar
  13    8   22 1
  14    9   10 ar
  15    9   23 1
  16   10   11 ar
  17   10   24 1
  18   12   13 1
  19   12   16 1
  20   12   25 1
  21   13   14 2
  22   14   15 1
  23   15   16 ar
  24   15   20 ar
  25   16   17 ar
  26   17   18 ar
  27   17   26 1
  28   18   19 ar
  29   18   27 1
  30   19   20 ar
  31   20   28 1

#	End of record

