#	Name: ASD01811188
#	Creating user name:	WinNT
#	Creation time:	15. 06. 2019 19:26

#	Modifying user name:	WinNT
#	Modification time:	15. 06. 2019 19:26

#	Program:	/corina/corina34_cracker 3.40 0067  02.08.2006

@<TRIPOS>MOLECULE
ASD01811188
  63   67    0    0    0
SMALL
NO_CHARGES


@<TRIPOS>ATOM
   1 C1            -7.9887     2.1103     2.4033 C.1     
   2 C2            -6.8241     2.9142     2.1835 C.ar    
   3 C3            -5.5748     2.4745     2.6258 C.ar    
   4 C4            -4.4571     3.2540     2.4108 C.ar    
   5 C5            -4.5721     4.4690     1.7589 C.ar    
   6 C6            -5.8070     4.9109     1.3184 C.ar    
   7 C7            -6.9319     4.1385     1.5208 C.ar    
   8 N8            -8.9125     1.4726     2.5777 N.1     
   9 N9            -1.9117     7.7526     1.5126 N.am    
  10 C10           -2.4024     7.2293     0.2304 C.3     
  11 C11           -3.6599     6.3931     0.4879 C.3     
  12 C12           -3.3466     5.3152     1.5281 C.3     
  13 C13           -2.9299     5.9784     2.8429 C.3     
  14 C14           -1.6642     6.8099     2.6121 C.3     
  15 F15           -2.3034     4.5075     1.0627 F       
  16 C16           -1.6874     9.0716     1.6753 C.2     
  17 C17           -1.2784     9.5945     2.9966 C.ar    
  18 C18           -2.0197    10.6080     3.6084 C.ar    
  19 C19           -1.6391    11.0972     4.8419 C.ar    
  20 C20           -0.5246    10.5886     5.4795 C.ar    
  21 C21            0.2251     9.5750     4.8793 C.ar    
  22 C22           -0.1561     9.0734     3.6367 C.ar    
  23 O23           -1.8214     9.8313     0.7360 O.2     
  24 C24           -3.2374    11.1690     2.9202 C.3     
  25 N25            2.9008     8.6778     7.0467 N.2     
  26 N26            1.8316     9.3359     6.7719 N.2     
  27 C27            1.4187     9.0320     5.5633 C.2     
  28 N28            2.3049     8.1135     5.0543 N.pl3   
  29 C29            3.2339     7.9159     6.0322 C.2     
  30 O30            4.3031     7.0863     5.9682 O.3     
  31 C31            5.1527     7.0332     7.1160 C.3     
  32 C32           -0.1164    11.1291     6.8257 C.3     
  33 C33            0.0928    12.6526     6.8401 C.3     
  34 C34           -0.5903    12.6543     8.2179 C.3     
  35 C35           -1.2992    11.3615     7.7806 C.3     
  36 H36           -5.4838     1.5267     3.1354 H       
  37 H37           -3.4902     2.9152     2.7523 H       
  38 H38           -5.8897     5.8605     0.8106 H       
  39 H39           -7.8945     4.4824     1.1722 H       
  40 H40           -2.6449     8.0588    -0.4340 H       
  41 H41           -1.6353     6.6044    -0.2269 H       
  42 H42           -4.4556     7.0381     0.8606 H       
  43 H43           -3.9790     5.9205    -0.4410 H       
  44 H44           -3.7326     6.6273     3.1934 H       
  45 H45           -2.7296     5.2106     3.5902 H       
  46 H46           -0.8369     6.1508     2.3490 H       
  47 H47           -1.4196     7.3626     3.5192 H       
  48 H48           -2.2154    11.8814     5.3103 H       
  49 H49            0.4180     8.2866     3.1701 H       
  50 H50           -4.1012    10.5424     3.1421 H       
  51 H51           -3.4221    12.1822     3.2772 H       
  52 H52           -3.0695    11.1883     1.8433 H       
  53 H53            2.2757     7.6933     4.1805 H       
  54 H54            4.5762     6.7018     7.9797 H       
  55 H55            5.9676     6.3329     6.9327 H       
  56 H56            5.5623     8.0243     7.3111 H       
  57 H57            0.7056    10.5713     7.2742 H       
  58 H58            1.1412    12.9491     6.8722 H       
  59 H59           -0.4735    13.1784     6.0714 H       
  60 H60            0.1014    12.5134     9.0484 H       
  61 H61           -1.2682    13.4945     8.3681 H       
  62 H62           -2.2460    11.5343     7.2690 H       
  63 H63           -1.3745    10.6157     8.5719 H       
@<TRIPOS>BOND
   1    1    2 1
   2    1    8 3
   3    2    3 ar
   4    2    7 ar
   5    3    4 ar
   6    3   36 1
   7    4    5 ar
   8    4   37 1
   9    5    6 ar
  10    5   12 1
  11    6    7 ar
  12    6   38 1
  13    7   39 1
  14    9   10 1
  15    9   14 1
  16    9   16 am
  17   10   11 1
  18   10   40 1
  19   10   41 1
  20   11   12 1
  21   11   42 1
  22   11   43 1
  23   12   13 1
  24   12   15 1
  25   13   14 1
  26   13   44 1
  27   13   45 1
  28   14   46 1
  29   14   47 1
  30   16   17 1
  31   16   23 2
  32   17   18 ar
  33   17   22 ar
  34   18   19 ar
  35   18   24 1
  36   19   20 ar
  37   19   48 1
  38   20   21 ar
  39   20   32 1
  40   21   22 ar
  41   21   27 1
  42   22   49 1
  43   24   50 1
  44   24   51 1
  45   24   52 1
  46   25   26 1
  47   25   29 2
  48   26   27 2
  49   27   28 1
  50   28   29 1
  51   28   53 1
  52   29   30 1
  53   30   31 1
  54   31   54 1
  55   31   55 1
  56   31   56 1
  57   32   33 1
  58   32   35 1
  59   32   57 1
  60   33   34 1
  61   33   58 1
  62   33   59 1
  63   34   35 1
  64   34   60 1
  65   34   61 1
  66   35   62 1
  67   35   63 1

#	End of record

