#	Name: ASD04590404
#	Creating user name:	WinNT
#	Creation time:	15. 06. 2019 20:50

#	Modifying user name:	WinNT
#	Modification time:	15. 06. 2019 20:50

#	Program:	/corina/corina34_cracker 3.40 0067  02.08.2006

@<TRIPOS>MOLECULE
ASD04590404
  63   67    0    0    0
SMALL
NO_CHARGES


@<TRIPOS>ATOM
   1 C1            -0.0167     1.3834     0.0096 C.ar    
   2 C2             0.0021    -0.0041     0.0020 C.ar    
   3 C3             2.3948     0.0191    -0.0202 C.ar    
   4 C4             2.3756     1.4249    -0.0129 C.ar    
   5 C5             1.1624     2.0987     0.0022 C.ar    
   6 N6             3.6952    -0.3636    -0.0355 N.2     
   7 C7             4.4664     0.6966    -0.0381 C.2     
   8 N8             3.6970     1.8290    -0.0245 N.pl3   
   9 C9             5.9437     0.6731    -0.0530 C.2     
  10 C10            6.7565    -0.4839    -0.0671 C.2     
  11 C11            8.0502    -0.0800    -0.0779 C.2     
  12 N12            8.0625     1.2788    -0.0709 N.pl3   
  13 N13            6.7358     1.7272    -0.0611 N.2     
  14 N14            6.3041    -1.8139    -0.0692 N.am    
  15 C15            7.1920    -2.8277    -0.0834 C.2     
  16 O16            8.3818    -2.5918    -0.0944 O.2     
  17 C17            6.7067    -4.2544    -0.0856 C.3     
  18 C18            1.1863    -0.6848    -0.0125 C.ar    
  19 C19           -1.2971    -0.7677     0.0103 C.3     
  20 C20            5.8452    -4.4980    -1.3268 C.3     
  21 C21            7.9085    -5.2018    -0.1027 C.3     
  22 C22            7.4120    -6.6506    -0.0699 C.3     
  23 N23            6.4687    -6.8525    -1.1782 N.am    
  24 C24            5.3254    -5.9389    -1.3079 C.3     
  25 S25            6.6903    -8.0859    -2.2607 S.o2    
  26 C26            5.7873    -9.4859    -1.5429 C.3     
  27 O27            6.0482    -7.6327    -3.4446 O.2     
  28 O28            8.0901    -8.3288    -2.2335 O.2     
  29 N29           -1.7325    -1.0083    -1.3719 N.3     
  30 C30           -2.8622    -1.9482    -1.4124 C.3     
  31 C31           -3.3212    -2.1239    -2.8623 C.3     
  32 O32           -2.2178    -2.5691    -3.6558 O.3     
  33 C33           -1.1001    -1.6771    -3.6397 C.3     
  34 C34           -0.6185    -1.4969    -2.1976 C.3     
  35 H35           -0.9614     1.9069     0.0169 H       
  36 H36            1.1417     3.1785     0.0079 H       
  37 H37            4.0192     2.7439    -0.0235 H       
  38 H38            8.9173    -0.7238    -0.0896 H       
  39 H39            8.8532     1.8407    -0.0753 H       
  40 H40            5.3526    -2.0025    -0.0604 H       
  41 H41            6.1128    -4.4373     0.8099 H       
  42 H42            1.1893    -1.7648    -0.0176 H       
  43 H43           -1.1546    -1.7218     0.5177 H       
  44 H44           -2.0564    -0.1872     0.5345 H       
  45 H45            5.0022    -3.8071    -1.3259 H       
  46 H46            6.4452    -4.3394    -2.2229 H       
  47 H47            8.4890    -5.0366    -1.0103 H       
  48 H48            8.5340    -5.0117     0.7695 H       
  49 H49            8.2576    -7.3293    -0.1816 H       
  50 H50            6.9090    -6.8432     0.8777 H       
  51 H51            4.6522    -6.0734    -0.4613 H       
  52 H52            4.7942    -6.1479    -2.2365 H       
  53 H53            4.7350    -9.2228    -1.4355 H       
  54 H54            5.8802   -10.3523    -2.1976 H       
  55 H55            6.2041    -9.7237    -0.5642 H       
  56 H56           -2.5486    -2.9117    -1.0106 H       
  57 H57           -3.6848    -1.5545    -0.8153 H       
  58 H58           -4.1211    -2.8632    -2.9038 H       
  59 H59           -3.6850    -1.1711    -3.2469 H       
  60 H60           -0.2936    -2.0932    -4.2434 H       
  61 H61           -1.3993    -0.7112    -4.0468 H       
  62 H62            0.1967    -0.7737    -2.1738 H       
  63 H63           -0.2691    -2.4532    -1.8084 H       
@<TRIPOS>BOND
   1    1    2 ar
   2    1    5 ar
   3    1   35 1
   4    2   18 ar
   5    2   19 1
   6    3    4 ar
   7    3    6 1
   8    3   18 ar
   9    4    5 ar
  10    4    8 1
  11    5   36 1
  12    6    7 2
  13    7    8 1
  14    7    9 1
  15    8   37 1
  16    9   10 1
  17    9   13 2
  18   10   11 2
  19   10   14 1
  20   11   12 1
  21   11   38 1
  22   12   13 1
  23   12   39 1
  24   14   15 am
  25   14   40 1
  26   15   16 2
  27   15   17 1
  28   17   21 1
  29   17   20 1
  30   17   41 1
  31   18   42 1
  32   19   29 1
  33   19   43 1
  34   19   44 1
  35   20   24 1
  36   20   45 1
  37   20   46 1
  38   21   22 1
  39   21   47 1
  40   21   48 1
  41   22   23 1
  42   22   49 1
  43   22   50 1
  44   23   24 1
  45   23   25 am
  46   24   51 1
  47   24   52 1
  48   25   26 1
  49   25   27 2
  50   25   28 2
  51   26   53 1
  52   26   54 1
  53   26   55 1
  54   29   30 1
  55   29   34 1
  56   30   31 1
  57   30   56 1
  58   30   57 1
  59   31   32 1
  60   31   58 1
  61   31   59 1
  62   32   33 1
  63   33   34 1
  64   33   60 1
  65   33   61 1
  66   34   62 1
  67   34   63 1

#	End of record

