#	Name: ASD01917529
#	Creating user name:	WinNT
#	Creation time:	15. 06. 2019 20:09

#	Modifying user name:	WinNT
#	Modification time:	15. 06. 2019 20:09

#	Program:	/corina/corina34_cracker 3.40 0067  02.08.2006

@<TRIPOS>MOLECULE
ASD01917529
  39   41    0    0    0
SMALL
NO_CHARGES


@<TRIPOS>ATOM
   1 C1            -0.0094     1.3760    -0.0543 C.ar    
   2 C2             0.0102    -0.0043    -0.0737 C.ar    
   3 C3             1.2172    -0.6819    -0.1151 C.ar    
   4 C4             2.4109     0.0179    -0.1374 C.ar    
   5 C5             2.4065     1.3967    -0.1185 C.ar    
   6 C6             1.1924     2.0884    -0.0772 C.ar    
   7 C7             1.1805     3.5202    -0.0574 C.1     
   8 C8             1.1707     4.6940    -0.0411 C.1     
   9 C9             1.1587     6.1258    -0.0213 C.ar    
  10 N10           -0.0178     8.1538     0.0444 N.ar    
  11 C11           -0.0509     6.8357     0.0271 C.ar    
  12 C12            2.3565     6.8568    -0.0438 C.ar    
  13 N13            2.3013     8.1741    -0.0239 N.ar    
  14 C14            1.1363     8.8072     0.0168 C.ar    
  15 C15            1.1240    10.2892     0.0373 C.2     
  16 C16            0.4352    12.4153     0.0153 C.3     
  17 N17            0.0425    10.9981    -0.0353 N.2     
  18 N18            2.2598    11.0589     0.1414 N.am    
  19 C19            1.9458    12.3717     0.1348 C.2     
  20 C20            0.0153    13.1347    -1.2681 C.3     
  21 C21           -0.1769    13.0984     1.2399 C.3     
  22 O22            2.7073    13.3125     0.2081 O.2     
  23 C23            3.6209    10.5273     0.2458 C.3     
  24 Cl24          -1.4812    -0.8923    -0.0454 Cl      
  25 H25           -0.9512     1.9037    -0.0261 H       
  26 H26            1.2270    -1.7618    -0.1297 H       
  27 H27            3.3484    -0.5173    -0.1694 H       
  28 H28            3.3391     1.9411    -0.1353 H       
  29 H29           -0.9944     6.3105     0.0494 H       
  30 H30            3.3087     6.3482    -0.0765 H       
  31 H31           -1.0692    13.0937    -1.3694 H       
  32 H32            0.3370    14.1752    -1.2232 H       
  33 H33            0.4791    12.6477    -2.1259 H       
  34 H34            0.1518    12.5859     2.1440 H       
  35 H35            0.1456    14.1390     1.2745 H       
  36 H36           -1.2641    13.0569     1.1736 H       
  37 H37            3.5816     9.4410     0.3261 H       
  38 H38            4.1888    10.8057    -0.6420 H       
  39 H39            4.1052    10.9398     1.1310 H       
@<TRIPOS>BOND
   1    1    2 ar
   2    1    6 ar
   3    1   25 1
   4    2    3 ar
   5    2   24 1
   6    3    4 ar
   7    3   26 1
   8    4    5 ar
   9    4   27 1
  10    5    6 ar
  11    5   28 1
  12    6    7 1
  13    7    8 3
  14    8    9 1
  15    9   12 ar
  16    9   11 ar
  17   10   11 ar
  18   10   14 ar
  19   11   29 1
  20   12   13 ar
  21   12   30 1
  22   13   14 ar
  23   14   15 1
  24   15   18 1
  25   15   17 2
  26   16   17 1
  27   16   19 1
  28   16   20 1
  29   16   21 1
  30   18   19 am
  31   18   23 1
  32   19   22 2
  33   20   31 1
  34   20   32 1
  35   20   33 1
  36   21   34 1
  37   21   35 1
  38   21   36 1
  39   23   37 1
  40   23   38 1
  41   23   39 1

#	End of record

