#	Name: ASD03430859
#	Creating user name:	WinNT
#	Creation time:	15. 06. 2019 20:41

#	Modifying user name:	WinNT
#	Modification time:	15. 06. 2019 20:41

#	Program:	/corina/corina34_cracker 3.40 0067  02.08.2006

@<TRIPOS>MOLECULE
ASD03430859
  35   38    0    0    0
SMALL
NO_CHARGES


@<TRIPOS>ATOM
   1 C1            -0.0167     1.3786     0.0096 C.ar    
   2 C2             0.0021    -0.0041     0.0020 C.ar    
   3 C3             1.1648     2.0900     0.0022 C.ar    
   4 C4             2.3869     1.4236    -0.0137 C.ar    
   5 C5             2.3944     0.0316    -0.0133 C.ar    
   6 C6             1.2114    -0.6749    -0.0092 C.ar    
   7 O7             3.6538     1.9247    -0.0432 O.3     
   8 C8             3.8395    -0.3889    -0.0078 C.3     
   9 C9             4.5801     0.9015     0.3697 C.3     
  10 N10            4.6377    -2.5133     0.2650 N.am    
  11 C11            4.1085    -1.4946     0.9717 C.2     
  12 C12            4.2840    -0.9198    -1.3385 C.ar    
  13 C13            4.3005    -0.3986    -2.6130 C.ar    
  14 C14            4.7850    -1.1556    -3.6649 C.ar    
  15 C15            5.2515    -2.4368    -3.4331 C.ar    
  16 C16            5.2371    -2.9632    -2.1584 C.ar    
  17 C17            4.7528    -2.2078    -1.0932 C.ar    
  18 O18            3.8928    -1.4748     2.1651 O.2     
  19 C19           -1.3336     2.1112     0.0198 C.3     
  20 C20           -1.2913    -0.7775     0.0064 C.3     
  21 H21            1.1418     3.1698     0.0083 H       
  22 H22            1.2285    -1.7547    -0.0147 H       
  23 H23            5.5182     0.9842    -0.1791 H       
  24 H24            4.7539     0.9477     1.4448 H       
  25 H25            4.9074    -3.3598     0.6544 H       
  26 H26            3.9354     0.6020    -2.7916 H       
  27 H27            4.7984    -0.7472    -4.6647 H       
  28 H28            5.6287    -3.0281    -4.2544 H       
  29 H29            5.6030    -3.9646    -1.9855 H       
  30 H30           -1.6463     2.2822     1.0499 H       
  31 H31           -1.2209     3.0683    -0.4894 H       
  32 H32           -2.0862     1.5129    -0.4937 H       
  33 H33           -1.6100    -0.9585    -1.0201 H       
  34 H34           -1.1429    -1.7306     0.5142 H       
  35 H35           -2.0564    -0.2030     0.5285 H       
@<TRIPOS>BOND
   1    1    2 ar
   2    1    3 ar
   3    1   19 1
   4    2    6 ar
   5    2   20 1
   6    3    4 ar
   7    3   21 1
   8    4    5 ar
   9    4    7 1
  10    5    6 ar
  11    5    8 1
  12    6   22 1
  13    7    9 1
  14    8    9 1
  15    8   11 1
  16    8   12 1
  17    9   23 1
  18    9   24 1
  19   10   11 am
  20   10   17 1
  21   10   25 1
  22   11   18 2
  23   12   13 ar
  24   12   17 ar
  25   13   14 ar
  26   13   26 1
  27   14   15 ar
  28   14   27 1
  29   15   16 ar
  30   15   28 1
  31   16   17 ar
  32   16   29 1
  33   19   30 1
  34   19   31 1
  35   19   32 1
  36   20   33 1
  37   20   34 1
  38   20   35 1

#	End of record

