#	Name: ASD01208959
#	Creating user name:	WinNT
#	Creation time:	15. 06. 2019 19:10

#	Modifying user name:	WinNT
#	Modification time:	15. 06. 2019 19:10

#	Program:	/corina/corina34_cracker 3.40 0067  02.08.2006

@<TRIPOS>MOLECULE
ASD01208959
  55   58    0    0    0
SMALL
NO_CHARGES


@<TRIPOS>ATOM
   1 C1            -2.2518     1.6185    -0.8793 C.3     
   2 C2            -2.1887     0.0991    -1.0633 C.3     
   3 C3            -1.4287    -0.2166    -2.3552 C.3     
   4 C4            -2.1201     0.4825    -3.5286 C.3     
   5 C5            -2.9114     2.2467    -2.1098 C.3     
   6 C6            -1.4605    -0.5306     0.1259 C.3     
   7 C7            -1.5305    -2.0552     0.0176 C.3     
   8 C8            -0.7065    -2.6752     1.1166 C.2     
   9 N9             0.6325    -2.5222     1.1230 N.am    
  10 C10            1.4025    -3.1748     2.0802 C.2     
  11 N11           -2.9233    -2.4905     0.1466 N.pl3   
  12 N12           -3.7568    -2.2701     1.2508 N.2     
  13 C13           -4.9233    -2.8048     0.9956 C.2     
  14 C14           -4.8703    -3.3820    -0.2773 C.2     
  15 C15           -3.6319    -3.1696    -0.7796 C.2     
  16 O16           -1.2484    -3.3119     1.9952 O.2     
  17 O17           -2.1728     1.8886    -3.2795 O.3     
  18 N18            2.6940    -3.1028     2.1837 N.2     
  19 C19            3.2565    -3.7926     3.1584 C.2     
  20 C20            2.4216    -4.4907     3.9313 C.2     
  21 S21            0.7792    -4.2249     3.3499 S.3     
  22 S22           -6.1861    -4.2294    -1.0869 S.o2    
  23 C23           -7.0625    -2.9331    -2.0045 C.3     
  24 O24           -5.5320    -5.1185    -1.9819 O.2     
  25 O25           -6.9924    -4.7207    -0.0250 O.2     
  26 C26           -8.3479    -3.3296    -2.7335 C.3     
  27 C27           -8.4199    -2.4794    -1.4636 C.3     
  28 C28           -3.1305    -3.6198    -2.1276 C.3     
  29 C29           -6.1176    -2.8000     1.9147 C.3     
  30 F30            2.7744    -5.2644     4.9811 F       
  31 H31           -2.8386     1.8539     0.0086 H       
  32 H32           -1.2425     2.0138    -0.7654 H       
  33 H33           -3.1999    -0.3027    -1.1276 H       
  34 H34           -0.4027     0.1416    -2.2710 H       
  35 H35           -1.4268    -1.2937    -2.5227 H       
  36 H36           -1.5590     0.2963    -4.4444 H       
  37 H37           -3.1329     0.0944    -3.6374 H       
  38 H38           -3.9345     1.8817    -2.1999 H       
  39 H39           -2.9204     3.3315    -2.0034 H       
  40 H40           -0.4176    -0.2136     0.1226 H       
  41 H41           -1.9348    -0.2101     1.0535 H       
  42 H42           -1.1399    -2.3689    -0.9505 H       
  43 H43            1.0593    -1.9570     0.4603 H       
  44 H44            4.3243    -3.7925     3.3201 H       
  45 H45           -6.4299    -2.1795    -2.4735 H       
  46 H46           -8.5611    -2.8366    -3.6820 H       
  47 H47           -8.6669    -4.3694    -2.6618 H       
  48 H48           -8.7863    -2.9598    -0.5564 H       
  49 H49           -8.6805    -1.4270    -1.5766 H       
  50 H50           -3.3294    -2.8440    -2.8669 H       
  51 H51           -2.0575    -3.8035    -2.0733 H       
  52 H52           -3.6421    -4.5377    -2.4174 H       
  53 H53           -6.7212    -1.9132     1.7215 H       
  54 H54           -6.7166    -3.6931     1.7366 H       
  55 H55           -5.7788    -2.7904     2.9506 H       
@<TRIPOS>BOND
   1    1    2 1
   2    1    5 1
   3    1   31 1
   4    1   32 1
   5    2    3 1
   6    2    6 1
   7    2   33 1
   8    3    4 1
   9    3   34 1
  10    3   35 1
  11    4   17 1
  12    4   36 1
  13    4   37 1
  14    5   17 1
  15    5   38 1
  16    5   39 1
  17    6    7 1
  18    6   40 1
  19    6   41 1
  20    7    8 1
  21    7   11 1
  22    7   42 1
  23    8    9 am
  24    8   16 2
  25    9   10 1
  26    9   43 1
  27   10   18 2
  28   10   21 1
  29   11   12 1
  30   11   15 1
  31   12   13 2
  32   13   14 1
  33   13   29 1
  34   14   15 2
  35   14   22 1
  36   15   28 1
  37   18   19 1
  38   19   20 2
  39   19   44 1
  40   20   21 1
  41   20   30 1
  42   22   23 1
  43   22   24 2
  44   22   25 2
  45   23   26 1
  46   23   27 1
  47   23   45 1
  48   26   27 1
  49   26   46 1
  50   26   47 1
  51   27   48 1
  52   27   49 1
  53   28   50 1
  54   28   51 1
  55   28   52 1
  56   29   53 1
  57   29   54 1
  58   29   55 1

#	End of record

