#	Name: ASD03430798
#	Creating user name:	WinNT
#	Creation time:	15. 06. 2019 20:41

#	Modifying user name:	WinNT
#	Modification time:	15. 06. 2019 20:41

#	Program:	/corina/corina34_cracker 3.40 0067  02.08.2006

@<TRIPOS>MOLECULE
ASD03430798
  43   47    0    0    0
SMALL
NO_CHARGES


@<TRIPOS>ATOM
   1 O1            -0.0173     1.4276     0.0099 O.3     
   2 C2             0.0021    -0.0041     0.0020 C.3     
   3 C3             1.0293    -0.4762     1.0398 C.3     
   4 O4             2.3089     0.0539     0.6779 O.3     
   5 C5             2.3526     1.3722     0.3403 C.ar    
   6 C6             1.1906     2.0559     0.0017 C.ar    
   7 C7             3.5697     2.0328     0.3391 C.ar    
   8 C8             3.6417     3.3787    -0.0059 C.ar    
   9 C9             2.4743     4.0481    -0.3602 C.ar    
  10 C10            1.2601     3.3946    -0.3514 C.ar    
  11 O11            4.7207     4.2118    -0.0481 O.3     
  12 C12            2.8759     5.4557    -0.7110 C.3     
  13 C13            4.4012     5.3621    -0.8542 C.3     
  14 N14            1.5438     7.0516    -1.6614 N.am    
  15 C15            2.2254     5.9328    -1.9779 C.2     
  16 C16            2.4714     6.4458     0.3405 C.ar    
  17 C17            2.7371     6.5647     1.6920 C.ar    
  18 C18            2.2046     7.6232     2.4139 C.ar    
  19 C19            1.4054     8.5593     1.7742 C.ar    
  20 C20            1.1379     8.4396     0.4210 C.ar    
  21 C21            1.6690     7.3796    -0.3092 C.ar    
  22 O22            2.2995     5.4134    -3.0715 O.2     
  23 O23            0.8828     9.5974     2.4784 O.3     
  24 C24            1.1979     9.6608     3.8707 C.3     
  25 O25            3.5204     5.6445     2.3137 O.3     
  26 C26            3.7533     5.8291     3.7115 C.3     
  27 H27           -0.9851    -0.3865     0.2615 H       
  28 H28            0.2874    -0.3624    -0.9871 H       
  29 H29            0.7471    -0.1128     2.0280 H       
  30 H30            1.0712    -1.5654     1.0463 H       
  31 H31            4.4694     1.4995     0.6082 H       
  32 H32            0.3602     3.9276    -0.6206 H       
  33 H33            4.8826     6.2570    -0.4596 H       
  34 H34            4.6829     5.1964    -1.8940 H       
  35 H35            1.0268     7.5692    -2.2984 H       
  36 H36            2.4112     7.7178     3.4697 H       
  37 H37            0.5144     9.1718    -0.0704 H       
  38 H38            2.2781     9.7365     3.9957 H       
  39 H39            0.7189    10.5348     4.3122 H       
  40 H40            0.8371     8.7596     4.3664 H       
  41 H41            4.2433     6.7890     3.8745 H       
  42 H42            2.8023     5.8116     4.2437 H       
  43 H43            4.3921     5.0275     4.0823 H       
@<TRIPOS>BOND
   1    1    2 1
   2    1    6 1
   3    2    3 1
   4    2   27 1
   5    2   28 1
   6    3    4 1
   7    3   29 1
   8    3   30 1
   9    4    5 1
  10    5    6 ar
  11    5    7 ar
  12    6   10 ar
  13    7    8 ar
  14    7   31 1
  15    8    9 ar
  16    8   11 1
  17    9   10 ar
  18    9   12 1
  19   10   32 1
  20   11   13 1
  21   12   13 1
  22   12   15 1
  23   12   16 1
  24   13   33 1
  25   13   34 1
  26   14   15 am
  27   14   21 1
  28   14   35 1
  29   15   22 2
  30   16   17 ar
  31   16   21 ar
  32   17   18 ar
  33   17   25 1
  34   18   19 ar
  35   18   36 1
  36   19   20 ar
  37   19   23 1
  38   20   21 ar
  39   20   37 1
  40   23   24 1
  41   24   38 1
  42   24   39 1
  43   24   40 1
  44   25   26 1
  45   26   41 1
  46   26   42 1
  47   26   43 1

#	End of record

