#	Name: ASD01900143
#	Creating user name:	WinNT
#	Creation time:	15. 06. 2019 19:51

#	Modifying user name:	WinNT
#	Modification time:	15. 06. 2019 19:51

#	Program:	/corina/corina34_cracker 3.40 0067  02.08.2006

@<TRIPOS>MOLECULE
ASD01900143
  40   42    0    0    0
SMALL
NO_CHARGES


@<TRIPOS>ATOM
   1 C1            -0.0837     1.2230     0.5377 C.2     
   2 N2             0.0056     0.0102    -0.0434 N.am    
   3 O3             0.8948     1.7194     1.0627 O.2     
   4 C4             1.2465    -0.6298    -0.1399 C.ar    
   5 C5             1.3248    -2.0118    -0.0307 C.ar    
   6 C6             2.5528    -2.6442    -0.1268 C.ar    
   7 C7             3.7074    -1.8921    -0.3328 C.ar    
   8 C8             3.6248    -0.5113    -0.4413 C.ar    
   9 C9             2.3984     0.1175    -0.3506 C.ar    
  10 N10            4.9520    -2.5300    -0.4300 N.am    
  11 C11            6.0800    -1.8559    -0.1302 C.2     
  12 O12            2.6319    -3.9974    -0.0198 O.3     
  13 C13            1.4080    -4.7042     0.1913 C.3     
  14 C14            7.3979    -2.4867    -0.3495 C.ar    
  15 O15            6.0130    -0.7287     0.3207 O.2     
  16 C16            8.5692    -1.7909    -0.0400 C.ar    
  17 C17            9.7977    -2.3877    -0.2474 C.ar    
  18 C18            9.8689    -3.6698    -0.7604 C.ar    
  19 C19            8.7118    -4.3639    -1.0695 C.ar    
  20 C20            7.4785    -3.7832    -0.8618 C.ar    
  21 Cl21           8.4810    -0.1808     0.6031 Cl      
  22 S22           -1.6446     3.5353     1.2442 S.3     
  23 C23           -1.3641     1.9495     0.5316 C.2     
  24 N24           -2.4763     1.5231    -0.0033 N.2     
  25 C25           -3.5038     2.3243     0.1007 C.2     
  26 C26           -3.2797     3.4807     0.7442 C.2     
  27 H27           -0.7901    -0.4191    -0.3947 H       
  28 H28            0.4287    -2.5930     0.1293 H       
  29 H29            4.5196     0.0719    -0.6010 H       
  30 H30            2.3359     1.1923    -0.4353 H       
  31 H31            5.0014    -3.4565    -0.7129 H       
  32 H32            0.9469    -4.3635     1.1184 H       
  33 H33            0.7310    -4.5153    -0.6419 H       
  34 H34            1.6123    -5.7727     0.2584 H       
  35 H35           10.7044    -1.8516    -0.0088 H       
  36 H36           10.8318    -4.1316    -0.9210 H       
  37 H37            8.7752    -5.3647    -1.4705 H       
  38 H38            6.5770    -4.3265    -1.1036 H       
  39 H39           -4.4720     2.0719    -0.3060 H       
  40 H40           -4.0143     4.2530     0.9187 H       
@<TRIPOS>BOND
   1    1    2 am
   2    1    3 2
   3    1   23 1
   4    2    4 1
   5    2   27 1
   6    4    5 ar
   7    4    9 ar
   8    5    6 ar
   9    5   28 1
  10    6    7 ar
  11    6   12 1
  12    7    8 ar
  13    7   10 1
  14    8    9 ar
  15    8   29 1
  16    9   30 1
  17   10   11 am
  18   10   31 1
  19   11   14 1
  20   11   15 2
  21   12   13 1
  22   13   32 1
  23   13   33 1
  24   13   34 1
  25   14   16 ar
  26   14   20 ar
  27   16   17 ar
  28   16   21 1
  29   17   18 ar
  30   17   35 1
  31   18   19 ar
  32   18   36 1
  33   19   20 ar
  34   19   37 1
  35   20   38 1
  36   22   23 1
  37   22   26 1
  38   23   24 2
  39   24   25 1
  40   25   26 2
  41   25   39 1
  42   26   40 1

#	End of record

