#	Name: ASD01820114
#	Creating user name:	WinNT
#	Creation time:	15. 06. 2019 19:36

#	Modifying user name:	WinNT
#	Modification time:	15. 06. 2019 19:36

#	Program:	/corina/corina34_cracker 3.40 0067  02.08.2006

@<TRIPOS>MOLECULE
ASD01820114
  53   57    0    0    0
SMALL
NO_CHARGES


@<TRIPOS>ATOM
   1 O1             0.0135     1.5311     0.1438 O.3     
   2 C2             0.0390     0.1029     0.1042 C.3     
   3 C3            -0.3902    -0.6238    -1.1719 C.3     
   4 C4            -1.2576    -0.7327     0.0837 C.3     
   5 C5            -0.9938    -1.9065     1.0511 C.3     
   6 N6             0.0648    -1.4069     1.9659 N.3     
   7 C7             0.9688    -0.6239     1.0995 C.3     
   8 C8             0.7320    -2.4573     2.5732 C.ar    
   9 C9             1.4059    -3.3881     1.7801 C.ar    
  10 C10            2.0662    -4.4272     2.3780 C.ar    
  11 C11            2.0371    -4.5130     3.7747 C.ar    
  12 C12            2.7240    -5.6015     4.4872 C.2     
  13 O13            3.3408    -6.4641     3.8863 O.2     
  14 C14            2.6354    -5.6046     5.9574 C.2     
  15 C15            1.9244    -4.6031     6.5822 C.2     
  16 N16            1.3099    -3.6255     5.8957 N.pl3   
  17 C17            0.6094    -2.6476     6.6067 C.ar    
  18 N18            1.2538    -1.5931     7.0783 N.ar    
  19 C19            0.6322    -0.6464     7.7547 C.ar    
  20 C20           -0.7276    -0.7237     7.9970 C.ar    
  21 F21           -1.3542     0.2518     8.6905 F       
  22 C22           -1.4422    -1.8155     7.5187 C.ar    
  23 C23           -0.7609    -2.7898     6.8070 C.ar    
  24 F24           -1.4164    -3.8655     6.3187 F       
  25 C25            1.3414    -3.5453     4.5208 C.ar    
  26 N26            0.7216    -2.5540     3.8927 N.ar    
  27 C27            3.2940    -6.6586     6.7450 C.2     
  28 O28            3.3039    -6.5939     7.9596 O.2     
  29 N29            3.8863    -7.6958     6.1206 N.am    
  30 C30            4.6415    -8.6831     6.8959 C.3     
  31 C31            3.6841    -9.7462     7.4383 C.3     
  32 F32            3.0419   -10.3835     6.3712 F       
  33 F33            4.4053   -10.6891     8.1787 F       
  34 F34            2.7298    -9.1383     8.2609 F       
  35 C35            5.6852    -9.3481     5.9963 C.3     
  36 F36            6.5606    -8.3760     5.5003 F       
  37 F37            6.4064   -10.2909     6.7367 F       
  38 F38            5.0430    -9.9853     4.9292 F       
  39 H39            0.8898     1.9399     0.1534 H       
  40 H40           -0.7692    -0.0155    -1.9931 H       
  41 H41            0.1817    -1.5041    -1.4653 H       
  42 H42           -2.2422    -0.2652     0.0986 H       
  43 H43           -1.8972    -2.1481     1.6110 H       
  44 H44           -0.6408    -2.7795     0.5021 H       
  45 H45            1.6345    -1.3052     0.5697 H       
  46 H46            1.5446     0.0981     1.6784 H       
  47 H47            1.4058    -3.2892     0.7046 H       
  48 H48            2.5950    -5.1612     1.7881 H       
  49 H49            1.8587    -4.6043     7.6602 H       
  50 H50            1.1922     0.1998     8.1245 H       
  51 H51           -2.5045    -1.9004     7.6938 H       
  52 H52            3.8126    -7.7886     5.1579 H       
  53 H53            5.1419    -8.1867     7.7274 H       
@<TRIPOS>BOND
   1    1    2 1
   2    1   39 1
   3    2    4 1
   4    2    7 1
   5    2    3 1
   6    3    4 1
   7    3   40 1
   8    3   41 1
   9    4    5 1
  10    4   42 1
  11    5    6 1
  12    5   43 1
  13    5   44 1
  14    6    7 1
  15    6    8 1
  16    7   45 1
  17    7   46 1
  18    8   26 ar
  19    8    9 ar
  20    9   10 ar
  21    9   47 1
  22   10   11 ar
  23   10   48 1
  24   11   25 ar
  25   11   12 1
  26   12   13 2
  27   12   14 1
  28   14   15 2
  29   14   27 1
  30   15   16 1
  31   15   49 1
  32   16   17 1
  33   16   25 1
  34   17   23 ar
  35   17   18 ar
  36   18   19 ar
  37   19   20 ar
  38   19   50 1
  39   20   21 1
  40   20   22 ar
  41   22   23 ar
  42   22   51 1
  43   23   24 1
  44   25   26 ar
  45   27   28 2
  46   27   29 am
  47   29   30 1
  48   29   52 1
  49   30   31 1
  50   30   35 1
  51   30   53 1
  52   31   32 1
  53   31   33 1
  54   31   34 1
  55   35   36 1
  56   35   37 1
  57   35   38 1

#	End of record

