#	Name: ASD03950088
#	Creating user name:	WinNT
#	Creation time:	15. 06. 2019 20:48

#	Modifying user name:	WinNT
#	Modification time:	15. 06. 2019 20:48

#	Program:	/corina/corina34_cracker 3.40 0067  02.08.2006

@<TRIPOS>MOLECULE
ASD03950088
  66   69    0    0    0
SMALL
NO_CHARGES


@<TRIPOS>ATOM
   1 N1            -0.5203     0.3953     0.1084 N.am    
   2 C2            -0.2807    -1.0481     0.2420 C.3     
   3 C3             0.7217    -1.2785     1.3773 C.3     
   4 C4             1.9835    -0.4536     1.1135 C.3     
   5 C5             1.6249     1.0338     1.0802 C.3     
   6 C6             0.6328     1.2904    -0.0584 C.3     
   7 C7            -1.7745     0.8883     0.1327 C.2     
   8 O8            -2.7201     0.1370     0.2662 O.2     
   9 O9            -1.9795     2.2132     0.0092 O.3     
  10 N10            3.9555    -0.8295     4.1969 N.pl3   
  11 N11            2.8087    -0.4731     3.4803 N.2     
  12 C12            2.9855    -0.7041     2.2110 C.2     
  13 C13            4.3298    -1.2505     2.0426 C.ar    
  14 C14            5.0672    -1.6791     0.9357 C.ar    
  15 C15            6.3575    -2.1605     1.1081 C.ar    
  16 C16            6.9254    -2.2197     2.3821 C.ar    
  17 C17            6.2051    -1.7977     3.4927 C.ar    
  18 C18            4.8961    -1.3073     3.3300 C.ar    
  19 C19            6.8099    -1.8635     4.8366 C.2     
  20 O20            6.1772    -1.4935     5.8068 O.2     
  21 N21            8.0638    -2.3336     4.9891 N.am    
  22 C22            7.1381    -2.6155    -0.0690 C.ar    
  23 C23            8.4343    -3.0998     0.0980 C.ar    
  24 C24            9.1576    -3.5226    -0.9971 C.ar    
  25 C25            8.5952    -3.4659    -2.2666 C.ar    
  26 C26            7.3030    -2.9834    -2.4354 C.ar    
  27 C27            6.5741    -2.5646    -1.3425 C.ar    
  28 N28            9.3310    -3.8948    -3.3760 N.am    
  29 C29           10.1696    -4.9439    -3.2638 C.2     
  30 O30           10.3505    -5.4628    -2.1825 O.2     
  31 C31           10.8827    -5.4722    -4.4818 C.3     
  32 C32           -3.3562     2.6733     0.0443 C.3     
  33 C33           -3.9908     2.2819     1.3803 C.3     
  34 C34           -3.3894     4.1952    -0.1097 C.3     
  35 C35           -4.1390     2.0277    -1.1008 C.3     
  36 H36           -1.2179    -1.5542     0.4736 H       
  37 H37            0.1271    -1.4386    -0.6904 H       
  38 H38            0.2768    -0.9705     2.3235 H       
  39 H39            0.9816    -2.3360     1.4241 H       
  40 H40            2.4141    -0.7449     0.1555 H       
  41 H41            1.1715     1.3201     2.0292 H       
  42 H42            2.5277     1.6221     0.9157 H       
  43 H43            1.1151     1.0906    -1.0153 H       
  44 H44            0.2983     2.3273    -0.0249 H       
  45 H45            4.0666    -0.7465     5.1570 H       
  46 H46            4.6335    -1.6363    -0.0525 H       
  47 H47            7.9302    -2.5960     2.5051 H       
  48 H48            8.5685    -2.6288     4.2152 H       
  49 H49            8.4614    -2.3769     5.8728 H       
  50 H50            8.8719    -3.1437     1.0844 H       
  51 H51           10.1622    -3.8976    -0.8682 H       
  52 H52            6.8680    -2.9399    -3.4230 H       
  53 H53            5.5684    -2.1934    -1.4737 H       
  54 H54            9.2377    -3.4373    -4.2262 H       
  55 H55           10.5969    -4.8839    -5.3538 H       
  56 H56           11.9599    -5.4000    -4.3320 H       
  57 H57           10.6069    -6.5147    -4.6406 H       
  58 H58           -3.4331     2.7419     2.1961 H       
  59 H59           -5.0243     2.6273     1.4066 H       
  60 H60           -3.9672     1.1977     1.4900 H       
  61 H61           -2.9372     4.4741    -1.0614 H       
  62 H62           -4.4229     4.5406    -0.0833 H       
  63 H63           -2.8317     4.6552     0.7061 H       
  64 H64           -4.1154     0.9435    -0.9911 H       
  65 H65           -5.1725     2.3731    -1.0745 H       
  66 H66           -3.6869     2.3066    -2.0526 H       
@<TRIPOS>BOND
   1    1    2 1
   2    1    6 1
   3    1    7 am
   4    2    3 1
   5    2   36 1
   6    2   37 1
   7    3    4 1
   8    3   38 1
   9    3   39 1
  10    4    5 1
  11    4   12 1
  12    4   40 1
  13    5    6 1
  14    5   41 1
  15    5   42 1
  16    6   43 1
  17    6   44 1
  18    7    8 2
  19    7    9 1
  20    9   32 1
  21   10   11 1
  22   10   18 1
  23   10   45 1
  24   11   12 2
  25   12   13 1
  26   13   14 ar
  27   13   18 ar
  28   14   15 ar
  29   14   46 1
  30   15   16 ar
  31   15   22 1
  32   16   17 ar
  33   16   47 1
  34   17   18 ar
  35   17   19 1
  36   19   20 2
  37   19   21 am
  38   21   48 1
  39   21   49 1
  40   22   23 ar
  41   22   27 ar
  42   23   24 ar
  43   23   50 1
  44   24   25 ar
  45   24   51 1
  46   25   26 ar
  47   25   28 1
  48   26   27 ar
  49   26   52 1
  50   27   53 1
  51   28   29 am
  52   28   54 1
  53   29   30 2
  54   29   31 1
  55   31   55 1
  56   31   56 1
  57   31   57 1
  58   32   33 1
  59   32   34 1
  60   32   35 1
  61   33   58 1
  62   33   59 1
  63   33   60 1
  64   34   61 1
  65   34   62 1
  66   34   63 1
  67   35   64 1
  68   35   65 1
  69   35   66 1

#	End of record

