#	Name: ASD01820046
#	Creating user name:	WinNT
#	Creation time:	15. 06. 2019 19:36

#	Modifying user name:	WinNT
#	Modification time:	15. 06. 2019 19:36

#	Program:	/corina/corina34_cracker 3.40 0067  02.08.2006

@<TRIPOS>MOLECULE
ASD01820046
  96   99    0    0    0
SMALL
NO_CHARGES


@<TRIPOS>ATOM
   1 N1            -1.7663    -3.2455     1.4515 N.am    
   2 C2            -1.7822    -4.5131     2.1858 C.3     
   3 C3            -0.8474    -5.5115     1.5001 C.3     
   4 C4            -0.7439    -6.7797     2.3497 C.3     
   5 N5             0.3897    -6.6575     3.2760 N.4     
   6 C6             0.4016    -7.8075     4.1898 C.3     
   7 C7             1.5823    -7.6803     5.1545 C.3     
   8 C8             1.5946    -8.8781     6.1063 C.3     
   9 C9             2.7753    -8.7508     7.0710 C.3     
  10 C10            2.7877    -9.9487     8.0228 C.3     
  11 C11            3.9683    -9.8214     8.9875 C.3     
  12 C12            1.6444    -6.6256     2.5127 C.3     
  13 C13            0.2567    -5.4170     4.0517 C.3     
  14 N14            3.9802   -10.9714     9.9014 N.4     
  15 C15            5.1138   -10.8492    10.8276 C.3     
  16 C16            5.1866   -12.0957    11.7119 C.3     
  17 C17            5.9952   -13.1808    10.9982 C.3     
  18 N18            5.9575   -14.4155    11.7859 N.am    
  19 C19            2.7255   -11.0033    10.6646 C.3     
  20 C20            4.1132   -12.2119     9.1257 C.3     
  21 C21            5.0267   -15.3772    11.6496 C.2     
  22 C22            5.3223   -16.4586    12.6130 C.ar    
  23 C23            6.4801   -16.0518    13.3062 C.ar    
  24 C24            6.8523   -14.7395    12.7367 C.2     
  25 C25            4.7255   -17.6709    12.9201 C.ar    
  26 C26            5.2721   -18.4752    13.9079 C.ar    
  27 C27            6.4076   -18.0762    14.5878 C.ar    
  28 C28            7.0154   -16.8662    14.2912 C.ar    
  29 O29            7.8023   -14.0632    13.0760 O.2     
  30 O30            4.0989   -15.3598    10.8662 O.2     
  31 C31           -2.6222    -2.9273     0.4636 C.2     
  32 C32           -2.2917    -1.5730    -0.0279 C.ar    
  33 C33           -1.1936    -1.1404     0.7427 C.ar    
  34 C34           -0.8977    -2.2441     1.6803 C.2     
  35 C35           -2.8157    -0.7442    -1.0069 C.ar    
  36 C36           -2.2555     0.5054    -1.2214 C.ar    
  37 C37           -1.1787     0.9297    -0.4657 C.ar    
  38 C38           -0.6440     0.1114     0.5171 C.ar    
  39 O39           -3.5167    -3.6345     0.0455 O.2     
  40 O40           -0.0132    -2.2493     2.5125 O.2     
  41 C41           -1.4040    -5.8662     0.1199 C.3     
  42 C42            5.8653   -11.7421    13.0368 C.3     
  43 C43           -2.7514    -6.5732     0.2796 C.3     
  44 C44            4.9590   -10.8076    13.8406 C.3     
  45 H45           -1.4464    -4.3445     3.2090 H       
  46 H46           -2.7959    -4.9135     2.1975 H       
  47 H47            0.1415    -5.0664     1.3897 H       
  48 H48           -1.6646    -6.9125     2.9179 H       
  49 H49           -0.5907    -7.6410     1.6996 H       
  50 H50           -0.5295    -7.8312     4.7562 H       
  51 H51            0.5002    -8.7279     3.6143 H       
  52 H52            2.5133    -7.6566     4.5882 H       
  53 H53            1.4836    -6.7599     5.7301 H       
  54 H54            0.6636    -8.9018     6.6727 H       
  55 H55            1.6933    -9.7985     5.5308 H       
  56 H56            3.7063    -8.7271     6.5047 H       
  57 H57            2.6766    -7.8304     7.6466 H       
  58 H58            1.8566    -9.9723     8.5892 H       
  59 H59            2.8863   -10.8690     7.4473 H       
  60 H60            4.8994    -9.7977     8.4212 H       
  61 H61            3.8697    -8.9010     9.5631 H       
  62 H62            2.1846    -5.7064     2.7398 H       
  63 H63            2.2577    -7.4843     2.7857 H       
  64 H64            1.4220    -6.6623     1.4463 H       
  65 H65           -0.6743    -5.4407     4.6180 H       
  66 H66            1.0979    -5.3264     4.7389 H       
  67 H67            0.2479    -4.5637     3.3736 H       
  68 H68            6.0388   -10.7526    10.2591 H       
  69 H69            4.9782    -9.9671    11.4534 H       
  70 H70            4.1787   -12.4624    11.9065 H       
  71 H71            5.5663   -13.3650    10.0133 H       
  72 H72            7.0284   -12.8512    10.8887 H       
  73 H73            1.8876   -11.1392     9.9808 H       
  74 H74            2.7529   -11.8301    11.3745 H       
  75 H75            2.6049   -10.0644    11.2049 H       
  76 H76            5.0842   -12.2285     8.6307 H       
  77 H77            4.0314   -13.0689     9.7942 H       
  78 H78            3.3227   -12.2585     8.3767 H       
  79 H79            3.8380   -17.9875    12.3924 H       
  80 H80            4.8075   -19.4200    14.1482 H       
  81 H81            6.8241   -18.7116    15.3553 H       
  82 H82            7.9023   -16.5595    14.8256 H       
  83 H83           -3.6567    -1.0706    -1.6006 H       
  84 H84           -2.6631     1.1519    -1.9845 H       
  85 H85           -0.7510     1.9055    -0.6422 H       
  86 H86            0.1974     0.4481     1.1045 H       
  87 H87           -1.5386    -4.9550    -0.4628 H       
  88 H88           -0.7059    -6.5266    -0.3946 H       
  89 H89            6.0452   -12.6533    13.6074 H       
  90 H90            6.8146   -11.2449    12.8374 H       
  91 H91           -2.6323    -7.4395     0.9304 H       
  92 H92           -3.4730    -5.8848     0.7195 H       
  93 H93           -3.1088    -6.8991    -0.6972 H       
  94 H94            4.7252    -9.9260    13.2437 H       
  95 H95            4.0363   -11.3280    14.0970 H       
  96 H96            5.4700   -10.5028    14.7539 H       
@<TRIPOS>BOND
   1    1    2 1
   2    1   31 am
   3    1   34 am
   4    2    3 1
   5    2   45 1
   6    2   46 1
   7    3    4 1
   8    3   41 1
   9    3   47 1
  10    4    5 1
  11    4   48 1
  12    4   49 1
  13    5    6 1
  14    5   12 1
  15    5   13 1
  16    6    7 1
  17    6   50 1
  18    6   51 1
  19    7    8 1
  20    7   52 1
  21    7   53 1
  22    8    9 1
  23    8   54 1
  24    8   55 1
  25    9   10 1
  26    9   56 1
  27    9   57 1
  28   10   11 1
  29   10   58 1
  30   10   59 1
  31   11   14 1
  32   11   60 1
  33   11   61 1
  34   12   62 1
  35   12   63 1
  36   12   64 1
  37   13   65 1
  38   13   66 1
  39   13   67 1
  40   14   15 1
  41   14   19 1
  42   14   20 1
  43   15   16 1
  44   15   68 1
  45   15   69 1
  46   16   17 1
  47   16   42 1
  48   16   70 1
  49   17   18 1
  50   17   71 1
  51   17   72 1
  52   18   21 am
  53   18   24 am
  54   19   73 1
  55   19   74 1
  56   19   75 1
  57   20   76 1
  58   20   77 1
  59   20   78 1
  60   21   22 1
  61   21   30 2
  62   22   23 ar
  63   22   25 ar
  64   23   24 1
  65   23   28 ar
  66   24   29 2
  67   25   26 ar
  68   25   79 1
  69   26   27 ar
  70   26   80 1
  71   27   28 ar
  72   27   81 1
  73   28   82 1
  74   31   32 1
  75   31   39 2
  76   32   33 ar
  77   32   35 ar
  78   33   34 1
  79   33   38 ar
  80   34   40 2
  81   35   36 ar
  82   35   83 1
  83   36   37 ar
  84   36   84 1
  85   37   38 ar
  86   37   85 1
  87   38   86 1
  88   41   43 1
  89   41   87 1
  90   41   88 1
  91   42   44 1
  92   42   89 1
  93   42   90 1
  94   43   91 1
  95   43   92 1
  96   43   93 1
  97   44   94 1
  98   44   95 1
  99   44   96 1

#	End of record

