#	Name: ASD05430106
#	Creating user name:	WinNT
#	Creation time:	15. 06. 2019 20:59

#	Modifying user name:	WinNT
#	Modification time:	15. 06. 2019 20:59

#	Program:	/corina/corina34_cracker 3.40 0067  02.08.2006

@<TRIPOS>MOLECULE
ASD05430106
  67   72    0    0    0
SMALL
NO_CHARGES


@<TRIPOS>ATOM
   1 F1            13.1003     0.5182    -1.7524 F       
   2 C2             0.0141     1.5285    -0.0042 C.ar    
   3 C3            -0.0260     0.3515    -0.7510 C.ar    
   4 C4             1.1383    -0.1615    -1.3082 C.ar    
   5 C5             2.3385     0.4902    -1.1258 C.ar    
   6 C6             2.3863     1.6715    -0.3785 C.ar    
   7 C7             1.2144     2.1878     0.1824 C.ar    
   8 C8             4.8365     0.1460    -0.0516 C.3     
   9 C9             4.8127     1.6653    -0.1098 C.2     
  10 C10            3.6678     2.3689    -0.1821 C.2     
  11 C11            5.8513    -0.2782     1.0212 C.3     
  12 C12            7.2650     0.1574     0.6075 C.3     
  13 N13            7.2662     1.5923     0.3407 N.pl3   
  14 C14            6.1440     2.3119    -0.0803 C.2     
  15 C15            9.6258     2.0161    -0.1307 C.ar    
  16 C16           10.0652     0.7540     0.2232 C.ar    
  17 C17           11.2314     0.2500    -0.3207 C.ar    
  18 C18           11.9598     1.0097    -1.2204 C.ar    
  19 C19           11.5187     2.2736    -1.5741 C.ar    
  20 C20           10.3495     2.7733    -1.0329 C.ar    
  21 N21           -1.2440    -0.3157    -0.9392 N.pl3   
  22 C22           -1.7593    -0.7500    -2.1331 C.2     
  23 C23           -2.9408    -1.3348    -1.8583 C.2     
  24 N24           -3.1462    -1.2624    -0.5348 N.2     
  25 C25           -2.1342    -0.6595     0.0275 C.2     
  26 C26           -3.8714    -1.9622    -2.8640 C.3     
  27 C27           -1.0134     3.2396     1.2883 C.3     
  28 O28           -1.1283     2.0305     0.5354 O.3     
  29 N29            6.4737     3.5099    -0.4241 N.2     
  30 C30            8.3536     2.5643     0.4627 C.3     
  31 O31            7.8785     3.6908    -0.3037 O.3     
  32 C32            8.5673     2.9544     1.9266 C.3     
  33 C33            5.4887     0.4253     2.3412 C.3     
  34 S34            5.2389    -0.9200     3.5589 S.o2    
  35 C35            6.1873    -2.1813     2.6162 C.3     
  36 C36            5.8207    -1.8042     1.1579 C.3     
  37 O37            5.9264    -0.6076     4.7627 O.2     
  38 O38            3.8656    -1.2832     3.5934 O.2     
  39 H39            1.1028    -1.0735    -1.8855 H       
  40 H40            3.2424     0.0887    -1.5597 H       
  41 H41            1.2468     3.0999     0.7599 H       
  42 H42            3.8466    -0.2274     0.2106 H       
  43 H43            5.1364    -0.2544    -1.0201 H       
  44 H44            3.6891     3.4453    -0.0961 H       
  45 H45            7.9647    -0.0638     1.4135 H       
  46 H46            7.5631    -0.3806    -0.2925 H       
  47 H47            9.4970     0.1618     0.9253 H       
  48 H48           11.5747    -0.7358    -0.0438 H       
  49 H49           12.0861     2.8670    -2.2758 H       
  50 H50           10.0052     3.7592    -1.3087 H       
  51 H51           -1.3050    -0.6432    -3.1071 H       
  52 H52           -2.0264    -0.4603     1.0835 H       
  53 H53           -3.6204    -3.0161    -2.9833 H       
  54 H54           -4.8996    -1.8710    -2.5139 H       
  55 H55           -3.7674    -1.4531    -3.8222 H       
  56 H56           -0.3374     3.0815     2.1287 H       
  57 H57           -0.6196     4.0298     0.6490 H       
  58 H58           -1.9954     3.5299     1.6617 H       
  59 H59            8.8212     2.0667     2.5059 H       
  60 H60            9.3799     3.6776     1.9950 H       
  61 H61            7.6529     3.3969     2.3219 H       
  62 H62            6.3043     1.0750     2.6588 H       
  63 H63            4.5711     1.0014     2.2220 H       
  64 H64            7.2583    -2.0778     2.7905 H       
  65 H65            5.8480    -3.1885     2.8578 H       
  66 H66            4.8219    -2.1729     0.9242 H       
  67 H67            6.5425    -2.2479     0.4722 H       
@<TRIPOS>BOND
   1    1   18 1
   2    2    3 ar
   3    2    7 ar
   4    2   28 1
   5    3    4 ar
   6    3   21 1
   7    4    5 ar
   8    4   39 1
   9    5    6 ar
  10    5   40 1
  11    6    7 ar
  12    6   10 1
  13    7   41 1
  14    8    9 1
  15    8   11 1
  16    8   42 1
  17    8   43 1
  18    9   10 2
  19    9   14 1
  20   10   44 1
  21   11   12 1
  22   11   33 1
  23   11   36 1
  24   12   13 1
  25   12   45 1
  26   12   46 1
  27   13   14 1
  28   13   30 1
  29   14   29 2
  30   15   16 ar
  31   15   30 1
  32   15   20 ar
  33   16   17 ar
  34   16   47 1
  35   17   18 ar
  36   17   48 1
  37   18   19 ar
  38   19   20 ar
  39   19   49 1
  40   20   50 1
  41   21   22 1
  42   21   25 1
  43   22   23 2
  44   22   51 1
  45   23   24 1
  46   23   26 1
  47   24   25 2
  48   25   52 1
  49   26   53 1
  50   26   54 1
  51   26   55 1
  52   27   28 1
  53   27   56 1
  54   27   57 1
  55   27   58 1
  56   29   31 1
  57   30   31 1
  58   30   32 1
  59   32   59 1
  60   32   60 1
  61   32   61 1
  62   33   34 1
  63   33   62 1
  64   33   63 1
  65   34   35 1
  66   34   37 2
  67   34   38 2
  68   35   36 1
  69   35   64 1
  70   35   65 1
  71   36   66 1
  72   36   67 1

#	End of record

