#	Name: ASD03092292
#	Creating user name:	WinNT
#	Creation time:	15. 06. 2019 20:32

#	Modifying user name:	WinNT
#	Modification time:	15. 06. 2019 20:32

#	Program:	/corina/corina34_cracker 3.40 0067  02.08.2006

@<TRIPOS>MOLECULE
ASD03092292
  37   41    0    0    0
SMALL
NO_CHARGES


@<TRIPOS>ATOM
   1 C1            -0.0168     1.3912     0.0097 C.ar    
   2 C2             0.0021    -0.0041     0.0020 C.ar    
   3 C3            -1.1870    -0.7081     0.0095 C.ar    
   4 C4            -2.3961    -0.0317     0.0242 C.ar    
   5 C5            -2.4219     1.3514     0.0319 C.ar    
   6 C6            -1.2404     2.0675     0.0308 C.ar    
   7 F7            -1.2673     3.4182     0.0388 F       
   8 F8            -1.1705    -2.0590     0.0021 F       
   9 C9             1.2507     2.1506     0.0017 C.2     
  10 N10            2.4681     1.6409    -0.0132 N.2     
  11 N11            3.3432     2.5845    -0.0168 N.2     
  12 C12            2.7315     3.7592    -0.0044 C.2     
  13 N13            1.3798     3.5088     0.0022 N.pl3   
  14 C14            3.1861     5.0910    -0.0010 C.2     
  15 C15            2.2771     6.1019     0.0142 C.2     
  16 C16            0.8961     5.8121     0.0263 C.2     
  17 N17            0.4702     4.5677     0.0160 N.2     
  18 C18           -0.0863     6.9233     0.0429 C.ar    
  19 C19            0.3593     8.2493     0.0463 C.ar    
  20 C20           -0.5313     9.2835     0.0615 C.ar    
  21 C21           -1.8999     9.0292     0.0737 C.ar    
  22 C22           -2.3602     7.6986     0.0704 C.ar    
  23 C23           -1.4468     6.6457     0.0492 C.ar    
  24 N24           -3.0108     9.8418     0.0897 N.pl3   
  25 C25           -4.1466     9.0787     0.0966 C.2     
  26 C26           -3.8234     7.7761     0.0855 C.2     
  27 H27            0.9439    -0.5325    -0.0101 H       
  28 H28           -3.3226    -0.5867     0.0293 H       
  29 H29           -3.3677     1.8726     0.0433 H       
  30 H30            4.2441     5.3075    -0.0100 H       
  31 H31            2.6125     7.1285     0.0173 H       
  32 H32            1.4191     8.4569     0.0372 H       
  33 H33           -0.1731    10.3024     0.0643 H       
  34 H34           -1.7942     5.6230     0.0465 H       
  35 H35           -2.9914    10.8116     0.0959 H       
  36 H36           -5.1542     9.4672     0.1087 H       
  37 H37           -4.5111     6.9433     0.0872 H       
@<TRIPOS>BOND
   1    1    2 ar
   2    1    9 1
   3    1    6 ar
   4    2    3 ar
   5    2   27 1
   6    3    4 ar
   7    3    8 1
   8    4    5 ar
   9    4   28 1
  10    5    6 ar
  11    5   29 1
  12    6    7 1
  13    9   10 2
  14    9   13 1
  15   10   11 1
  16   11   12 2
  17   12   13 1
  18   12   14 1
  19   13   17 1
  20   14   15 2
  21   14   30 1
  22   15   16 1
  23   15   31 1
  24   16   17 2
  25   16   18 1
  26   18   19 ar
  27   18   23 ar
  28   19   20 ar
  29   19   32 1
  30   20   21 ar
  31   20   33 1
  32   21   22 ar
  33   21   24 1
  34   22   23 ar
  35   22   26 1
  36   23   34 1
  37   24   25 1
  38   24   35 1
  39   25   26 2
  40   25   36 1
  41   26   37 1

#	End of record

