#	Name: ASD00170344
#	Creating user name:	WinNT
#	Creation time:	15. 06. 2019 18:32

#	Modifying user name:	WinNT
#	Modification time:	15. 06. 2019 18:32

#	Program:	/corina/corina34_cracker 3.40 0067  02.08.2006

@<TRIPOS>MOLECULE
ASD00170344
  35   37    0    0    0
SMALL
NO_CHARGES


@<TRIPOS>ATOM
   1 *1             1.1695     3.9256     0.0736 Du      
   2 C2             3.3036     1.4627    -3.6928 C.ar    
   3 C3             3.3283     0.0778    -3.7072 C.ar    
   4 C4             3.4602    -0.6304    -2.5241 C.ar    
   5 C5             3.5672     0.0403    -1.3241 C.ar    
   6 C6             3.5429     1.4362    -1.3032 C.ar    
   7 C7             3.4103     2.1446    -2.4990 C.ar    
   8 Cl8            3.1930    -0.7736    -5.2140 Cl      
   9 C9             2.6348     4.4593     0.0324 C.2     
  10 C10            3.7509     3.6225    -0.0103 C.2     
  11 C11            3.6568     2.1613    -0.0197 C.2     
  12 O12            3.6722     1.5434     1.0293 O.2     
  13 C13            2.9409     5.7702     0.0289 C.2     
  14 S14            4.6829     5.9864    -0.0229 S.3     
  15 C15            4.9517     4.3021    -0.0426 C.2     
  16 N16            6.1915     3.7048    -0.0844 N.pl3   
  17 C17            1.9839     6.8350     0.0621 C.1     
  18 C18            1.1993     7.7079     0.0893 C.1     
  19 C19            0.2423     8.7727     0.1226 C.ar    
  20 C20            0.6713    10.1035     0.1154 C.ar    
  21 C21           -0.2563    11.1233     0.1476 C.ar    
  22 C22           -1.6088    10.8323     0.1874 C.ar    
  23 C23           -2.0412     9.5176     0.1951 C.ar    
  24 C24           -1.1261     8.4868     0.1565 C.ar    
  25 H25            3.2051     2.0096    -4.6189 H       
  26 H26            3.4788    -1.7101    -2.5416 H       
  27 H27            3.6693    -0.5129    -0.4022 H       
  28 H28            3.3912     3.2244    -2.4891 H       
  29 H29            6.9927     4.2513    -0.1055 H       
  30 H30            6.2639     2.7375    -0.0929 H       
  31 H31            1.7264    10.3322     0.0852 H       
  32 H32            0.0734    12.1517     0.1422 H       
  33 H33           -2.3306    11.6353     0.2128 H       
  34 H34           -3.0983     9.2984     0.2269 H       
  35 H35           -1.4651     7.4614     0.1577 H       
@<TRIPOS>BOND
   1    1    9 1
   2    2    3 ar
   3    2    7 ar
   4    2   25 1
   5    3    4 ar
   6    3    8 1
   7    4    5 ar
   8    4   26 1
   9    5    6 ar
  10    5   27 1
  11    6    7 ar
  12    6   11 1
  13    7   28 1
  14    9   10 1
  15    9   13 2
  16   10   11 1
  17   10   15 2
  18   11   12 2
  19   13   14 1
  20   13   17 1
  21   14   15 1
  22   15   16 1
  23   16   29 1
  24   16   30 1
  25   17   18 3
  26   18   19 1
  27   19   20 ar
  28   19   24 ar
  29   20   21 ar
  30   20   31 1
  31   21   22 ar
  32   21   32 1
  33   22   23 ar
  34   22   33 1
  35   23   24 ar
  36   23   34 1
  37   24   35 1

#	End of record

