#	Name: ASD00461041
#	Creating user name:	WinNT
#	Creation time:	15. 06. 2019 18:36

#	Modifying user name:	WinNT
#	Modification time:	15. 06. 2019 18:36

#	Program:	/corina/corina34_cracker 3.40 0067  02.08.2006

@<TRIPOS>MOLECULE
ASD00461041
  66   69    0    0    0
SMALL
NO_CHARGES


@<TRIPOS>ATOM
   1 C1            -0.1249    -1.8573    -2.1107 C.ar    
   2 C2            -0.7001    -2.7649    -1.2191 C.ar    
   3 C3            -1.8460    -2.4204    -0.5326 C.ar    
   4 C4            -2.4252    -1.1788    -0.7260 C.ar    
   5 C5            -1.8604    -0.2746    -1.6081 C.ar    
   6 C6            -0.7114    -0.6039    -2.2967 C.ar    
   7 C7            -3.6773    -0.8097     0.0271 C.3     
   8 O8            -4.5611    -0.0952    -0.8392 O.3     
   9 C9            -5.4617    -0.9311    -1.5687 C.3     
  10 C10           -6.4300    -0.0596    -2.3710 C.3     
  11 C11           -7.3121    -0.9511    -3.2473 C.3     
  12 N12           -8.1584    -0.1108    -4.1051 N.3     
  13 C13           -9.0211    -0.9346    -4.9625 C.3     
  14 C14           -3.3119     0.0720     1.2229 C.3     
  15 C15           -4.4562     0.5767     2.1042 C.3     
  16 C16           -3.5162    -0.5141     2.6213 C.3     
  17 O17           -7.2521     0.6894    -1.4737 O.3     
  18 C18           -9.8856    -0.0263    -5.8392 C.3     
  19 C19           -8.1532    -1.8267    -5.8524 C.3     
  20 C20           -9.9230    -1.8089    -4.0889 C.3     
  21 C21          -10.7706    -0.8715    -6.7188 C.ar    
  22 C22          -12.0325    -1.2476    -6.2634 C.ar    
  23 C23          -12.8564    -2.0109    -7.0325 C.ar    
  24 C24          -12.4312    -2.4270    -8.3054 C.ar    
  25 C25          -11.1476    -2.0438    -8.7689 C.ar    
  26 C26          -10.3273    -1.2512    -7.9485 C.ar    
  27 C27          -13.2535    -3.2160    -9.1280 C.ar    
  28 C28          -12.8079    -3.6006   -10.3550 C.ar    
  29 C29          -11.5457    -3.2238   -10.8107 C.ar    
  30 C30          -10.7222    -2.4603   -10.0420 C.ar    
  31 C31            1.1022    -2.2193    -2.8494 C.2     
  32 O32            1.6547    -1.3414    -3.7089 O.3     
  33 O33            1.6130    -3.3086    -2.6817 O.2     
  34 H34           -0.2492    -3.7345    -1.0675 H       
  35 H35           -2.2922    -3.1215     0.1571 H       
  36 H36           -2.3178     0.6927    -1.7547 H       
  37 H37           -0.2715     0.1027    -2.9849 H       
  38 H38           -4.1691    -1.7159     0.3806 H       
  39 H39           -4.8962    -1.5674    -2.2494 H       
  40 H40           -6.0244    -1.5533    -0.8727 H       
  41 H41           -5.8642     0.6252    -3.0028 H       
  42 H42           -6.6820    -1.5867    -3.8694 H       
  43 H43           -7.9428    -1.5740    -2.6130 H       
  44 H44           -8.7056     0.5331    -3.5537 H       
  45 H45           -2.4603     0.7360     1.0746 H       
  46 H46           -4.3573     1.5726     2.5361 H       
  47 H47           -5.4693     0.2806     1.8321 H       
  48 H48           -3.9109    -1.5279     2.6894 H       
  49 H49           -2.7989    -0.2359     3.3934 H       
  50 H50           -7.7850     0.1433    -0.8797 H       
  51 H51          -10.5039     0.6092    -5.2052 H       
  52 H52           -9.2431     0.5965    -6.4616 H       
  53 H53           -7.5374    -2.4738    -5.2278 H       
  54 H54           -8.7933    -2.4379    -6.4886 H       
  55 H55           -7.5107    -1.2039    -6.4748 H       
  56 H56          -10.5413    -1.1734    -3.4549 H       
  57 H57          -10.5631    -2.4201    -4.7251 H       
  58 H58           -9.3071    -2.4559    -3.4643 H       
  59 H59          -12.3618    -0.9292    -5.2853 H       
  60 H60          -13.8317    -2.2955    -6.6661 H       
  61 H61           -9.3469    -0.9517    -8.2885 H       
  62 H62          -14.2337    -3.5159    -8.7879 H       
  63 H63          -13.4416    -4.2072   -10.9849 H       
  64 H64          -11.2164    -3.5425   -11.7887 H       
  65 H65           -9.7470    -2.1757   -10.4085 H       
  66 H66            2.4571    -1.6233    -4.1691 H       
@<TRIPOS>BOND
   1    1    2 ar
   2    1   31 1
   3    1    6 ar
   4    2    3 ar
   5    2   34 1
   6    3    4 ar
   7    3   35 1
   8    4    5 ar
   9    4    7 1
  10    5    6 ar
  11    5   36 1
  12    6   37 1
  13    7    8 1
  14    7   14 1
  15    7   38 1
  16    8    9 1
  17    9   10 1
  18    9   39 1
  19    9   40 1
  20   10   11 1
  21   10   17 1
  22   10   41 1
  23   11   12 1
  24   11   42 1
  25   11   43 1
  26   12   13 1
  27   12   44 1
  28   13   18 1
  29   13   19 1
  30   13   20 1
  31   14   15 1
  32   14   16 1
  33   14   45 1
  34   15   16 1
  35   15   46 1
  36   15   47 1
  37   16   48 1
  38   16   49 1
  39   17   50 1
  40   18   21 1
  41   18   51 1
  42   18   52 1
  43   19   53 1
  44   19   54 1
  45   19   55 1
  46   20   56 1
  47   20   57 1
  48   20   58 1
  49   21   22 ar
  50   21   26 ar
  51   22   23 ar
  52   22   59 1
  53   23   24 ar
  54   23   60 1
  55   24   25 ar
  56   24   27 ar
  57   25   26 ar
  58   25   30 ar
  59   26   61 1
  60   27   28 ar
  61   27   62 1
  62   28   29 ar
  63   28   63 1
  64   29   30 ar
  65   29   64 1
  66   30   65 1
  67   31   32 1
  68   31   33 2
  69   32   66 1

#	End of record

