#	Name: ASD00069173
#	Creating user name:	WinNT
#	Creation time:	15. 06. 2019 18:29

#	Modifying user name:	WinNT
#	Modification time:	15. 06. 2019 18:29

#	Program:	/corina/corina34_cracker 3.40 0067  02.08.2006

@<TRIPOS>MOLECULE
ASD00069173
  71   75    0    0    0
SMALL
NO_CHARGES


@<TRIPOS>ATOM
   1 C1            -0.0162     1.3058     0.0437 C.2     
   2 N2            -0.0002    -0.0077     0.0318 N.2     
   3 C3             1.2712    -0.4298     0.0344 C.2     
   4 C4             2.0845     0.6819     0.0487 C.2     
   5 N5             1.2729     1.7619     0.0545 N.pl3   
   6 C6            -1.2254     2.1497     0.0398 C.2     
   7 O7            -1.1214     3.3614     0.0515 O.2     
   8 N8            -2.4459     1.5783     0.0232 N.am    
   9 C9             3.4330    -3.3946     0.0199 C.ar    
  10 N10            3.0230    -2.1361     0.0285 N.ar    
  11 C11            1.7224    -1.8418     0.0242 C.ar    
  12 C12            0.7934    -2.8804     0.0103 C.ar    
  13 C13            1.2656    -4.1913     0.0016 C.ar    
  14 N14            2.5784    -4.4067     0.0067 N.ar    
  15 N15            0.3794    -5.2568    -0.0118 N.pl3   
  16 C16           -1.0644    -5.0086    -0.0168 C.3     
  17 C17           -1.8001    -6.3238    -0.0316 C.ar    
  18 C18           -2.1435    -6.9370     1.1588 C.ar    
  19 C19           -2.8183    -8.1434     1.1453 C.ar    
  20 C20           -3.1502    -8.7363    -0.0586 C.ar    
  21 C21           -2.8076    -8.1225    -1.2489 C.ar    
  22 C22           -2.1366    -6.9140    -1.2354 C.ar    
  23 C23           -3.8850   -10.0519    -0.0733 C.3     
  24 F24           -5.2639    -9.8159    -0.0772 F       
  25 F25           -3.5317   -10.7705    -1.2205 F       
  26 F26           -3.5414   -10.7907     1.0640 F       
  27 N27            4.7913    -3.6603     0.0189 N.pl3   
  28 C28           -3.5930     2.3733     0.1389 C.ar    
  29 C29           -4.7618     2.0158    -0.5319 C.ar    
  30 C30           -5.8955     2.8086    -0.4128 C.ar    
  31 C31           -5.8620     3.9497     0.3701 C.ar    
  32 C32           -4.7021     4.3027     1.0347 C.ar    
  33 C33           -3.5709     3.5156     0.9259 C.ar    
  34 F34           -7.0304     2.4669    -1.0612 F       
  35 N35           -4.7921     0.8608    -1.3238 N.3     
  36 C36           -5.8047    -0.0847    -0.8368 C.3     
  37 C37           -5.7107    -1.3891    -1.6316 C.3     
  38 C38           -5.9343    -1.0932    -3.1172 C.3     
  39 C39           -4.8971    -0.0696    -3.5874 C.3     
  40 C40           -5.0148     1.1966    -2.7359 C.3     
  41 C41           -5.7813    -2.3839    -3.9243 C.3     
  42 N42           -6.1129    -2.1236    -5.3315 N.3     
  43 H43            3.1645     0.6888     0.0548 H       
  44 H44            1.5531     2.6905     0.0644 H       
  45 H45           -2.5298     0.6163    -0.0688 H       
  46 H46           -0.2668    -2.6743     0.0068 H       
  47 H47            0.7151    -6.1668    -0.0178 H       
  48 H48           -1.3399    -4.4482     0.8766 H       
  49 H49           -1.3311    -4.4332    -0.9033 H       
  50 H50           -1.8842    -6.4739     2.0993 H       
  51 H51           -3.0859    -8.6229     2.0752 H       
  52 H52           -3.0666    -8.5859    -2.1895 H       
  53 H53           -1.8723    -6.4327    -2.1654 H       
  54 H54            5.4285    -2.9290     0.0245 H       
  55 H55            5.1060    -4.5778     0.0127 H       
  56 H56           -6.7442     4.5659     0.4619 H       
  57 H57           -4.6809     5.1941     1.6441 H       
  58 H58           -2.6683     3.7922     1.4504 H       
  59 H59           -5.6318    -0.2898     0.2197 H       
  60 H60           -6.7970     0.3479    -0.9649 H       
  61 H61           -4.7232    -1.8294    -1.4928 H       
  62 H62           -6.4726    -2.0849    -1.2804 H       
  63 H63           -6.9363    -0.6890    -3.2612 H       
  64 H64           -3.8969    -0.4891    -3.4794 H       
  65 H65           -5.0779     0.1773    -4.6335 H       
  66 H66           -6.0107     1.6232    -2.8551 H       
  67 H67           -4.2681     1.9221    -3.0588 H       
  68 H68           -4.7526    -2.7373    -3.8528 H       
  69 H69           -6.4548    -3.1431    -3.5267 H       
  70 H70           -6.0194    -2.9615    -5.8860 H       
  71 H71           -7.0395    -1.7340    -5.4186 H       
@<TRIPOS>BOND
   1    1    2 2
   2    1    5 1
   3    1    6 1
   4    2    3 1
   5    3    4 2
   6    3   11 1
   7    4    5 1
   8    4   43 1
   9    5   44 1
  10    6    7 2
  11    6    8 am
  12    8   28 1
  13    8   45 1
  14    9   10 ar
  15    9   14 ar
  16    9   27 1
  17   10   11 ar
  18   11   12 ar
  19   12   13 ar
  20   12   46 1
  21   13   14 ar
  22   13   15 1
  23   15   16 1
  24   15   47 1
  25   16   17 1
  26   16   48 1
  27   16   49 1
  28   17   18 ar
  29   17   22 ar
  30   18   19 ar
  31   18   50 1
  32   19   20 ar
  33   19   51 1
  34   20   21 ar
  35   20   23 1
  36   21   22 ar
  37   21   52 1
  38   22   53 1
  39   23   24 1
  40   23   25 1
  41   23   26 1
  42   27   54 1
  43   27   55 1
  44   28   29 ar
  45   28   33 ar
  46   29   30 ar
  47   29   35 1
  48   30   31 ar
  49   30   34 1
  50   31   32 ar
  51   31   56 1
  52   32   33 ar
  53   32   57 1
  54   33   58 1
  55   35   36 1
  56   35   40 1
  57   36   37 1
  58   36   59 1
  59   36   60 1
  60   37   38 1
  61   37   61 1
  62   37   62 1
  63   38   39 1
  64   38   41 1
  65   38   63 1
  66   39   40 1
  67   39   64 1
  68   39   65 1
  69   40   66 1
  70   40   67 1
  71   41   42 1
  72   41   68 1
  73   41   69 1
  74   42   70 1
  75   42   71 1

#	End of record

