#	Name: ASD01150884
#	Creating user name:	WinNT
#	Creation time:	15. 06. 2019 19:05

#	Modifying user name:	WinNT
#	Modification time:	15. 06. 2019 19:05

#	Program:	/corina/corina34_cracker 3.40 0067  02.08.2006

@<TRIPOS>MOLECULE
ASD01150884
  58   61    0    0    0
SMALL
NO_CHARGES


@<TRIPOS>ATOM
   1 C1            -0.0179     1.4681     0.0101 C.2     
   2 C2             0.0021    -0.0041     0.0020 C.2     
   3 N3             0.0001    -0.6716    -1.1688 N.am    
   4 O4             0.0204    -0.6177     1.0518 O.2     
   5 C5             0.0189    -2.0615    -1.1765 C.2     
   6 N6             0.0394    -2.8543    -0.1023 N.2     
   7 C7             0.0525    -4.1179    -0.4744 C.2     
   8 N8             0.0406    -4.1878    -1.8306 N.pl3   
   9 C9             0.0137    -2.8744    -2.3031 C.2     
  10 C10           -0.0063    -2.4578    -3.6493 C.2     
  11 O11           -0.0002    -3.3753    -4.6403 O.3     
  12 O12           -0.0291    -1.2704    -3.9190 O.2     
  13 C13           -0.0215    -2.8821    -5.9813 C.3     
  14 C14           -0.0109    -4.0596    -6.9581 C.3     
  15 S15            0.0818    -5.5011     0.6168 S.3     
  16 C16            0.0856    -4.6438     2.2109 C.3     
  17 C17            0.0490    -5.4075    -2.6420 C.3     
  18 C18           -1.3688    -5.8440    -2.9073 C.ar    
  19 C19           -2.0366    -5.3813    -4.0257 C.ar    
  20 C20           -3.3372    -5.7817    -4.2691 C.ar    
  21 C21           -3.9697    -6.6451    -3.3943 C.ar    
  22 C22           -3.3016    -7.1086    -2.2764 C.ar    
  23 C23           -1.9996    -6.7116    -2.0353 C.ar    
  24 C24            1.1249     2.4055     0.0042 C.2     
  25 N25            0.5874     3.5987     0.0158 N.2     
  26 O26           -0.6183     3.5535     0.0271 O.3     
  27 C27           -1.1022     2.3093     0.0189 C.2     
  28 C28            2.5689     2.0671    -0.0110 C.ar    
  29 C29           -2.5546     1.9073     0.0282 C.3     
  30 C30            3.4688     2.8724    -0.7067 C.ar    
  31 C31            4.8113     2.5529    -0.7170 C.ar    
  32 C32            5.2644     1.4358    -0.0385 C.ar    
  33 C33            4.3757     0.6327     0.6533 C.ar    
  34 C34            3.0317     0.9458     0.6753 C.ar    
  35 H35           -0.0145    -0.1822    -2.0061 H       
  36 H36           -0.9233    -2.2896    -6.1362 H       
  37 H37            0.8564    -2.2593    -6.1533 H       
  38 H38            0.8908    -4.6521    -6.8031 H       
  39 H39           -0.8888    -4.6824    -6.7860 H       
  40 H40           -0.0271    -3.6834    -7.9809 H       
  41 H41            0.9677    -4.0072     2.2789 H       
  42 H42           -0.8120    -4.0313     2.2962 H       
  43 H43            0.1033    -5.3767     3.0175 H       
  44 H44            0.5517    -5.2106    -3.5888 H       
  45 H45            0.5778    -6.1962    -2.1069 H       
  46 H46           -1.5425    -4.7067    -4.7092 H       
  47 H47           -3.8592    -5.4196    -5.1425 H       
  48 H48           -4.9860    -6.9574    -3.5841 H       
  49 H49           -3.7959    -7.7829    -1.5928 H       
  50 H50           -1.4776    -7.0737    -1.1620 H       
  51 H51           -3.1788     2.8007     0.0434 H       
  52 H52           -2.7759     1.3246    -0.8660 H       
  53 H53           -2.7594     1.3058     0.9138 H       
  54 H54            3.1161     3.7446    -1.2371 H       
  55 H55            5.5095     3.1760    -1.2561 H       
  56 H56            6.3159     1.1895    -0.0493 H       
  57 H57            4.7348    -0.2387     1.1807 H       
  58 H58            2.3387     0.3180     1.2157 H       
@<TRIPOS>BOND
   1    1    2 1
   2    1   24 1
   3    1   27 2
   4    2    3 am
   5    2    4 2
   6    3    5 1
   7    3   35 1
   8    5    6 1
   9    5    9 2
  10    6    7 2
  11    7    8 1
  12    7   15 1
  13    8    9 1
  14    8   17 1
  15    9   10 1
  16   10   11 1
  17   10   12 2
  18   11   13 1
  19   13   14 1
  20   13   36 1
  21   13   37 1
  22   14   38 1
  23   14   39 1
  24   14   40 1
  25   15   16 1
  26   16   41 1
  27   16   42 1
  28   16   43 1
  29   17   18 1
  30   17   44 1
  31   17   45 1
  32   18   19 ar
  33   18   23 ar
  34   19   20 ar
  35   19   46 1
  36   20   21 ar
  37   20   47 1
  38   21   22 ar
  39   21   48 1
  40   22   23 ar
  41   22   49 1
  42   23   50 1
  43   24   25 2
  44   24   28 1
  45   25   26 1
  46   26   27 1
  47   27   29 1
  48   28   30 ar
  49   28   34 ar
  50   29   51 1
  51   29   52 1
  52   29   53 1
  53   30   31 ar
  54   30   54 1
  55   31   32 ar
  56   31   55 1
  57   32   33 ar
  58   32   56 1
  59   33   34 ar
  60   33   57 1
  61   34   58 1

#	End of record

