#	Name: ASD02500249
#	Creating user name:	WinNT
#	Creation time:	15. 06. 2019 20:22

#	Modifying user name:	WinNT
#	Modification time:	15. 06. 2019 20:22

#	Program:	/corina/corina34_cracker 3.40 0067  02.08.2006

@<TRIPOS>MOLECULE
ASD02500249
  67   71    0    0    0
SMALL
NO_CHARGES


@<TRIPOS>ATOM
   1 N1            -3.3555     5.4936     0.4087 N.ar    
   2 C2            -4.5344     6.0474     0.5560 C.ar    
   3 C3            -5.3692     5.7221     1.6231 C.ar    
   4 C4            -4.9649     4.8036     2.5494 C.ar    
   5 C5            -3.6984     4.2105     2.3878 C.ar    
   6 C6            -3.2149     3.2589     3.2997 C.ar    
   7 C7            -1.9841     2.7085     3.1087 C.ar    
   8 C8            -1.1972     3.0775     2.0200 C.ar    
   9 C9            -1.6346     3.9968     1.1167 C.ar    
  10 C10           -2.8997     4.5875     1.2796 C.ar    
  11 S11           -0.6186     4.4457    -0.2511 S.o2    
  12 O12           -0.6125     5.8659    -0.2974 O.2     
  13 O13            0.5649     3.6665    -0.1445 O.2     
  14 N14           -1.3918     3.9364    -1.6241 N.am    
  15 C15           -1.5887     2.5781    -1.8480 C.ar    
  16 C16           -2.8309     2.1186    -2.2687 C.ar    
  17 C17           -3.0268     0.7674    -2.4919 C.ar    
  18 C18           -1.9664    -0.1308    -2.2910 C.ar    
  19 C19           -0.7223     0.3473    -1.8674 C.ar    
  20 C20           -0.5381     1.6832    -1.6552 C.ar    
  21 C21           -2.1638    -1.5709    -2.5250 C.2     
  22 O22           -3.0625    -2.1618    -1.9571 O.2     
  23 N23           -1.3485    -2.2345    -3.3684 N.am    
  24 C24           -1.5912    -3.6489    -3.6854 C.3     
  25 C25           -1.6973    -3.7987    -5.2081 C.3     
  26 N26           -0.5500    -3.1207    -5.8277 N.am    
  27 C27           -0.3073    -1.7063    -5.5108 C.3     
  28 C28           -0.2045    -1.5550    -3.9924 C.3     
  29 C29            0.2653    -3.7843    -6.6712 C.2     
  30 C30            1.3540    -3.0649    -7.3660 C.ar    
  31 C31            1.0947    -1.9029    -8.1008 C.ar    
  32 C32            2.1406    -1.2623    -8.7336 C.ar    
  33 N33            3.3717    -1.7285    -8.6552 N.ar    
  34 C34            3.6665    -2.8175    -7.9765 C.ar    
  35 C35            2.6789    -3.5247    -7.3028 C.ar    
  36 O36            0.1054    -4.9743    -6.8606 O.2     
  37 O37            2.9885    -4.6433    -6.6003 O.3     
  38 C38            4.3606    -5.0422    -6.5873 C.3     
  39 O39           -4.2372     0.3125    -2.9023 O.3     
  40 C40           -5.2680     1.2853    -3.0848 C.3     
  41 H41           -4.8674     6.7754    -0.1689 H       
  42 H42           -6.3350     6.1961     1.7177 H       
  43 H43           -5.5990     4.5398     3.3829 H       
  44 H44           -3.8155     2.9654     4.1480 H       
  45 H45           -1.6130     1.9765     3.8108 H       
  46 H46           -0.2242     2.6270     1.8908 H       
  47 H47           -1.7073     4.5855    -2.2722 H       
  48 H48           -3.6421     2.8152    -2.4209 H       
  49 H49            0.0954    -0.3410    -1.7120 H       
  50 H50            0.4258     2.0479    -1.3324 H       
  51 H51           -0.7636    -4.2540    -3.3151 H       
  52 H52           -2.5219    -3.9736    -3.2201 H       
  53 H53           -1.6845    -4.8558    -5.4735 H       
  54 H54           -2.6238    -3.3426    -5.5569 H       
  55 H55            0.6234    -1.3817    -5.9760 H       
  56 H56           -1.1348    -1.1013    -5.8811 H       
  57 H57           -0.2196    -0.4972    -3.7299 H       
  58 H58            0.7241    -2.0076    -3.6445 H       
  59 H59            0.0901    -1.5129    -8.1721 H       
  60 H60            1.9477    -0.3648    -9.3025 H       
  61 H61            4.6892    -3.1627    -7.9398 H       
  62 H62            4.4699    -5.9484    -5.9916 H       
  63 H63            4.6924    -5.2358    -7.6074 H       
  64 H64            4.9662    -4.2467    -6.1531 H       
  65 H65           -6.1814     0.7894    -3.4133 H       
  66 H66           -5.4528     1.8001    -2.1420 H       
  67 H67           -4.9559     2.0082    -3.8385 H       
@<TRIPOS>BOND
   1    1    2 ar
   2    1   10 ar
   3    2    3 ar
   4    2   41 1
   5    3    4 ar
   6    3   42 1
   7    4    5 ar
   8    4   43 1
   9    5    6 ar
  10    5   10 ar
  11    6    7 ar
  12    6   44 1
  13    7    8 ar
  14    7   45 1
  15    8    9 ar
  16    8   46 1
  17    9   10 ar
  18    9   11 1
  19   11   12 2
  20   11   13 2
  21   11   14 am
  22   14   15 1
  23   14   47 1
  24   15   16 ar
  25   15   20 ar
  26   16   17 ar
  27   16   48 1
  28   17   18 ar
  29   17   39 1
  30   18   19 ar
  31   18   21 1
  32   19   20 ar
  33   19   49 1
  34   20   50 1
  35   21   22 2
  36   21   23 am
  37   23   24 1
  38   23   28 1
  39   24   25 1
  40   24   51 1
  41   24   52 1
  42   25   26 1
  43   25   53 1
  44   25   54 1
  45   26   27 1
  46   26   29 am
  47   27   28 1
  48   27   55 1
  49   27   56 1
  50   28   57 1
  51   28   58 1
  52   29   30 1
  53   29   36 2
  54   30   31 ar
  55   30   35 ar
  56   31   32 ar
  57   31   59 1
  58   32   33 ar
  59   32   60 1
  60   33   34 ar
  61   34   35 ar
  62   34   61 1
  63   35   37 1
  64   37   38 1
  65   38   62 1
  66   38   63 1
  67   38   64 1
  68   39   40 1
  69   40   65 1
  70   40   66 1
  71   40   67 1

#	End of record

