#	Name: ASD01230512
#	Creating user name:	WinNT
#	Creation time:	15. 06. 2019 19:14

#	Modifying user name:	WinNT
#	Modification time:	15. 06. 2019 19:14

#	Program:	/corina/corina34_cracker 3.40 0067  02.08.2006

@<TRIPOS>MOLECULE
ASD01230512
  44   47    0    0    0
SMALL
NO_CHARGES


@<TRIPOS>ATOM
   1 S1            -1.6126     2.7197     2.2396 S.o2    
   2 N2            -1.2708     1.2831     1.5090 N.am    
   3 C3            -0.1025     0.9063     1.1724 C.2     
   4 N4             1.0430     1.6236     1.4095 N.pl3   
   5 C5             1.1110     2.6379     2.4538 C.3     
   6 C6            -0.0444     3.6260     2.2829 C.3     
   7 C7             0.1029    -0.4228     0.4640 C.3     
   8 N8             1.3756    -0.9810     0.9392 N.3     
   9 C9             2.5334    -0.1561     0.6059 C.3     
  10 C10            2.2027     1.3314     0.5587 C.3     
  11 C11           -1.0262    -1.3626     0.8004 C.ar    
  12 C12           -2.0665    -1.5392    -0.0931 C.ar    
  13 C13           -3.1027    -2.4001     0.2129 C.ar    
  14 C14           -3.0986    -3.0881     1.4179 C.ar    
  15 C15           -2.0531    -2.9093     2.3125 C.ar    
  16 C16           -1.0170    -2.0510     1.9995 C.ar    
  17 O17           -4.1168    -3.9351     1.7214 O.3     
  18 C18           -5.0628    -4.1614     0.7725 C.ar    
  19 C19           -4.8922    -5.1848    -0.1488 C.ar    
  20 C20           -5.8555    -5.4130    -1.1121 C.ar    
  21 C21           -6.9890    -4.6224    -1.1591 C.ar    
  22 C22           -7.1615    -3.6019    -0.2422 C.ar    
  23 C23           -6.2038    -3.3731     0.7268 C.ar    
  24 O24           -2.5256     3.3512     1.3525 O.2     
  25 O25           -2.0104     2.3543     3.5539 O.2     
  26 H26            1.0381     2.1592     3.4303 H       
  27 H27            2.0588     3.1713     2.3809 H       
  28 H28            0.0831     4.1764     1.3508 H       
  29 H29           -0.0515     4.3248     3.1194 H       
  30 H30            0.1466    -0.2655    -0.6137 H       
  31 H31            1.3398    -1.1707     1.9296 H       
  32 H32            3.3095    -0.3205     1.3534 H       
  33 H33            2.9152    -0.4628    -0.3679 H       
  34 H34            1.9779     1.6185    -0.4685 H       
  35 H35            3.0614     1.9031     0.9106 H       
  36 H36           -2.0692    -1.0035    -1.0308 H       
  37 H37           -3.9154    -2.5372    -0.4850 H       
  38 H38           -2.0476    -3.4437     3.2510 H       
  39 H39           -0.2010    -1.9146     2.6937 H       
  40 H40           -4.0067    -5.8022    -0.1130 H       
  41 H41           -5.7232    -6.2095    -1.8295 H       
  42 H42           -7.7406    -4.8021    -1.9135 H       
  43 H43           -8.0475    -2.9856    -0.2812 H       
  44 H44           -6.3410    -2.5785     1.4452 H       
@<TRIPOS>BOND
   1    1    2 am
   2    1    6 1
   3    1   24 2
   4    1   25 2
   5    2    3 2
   6    3    4 1
   7    3    7 1
   8    4    5 1
   9    4   10 1
  10    5    6 1
  11    5   26 1
  12    5   27 1
  13    6   28 1
  14    6   29 1
  15    7    8 1
  16    7   11 1
  17    7   30 1
  18    8    9 1
  19    8   31 1
  20    9   10 1
  21    9   32 1
  22    9   33 1
  23   10   34 1
  24   10   35 1
  25   11   12 ar
  26   11   16 ar
  27   12   13 ar
  28   12   36 1
  29   13   14 ar
  30   13   37 1
  31   14   15 ar
  32   14   17 1
  33   15   16 ar
  34   15   38 1
  35   16   39 1
  36   17   18 1
  37   18   19 ar
  38   18   23 ar
  39   19   20 ar
  40   19   40 1
  41   20   21 ar
  42   20   41 1
  43   21   22 ar
  44   21   42 1
  45   22   23 ar
  46   22   43 1
  47   23   44 1

#	End of record

