#	Name: ASD07450001
#	Creating user name:	WinNT
#	Creation time:	15. 06. 2019 21:11

#	Modifying user name:	WinNT
#	Modification time:	15. 06. 2019 21:11

#	Program:	/corina/corina34_cracker 3.40 0067  02.08.2006

@<TRIPOS>MOLECULE
ASD07450001
  70   76    0    0    0
SMALL
NO_CHARGES


@<TRIPOS>ATOM
   1 C1            -0.0178     1.4619     0.0101 C.2     
   2 C2             0.0021    -0.0041     0.0020 C.2     
   3 N3             1.1892    -0.6301    -0.0127 N.2     
   4 C4             2.3188     0.0445    -0.0198 C.2     
   5 N5             2.3587     1.4026    -0.0125 N.pl3   
   6 C6             1.1986     2.1336     0.0021 C.2     
   7 O7            -1.0392    -0.6419     0.0089 O.2     
   8 N8             3.4995    -0.6487    -0.0348 N.pl3   
   9 N9             0.9039     3.4622     0.0130 N.pl3   
  10 C10           -0.4548     3.5814     0.0263 C.2     
  11 N11           -0.9959     2.3969     0.0298 N.2     
  12 C12            1.8698     4.5636     0.0109 C.3     
  13 O13            1.2682     5.7320     0.5591 O.3     
  14 C14            1.3794     6.8457    -0.3214 C.3     
  15 C15            2.2129     6.4090    -1.5353 C.3     
  16 C16            2.2975     4.8755    -1.4304 C.3     
  17 O17            3.6368     4.4331    -1.6600 O.3     
  18 O18            1.5621     6.7883    -2.7485 O.3     
  19 P19            1.9045     8.1449    -3.5458 P.3     
  20 C20           -0.0097     7.2952    -0.7788 C.3     
  21 O21           -0.1430     8.7058    -0.5905 O.3     
  22 P22           -1.5699     9.4323    -0.4148 P.3     
  23 O23           -2.0585    10.0011    -1.8404 O.3     
  24 O24           -2.6479     8.3723     0.1387 O.3     
  25 O25           -1.4393    10.5514     0.5449 O.2     
  26 O26            3.2199     8.6588    -3.1030 O.2     
  27 O27            1.9514     7.8413    -5.1262 O.3     
  28 O28            0.7692     9.2456    -3.2443 O.3     
  29 C29            0.3846    10.2469    -4.1881 C.3     
  30 C30           -1.0940    10.5899    -4.0010 C.3     
  31 C31           -1.3527    11.0213    -2.5493 C.3     
  32 C32           -2.2163    12.2922    -2.6602 C.3     
  33 O33           -1.4465    11.6901    -4.8461 O.3     
  34 C34           -2.3950    12.5200    -4.1700 C.3     
  35 H35           -0.4118    11.2475    -2.0474 H       
  36 H36           -1.7099     9.7260    -4.2475 H       
  37 O37           -1.5432    13.4039    -2.0660 O.3     
  38 N38           -3.7546    12.1504    -4.5714 N.pl3   
  39 C39           -4.8567    12.9463    -4.5074 C.2     
  40 C40           -5.9168    12.1876    -4.9885 C.2     
  41 N41           -5.4251    10.9722    -5.3234 N.2     
  42 C42           -4.1455    10.9480    -5.0828 C.2     
  43 N43           -5.0955    14.2327    -4.0969 N.pl3   
  44 C44           -6.3477    14.7562    -4.1598 C.2     
  45 N45           -7.3785    14.0726    -4.6084 N.2     
  46 C46           -7.2454    12.8062    -5.0327 C.2     
  47 O47           -8.2100    12.1828    -5.4471 O.2     
  48 N48           -6.5445    16.0444    -3.7399 N.pl3   
  49 H49            3.2147     1.8588    -0.0176 H       
  50 H50            3.4924    -1.6186    -0.0400 H       
  51 H51            4.3430    -0.1698    -0.0403 H       
  52 H52           -0.9982     4.5146     0.0370 H       
  53 H53            2.7437     4.2879     0.6012 H       
  54 H54            1.8818     7.6712     0.1875 H       
  55 H55            3.2099     6.8472    -1.4823 H       
  56 H56            1.6147     4.4075    -2.1395 H       
  57 H57            3.7489     3.4742    -1.6061 H       
  58 H58           -0.1393     7.0560    -1.8343 H       
  59 H59           -0.7697     6.7774    -0.1937 H       
  60 H60           -2.4168     7.9870     0.9949 H       
  61 H61            2.1530     8.6153    -5.6697 H       
  62 H62            0.9871    11.1419    -4.0331 H       
  63 H63            0.5451     9.8729    -5.1993 H       
  64 H64           -3.1839    12.1360    -2.1832 H       
  65 H65           -2.2091    13.5666    -4.4109 H       
  66 H66           -2.0405    14.2322    -2.1066 H       
  67 H67           -3.4950    10.1034    -5.2557 H       
  68 H68           -4.3646    14.7732    -3.7586 H       
  69 H69           -5.7975    16.5650    -3.4055 H       
  70 H70           -7.4310    16.4365    -3.7767 H       
@<TRIPOS>BOND
   1    1    2 1
   2    1    6 2
   3    1   11 1
   4    2    3 1
   5    2    7 2
   6    3    4 2
   7    4    5 1
   8    4    8 1
   9    5    6 1
  10    5   49 1
  11    6    9 1
  12    8   50 1
  13    8   51 1
  14    9   10 1
  15    9   12 1
  16   10   11 2
  17   10   52 1
  18   12   13 1
  19   12   16 1
  20   12   53 1
  21   13   14 1
  22   14   15 1
  23   14   20 1
  24   14   54 1
  25   15   16 1
  26   15   18 1
  27   15   55 1
  28   16   17 1
  29   16   56 1
  30   17   57 1
  31   18   19 1
  32   19   26 2
  33   19   27 1
  34   19   28 1
  35   20   21 1
  36   20   58 1
  37   20   59 1
  38   21   22 1
  39   22   23 1
  40   22   24 1
  41   22   25 2
  42   23   31 1
  43   24   60 1
  44   27   61 1
  45   28   29 1
  46   29   30 1
  47   29   62 1
  48   29   63 1
  49   30   31 1
  50   30   33 1
  51   30   36 1
  52   31   35 1
  53   31   32 1
  54   32   34 1
  55   32   37 1
  56   32   64 1
  57   33   34 1
  58   34   38 1
  59   34   65 1
  60   37   66 1
  61   38   39 1
  62   38   42 1
  63   39   40 2
  64   39   43 1
  65   40   41 1
  66   40   46 1
  67   41   42 2
  68   42   67 1
  69   43   44 1
  70   43   68 1
  71   44   45 2
  72   44   48 1
  73   45   46 1
  74   46   47 2
  75   48   69 1
  76   48   70 1

#	End of record

