#	Name: ASD01903231
#	Creating user name:	WinNT
#	Creation time:	15. 06. 2019 19:54

#	Modifying user name:	WinNT
#	Modification time:	15. 06. 2019 19:54

#	Program:	/corina/corina34_cracker 3.40 0067  02.08.2006

@<TRIPOS>MOLECULE
ASD01903231
  43   46    0    0    0
SMALL
NO_CHARGES


@<TRIPOS>ATOM
   1 S1             0.1055     1.7265     1.0154 S.3     
   2 C2             0.0831     0.0280     0.8270 C.2     
   3 N3             1.2721    -0.4125     0.5624 N.2     
   4 C4             2.2433     0.4890     0.4892 C.2     
   5 C5             1.8393     1.7532     0.7055 C.2     
   6 N6            -1.0487    -0.7669     0.9416 N.pl3   
   7 C7            -2.2754    -0.1888     1.2285 C.ar    
   8 C8             3.6544     0.1324     0.1940 C.2     
   9 C9             4.1743    -1.1745     0.0548 C.2     
  10 N10            5.4558    -1.0750    -0.2028 N.2     
  11 N11            5.7974     0.2824    -0.2371 N.pl3   
  12 C12            4.6831     1.0061     0.0022 C.2     
  13 N13           -3.3456    -0.9622     1.3345 N.ar    
  14 C14           -4.5311    -0.4425     1.6074 C.ar    
  15 C15           -4.6445     0.9276     1.7827 C.ar    
  16 C16           -3.5043     1.7074     1.6648 C.ar    
  17 N17           -2.3485     1.1236     1.3956 N.ar    
  18 C18           -5.7437    -1.3295     1.7257 C.3     
  19 N19            3.4491    -2.3649     0.1720 N.3     
  20 C20            4.2558    -3.4118     0.8119 C.3     
  21 C21            3.3884    -4.6489     1.0551 C.3     
  22 C22            2.8361    -5.1500    -0.2822 C.3     
  23 C23            2.0406    -4.0252    -0.9505 C.3     
  24 C24            2.9470    -2.8062    -1.1355 C.3     
  25 H25            2.4678     2.6314     0.6912 H       
  26 H26           -0.9814    -1.7270     0.8210 H       
  27 H27            6.6823     0.6414    -0.4074 H       
  28 H28            4.6195     2.0835     0.0415 H       
  29 H29           -5.6004     1.3781     2.0059 H       
  30 H30           -3.5585     2.7781     1.7952 H       
  31 H31           -5.8546    -1.6572     2.7594 H       
  32 H32           -6.6313    -0.7736     1.4236 H       
  33 H33           -5.6222    -2.1991     1.0799 H       
  34 H34            5.0903    -3.6754     0.1620 H       
  35 H35            4.6391    -3.0441     1.7637 H       
  36 H36            3.9915    -5.4313     1.5158 H       
  37 H37            2.5615    -4.3893     1.7160 H       
  38 H38            3.6618    -5.4463    -0.9293 H       
  39 H39            2.1828    -6.0051    -0.1091 H       
  40 H40            1.6806    -4.3620    -1.9226 H       
  41 H41            1.1924    -3.7558    -0.3211 H       
  42 H42            2.3797    -1.9986    -1.5981 H       
  43 H43            3.7876    -3.0726    -1.7763 H       
@<TRIPOS>BOND
   1    1    2 1
   2    1    5 1
   3    2    3 2
   4    2    6 1
   5    3    4 1
   6    4    5 2
   7    4    8 1
   8    5   25 1
   9    6    7 1
  10    6   26 1
  11    7   13 ar
  12    7   17 ar
  13    8    9 1
  14    8   12 2
  15    9   10 2
  16    9   19 1
  17   10   11 1
  18   11   12 1
  19   11   27 1
  20   12   28 1
  21   13   14 ar
  22   14   15 ar
  23   14   18 1
  24   15   16 ar
  25   15   29 1
  26   16   17 ar
  27   16   30 1
  28   18   31 1
  29   18   32 1
  30   18   33 1
  31   19   20 1
  32   19   24 1
  33   20   21 1
  34   20   34 1
  35   20   35 1
  36   21   22 1
  37   21   36 1
  38   21   37 1
  39   22   23 1
  40   22   38 1
  41   22   39 1
  42   23   24 1
  43   23   40 1
  44   23   41 1
  45   24   42 1
  46   24   43 1

#	End of record

