#	Name: ASD03240648
#	Creating user name:	WinNT
#	Creation time:	15. 06. 2019 20:35

#	Modifying user name:	WinNT
#	Modification time:	15. 06. 2019 20:35

#	Program:	/corina/corina34_cracker 3.40 0067  02.08.2006

@<TRIPOS>MOLECULE
ASD03240648
  59   64    0    0    0
SMALL
NO_CHARGES


@<TRIPOS>ATOM
   1 C1            -0.0166     1.3754     0.0096 C.ar    
   2 C2             0.0021    -0.0041     0.0020 C.ar    
   3 N3             1.1422    -0.6682    -0.0058 N.ar    
   4 C4             2.3145    -0.0482    -0.0058 C.ar    
   5 C5             2.3701     1.3444    -0.0123 C.ar    
   6 C6             1.1861     2.0697     0.0018 C.ar    
   7 N7             3.4822    -0.8057     0.0217 N.pl3   
   8 C8             4.3601    -0.7200     1.0990 C.ar    
   9 C9             4.9963     0.4887     1.4031 C.ar    
  10 C10            4.7631     1.6818     0.5617 C.2     
  11 N11            3.5943     2.0266    -0.0508 N.pl3   
  12 C12            4.6067    -1.8398     1.8817 C.ar    
  13 C13            5.4672    -1.7548     2.9597 C.ar    
  14 C14            6.0878    -0.5567     3.2688 C.ar    
  15 C15            5.8578     0.5645     2.4972 C.ar    
  16 N16            5.6690     2.5980     0.2784 N.2     
  17 C17            5.1321     3.5328    -0.5069 C.2     
  18 C18            3.8303     3.2037    -0.7344 C.2     
  19 C19            2.8592     3.9588    -1.5533 C.ar    
  20 C20            2.7643     5.3460    -1.4269 C.ar    
  21 C21            2.0365     3.2890    -2.4607 C.ar    
  22 C22            1.1324     4.0000    -3.2223 C.ar    
  23 C23            1.0402     5.3741    -3.0887 C.ar    
  24 C24            1.8559     6.0448    -2.1947 C.ar    
  25 C25            5.8439     4.7452    -1.0495 C.3     
  26 C26            0.0506     6.1443    -3.9244 C.3     
  27 C27            6.4687     4.4079    -2.3788 C.2     
  28 N28           -1.0104     5.2939    -4.4804 N.3     
  29 C29           -0.4753     7.4169    -3.2397 C.3     
  30 C30           -0.3758     8.1021    -4.6128 C.3     
  31 C31            0.7085     7.0691    -4.9621 C.3     
  32 O32            7.1590     5.3416    -3.0522 O.3     
  33 C33            7.7332     4.9462    -4.3258 C.3     
  34 O34            6.3484     3.2970    -2.8383 O.2     
  35 H35           -0.9555     1.9091     0.0170 H       
  36 H36           -0.9306    -0.5486     0.0029 H       
  37 H37            1.2002     3.1496     0.0071 H       
  38 H38            3.6863    -1.3998    -0.7175 H       
  39 H39            4.1255    -2.7780     1.6482 H       
  40 H40            5.6564    -2.6288     3.5653 H       
  41 H41            6.7543    -0.4989     4.1166 H       
  42 H42            6.3434     1.4981     2.7403 H       
  43 H43            3.4004     5.8707    -0.7295 H       
  44 H44            2.1080     2.2165    -2.5665 H       
  45 H45            0.4954     3.4830    -3.9247 H       
  46 H46            1.7786     7.1174    -2.0950 H       
  47 H47            5.1294     5.5580    -1.1797 H       
  48 H48            6.6213     5.0533    -0.3504 H       
  49 H49           -0.6213     4.4848    -4.9408 H       
  50 H50           -1.6677     5.0215    -3.7648 H       
  51 H51           -1.4969     7.3240    -2.8711 H       
  52 H52            0.2083     7.8271    -2.4964 H       
  53 H53           -1.2795     8.0071    -5.2148 H       
  54 H54           -0.0042     9.1257    -4.5641 H       
  55 H55            1.7158     7.3842    -4.6897 H       
  56 H56            0.6426     6.6955    -5.9839 H       
  57 H57            8.2629     5.7922    -4.7638 H       
  58 H58            8.4299     4.1225    -4.1702 H       
  59 H59            6.9380     4.6272    -4.9995 H       
@<TRIPOS>BOND
   1    1    2 ar
   2    1    6 ar
   3    1   35 1
   4    2    3 ar
   5    2   36 1
   6    3    4 ar
   7    4    5 ar
   8    4    7 1
   9    5    6 ar
  10    5   11 1
  11    6   37 1
  12    7    8 1
  13    7   38 1
  14    8    9 ar
  15    8   12 ar
  16    9   10 1
  17    9   15 ar
  18   10   11 1
  19   10   16 2
  20   11   18 1
  21   12   13 ar
  22   12   39 1
  23   13   14 ar
  24   13   40 1
  25   14   15 ar
  26   14   41 1
  27   15   42 1
  28   16   17 1
  29   17   18 2
  30   17   25 1
  31   18   19 1
  32   19   20 ar
  33   19   21 ar
  34   20   24 ar
  35   20   43 1
  36   21   22 ar
  37   21   44 1
  38   22   23 ar
  39   22   45 1
  40   23   24 ar
  41   23   26 1
  42   24   46 1
  43   25   27 1
  44   25   47 1
  45   25   48 1
  46   26   29 1
  47   26   28 1
  48   26   31 1
  49   27   32 1
  50   27   34 2
  51   28   49 1
  52   28   50 1
  53   29   30 1
  54   29   51 1
  55   29   52 1
  56   30   31 1
  57   30   53 1
  58   30   54 1
  59   31   55 1
  60   31   56 1
  61   32   33 1
  62   33   57 1
  63   33   58 1
  64   33   59 1

#	End of record

