#	Name: ASD01885469
#	Creating user name:	WinNT
#	Creation time:	15. 06. 2019 19:49

#	Modifying user name:	WinNT
#	Modification time:	15. 06. 2019 19:49

#	Program:	/corina/corina34_cracker 3.40 0067  02.08.2006

@<TRIPOS>MOLECULE
ASD01885469
  50   53    0    0    0
SMALL
NO_CHARGES


@<TRIPOS>ATOM
   1 C1             0.1974     1.2193     0.1466 C.ar    
   2 C2             0.3123    -0.1706     0.1691 C.ar    
   3 N3            -0.7478    -1.0157     0.2363 N.2     
   4 C4            -1.8535    -0.9010    -0.4041 C.2     
   5 C5            -2.1213     0.2641    -1.3205 C.3     
   6 C6            -2.1113     1.5246    -0.4932 C.2     
   7 N7            -1.0172     1.8920     0.1727 N.am    
   8 C8             1.3510     2.0006     0.0889 C.ar    
   9 C9             2.6030     1.4110     0.0489 C.ar    
  10 C10            2.7184     0.0245     0.0657 C.ar    
  11 C11            1.5900    -0.7568     0.1249 C.ar    
  12 C12           -2.8882    -1.9361    -0.2393 C.ar    
  13 O13           -3.1089     2.2120    -0.4350 O.2     
  14 C14           -2.6206    -3.0808     0.5186 C.ar    
  15 C15           -3.5899    -4.0513     0.6741 C.ar    
  16 C16           -4.8288    -3.9004     0.0833 C.ar    
  17 C17           -5.1107    -2.7622    -0.6773 C.ar    
  18 C18           -4.1404    -1.7749    -0.8342 C.ar    
  19 C19           -6.3962    -2.6084    -1.2893 C.1     
  20 N20           -7.4160    -2.4865    -1.7747 N.1     
  21 N21            3.7504     2.2081    -0.0088 N.am    
  22 C22            4.8766     1.8146     0.6184 C.2     
  23 O23            4.8678     0.8183     1.3154 O.2     
  24 N24            6.0124     2.5253     0.4730 N.am    
  25 C25            7.2365     2.0976     1.1547 C.3     
  26 C26            8.3535     3.0556     0.8297 C.ar    
  27 C27            8.5701     4.1618     1.6300 C.ar    
  28 C28            9.5946     5.0406     1.3318 C.ar    
  29 C29           10.4029     4.8130     0.2337 C.ar    
  30 C30           10.1868     3.7063    -0.5660 C.ar    
  31 C31            9.1650     2.8252    -0.2654 C.ar    
  32 H32           -1.3444     0.3184    -2.0831 H       
  33 H33           -3.0953     0.1429    -1.7946 H       
  34 H34           -1.0737     2.6902     0.7210 H       
  35 H35            1.2668     3.0772     0.0749 H       
  36 H36            3.6942    -0.4370     0.0319 H       
  37 H37            1.6851    -1.8326     0.1376 H       
  38 H38           -1.6535    -3.2058     0.9830 H       
  39 H39           -3.3781    -4.9332     1.2603 H       
  40 H40           -5.5819    -4.6641     0.2091 H       
  41 H41           -4.3531    -0.8933    -1.4206 H       
  42 H42            3.7359     3.0443    -0.5002 H       
  43 H43            6.0194     3.3201    -0.0831 H       
  44 H44            7.0682     2.0877     2.2316 H       
  45 H45            7.5078     1.0963     0.8202 H       
  46 H46            7.9386     4.3396     2.4879 H       
  47 H47            9.7634     5.9052     1.9566 H       
  48 H48           11.2029     5.5000     0.0004 H       
  49 H49           10.8181     3.5287    -1.4241 H       
  50 H50            8.9963     1.9605    -0.8901 H       
@<TRIPOS>BOND
   1    1    2 ar
   2    1    8 ar
   3    1    7 1
   4    2    3 1
   5    2   11 ar
   6    3    4 2
   7    4    5 1
   8    4   12 1
   9    5    6 1
  10    5   32 1
  11    5   33 1
  12    6    7 am
  13    6   13 2
  14    7   34 1
  15    8    9 ar
  16    8   35 1
  17    9   10 ar
  18    9   21 1
  19   10   11 ar
  20   10   36 1
  21   11   37 1
  22   12   14 ar
  23   12   18 ar
  24   14   15 ar
  25   14   38 1
  26   15   16 ar
  27   15   39 1
  28   16   17 ar
  29   16   40 1
  30   17   18 ar
  31   17   19 1
  32   18   41 1
  33   19   20 3
  34   21   22 am
  35   21   42 1
  36   22   23 2
  37   22   24 am
  38   24   25 1
  39   24   43 1
  40   25   26 1
  41   25   44 1
  42   25   45 1
  43   26   27 ar
  44   26   31 ar
  45   27   28 ar
  46   27   46 1
  47   28   29 ar
  48   28   47 1
  49   29   30 ar
  50   29   48 1
  51   30   31 ar
  52   30   49 1
  53   31   50 1

#	End of record

