#	Name: ASD01883404
#	Creating user name:	WinNT
#	Creation time:	15. 06. 2019 19:46

#	Modifying user name:	WinNT
#	Modification time:	15. 06. 2019 19:46

#	Program:	/corina/corina34_cracker 3.40 0067  02.08.2006

@<TRIPOS>MOLECULE
ASD01883404
  57   60    0    0    0
SMALL
NO_CHARGES


@<TRIPOS>ATOM
   1 N1            -0.0161     1.3416     0.0134 N.am    
   2 C2            -0.0055     0.0078    -0.1666 C.2     
   3 C3            -1.2225    -0.7140    -0.1653 C.2     
   4 C4            -2.4239    -0.0108     0.0261 C.2     
   5 C5            -2.3698     1.3834     0.2090 C.2     
   6 C6            -1.1780     2.0193     0.2035 C.2     
   7 O7             1.0514    -0.5778    -0.3310 O.2     
   8 C8            -1.2298    -2.1332    -0.3559 C.1     
   9 N9            -1.2355    -3.2591    -0.5070 N.1     
  10 C10            1.2513     2.0764     0.0103 C.3     
  11 N11           -3.6309    -0.6732     0.0341 N.pl3   
  12 C12            1.5781     2.5237    -1.4159 C.3     
  13 C13           -3.9343    -1.6769     1.0654 C.3     
  14 C14           -5.2925    -1.3386     1.6892 C.3     
  15 N15           -6.2991    -1.2162     0.6263 N.3     
  16 C16           -5.9809    -0.1079    -0.2838 C.3     
  17 C17           -4.6534    -0.3913    -0.9849 C.3     
  18 C18           -7.6461    -1.0627     1.1920 C.3     
  19 C19           -8.6127    -0.6964     0.0955 C.ar    
  20 C20           -9.2715    -1.6893    -0.6054 C.ar    
  21 C21          -10.1581    -1.3532    -1.6113 C.ar    
  22 C22          -10.3864    -0.0243    -1.9160 C.ar    
  23 C23           -9.7283     0.9685    -1.2145 C.ar    
  24 C24           -8.8449     0.6326    -0.2057 C.ar    
  25 O25            0.5956     3.4627    -1.8575 O.3     
  26 C26            0.7400     3.9622    -3.1131 C.ar    
  27 C27           -0.1777     4.8783    -3.6062 C.ar    
  28 C28           -0.0287     5.3846    -4.8829 C.ar    
  29 C29            1.0339     4.9790    -5.6690 C.ar    
  30 C30            1.9497     4.0658    -5.1800 C.ar    
  31 C31            1.8086     3.5612    -3.9017 C.ar    
  32 H32           -3.2806     1.9444     0.3575 H       
  33 H33           -1.1489     3.0896     0.3449 H       
  34 H34            1.1657     2.9513     0.6548 H       
  35 H35            2.0472     1.4296     0.3796 H       
  36 H36            2.5621     2.9921    -1.4333 H       
  37 H37            1.5762     1.6576    -2.0777 H       
  38 H38           -3.9763    -2.6671     0.6115 H       
  39 H39           -3.1626    -1.6562     1.8349 H       
  40 H40           -5.5845    -2.1321     2.3771 H       
  41 H41           -5.2191    -0.3957     2.2310 H       
  42 H42           -6.7723    -0.0088    -1.0268 H       
  43 H43           -5.8980     0.8179     0.2855 H       
  44 H44           -4.3570     0.4773    -1.5728 H       
  45 H45           -4.7612    -1.2585    -1.6365 H       
  46 H46           -7.9563    -2.0013     1.6514 H       
  47 H47           -7.6361    -0.2753     1.9456 H       
  48 H48           -9.0931    -2.7275    -0.3673 H       
  49 H49          -10.6723    -2.1289    -2.1593 H       
  50 H50          -11.0786     0.2382    -2.7023 H       
  51 H51           -9.9064     2.0067    -1.4528 H       
  52 H52           -8.3308     1.4083     0.3423 H       
  53 H53           -1.0082     5.1951    -2.9927 H       
  54 H54           -0.7431     6.0975    -5.2674 H       
  55 H55            1.1487     5.3760    -6.6668 H       
  56 H56            2.7785     3.7501    -5.7962 H       
  57 H57            2.5242     2.8480    -3.5202 H       
@<TRIPOS>BOND
   1    1    2 am
   2    1   10 1
   3    1    6 1
   4    2    3 1
   5    2    7 2
   6    3    4 2
   7    3    8 1
   8    4    5 1
   9    4   11 1
  10    5    6 2
  11    5   32 1
  12    6   33 1
  13    8    9 3
  14   10   12 1
  15   10   34 1
  16   10   35 1
  17   11   13 1
  18   11   17 1
  19   12   25 1
  20   12   36 1
  21   12   37 1
  22   13   14 1
  23   13   38 1
  24   13   39 1
  25   14   15 1
  26   14   40 1
  27   14   41 1
  28   15   16 1
  29   15   18 1
  30   16   17 1
  31   16   42 1
  32   16   43 1
  33   17   44 1
  34   17   45 1
  35   18   19 1
  36   18   46 1
  37   18   47 1
  38   19   20 ar
  39   19   24 ar
  40   20   21 ar
  41   20   48 1
  42   21   22 ar
  43   21   49 1
  44   22   23 ar
  45   22   50 1
  46   23   24 ar
  47   23   51 1
  48   24   52 1
  49   25   26 1
  50   26   27 ar
  51   26   31 ar
  52   27   28 ar
  53   27   53 1
  54   28   29 ar
  55   28   54 1
  56   29   30 ar
  57   29   55 1
  58   30   31 ar
  59   30   56 1
  60   31   57 1

#	End of record

