#	Name: ASD03912050
#	Creating user name:	WinNT
#	Creation time:	15. 06. 2019 20:47

#	Modifying user name:	WinNT
#	Modification time:	15. 06. 2019 20:47

#	Program:	/corina/corina34_cracker 3.40 0067  02.08.2006

@<TRIPOS>MOLECULE
ASD03912050
  65   67    0    0    0
SMALL
NO_CHARGES


@<TRIPOS>ATOM
   1 C1             0.5948    -0.0940     1.0088 C.ar    
   2 C2             1.5062     0.6344     1.7509 C.ar    
   3 C3             1.1285     1.8290     2.3362 C.ar    
   4 C4            -0.1613     2.2980     2.1814 C.ar    
   5 C5            -1.0791     1.5688     1.4367 C.ar    
   6 C6            -0.6948     0.3726     0.8451 C.ar    
   7 C7             1.0108    -1.3954     0.3727 C.3     
   8 C8             2.1250     2.6196     3.1442 C.3     
   9 N9            -2.3866     2.0412     1.2780 N.am    
  10 C10           -2.6181     3.3658     1.1867 C.2     
  11 C11           -4.0087     3.8696     0.8979 C.3     
  12 O12           -1.7072     4.1524     1.3370 O.2     
  13 C13           -3.9971     5.3757     0.8477 C.ar    
  14 C14           -3.7625     6.0245    -0.3505 C.ar    
  15 C15           -3.7513     7.4050    -0.3992 C.ar    
  16 C16           -3.9757     8.1405     0.7556 C.ar    
  17 C17           -4.2109     7.4871     1.9566 C.ar    
  18 C18           -4.2266     6.1064     1.9988 C.ar    
  19 O19           -3.9648     9.4987     0.7104 O.3     
  20 C20           -4.1837    10.1905     1.9414 C.3     
  21 C21           -5.5533     9.8653     2.4795 C.2     
  22 C22           -3.1069     9.7950     2.9670 C.3     
  23 C23           -2.3542    11.0897     3.3371 C.3     
  24 C24           -3.3632    12.2205     3.0170 C.3     
  25 C25           -4.0490    11.7118     1.7239 C.3     
  26 N26           -6.5897     9.7065     1.6327 N.am    
  27 O27           -5.7228     9.7463     3.6745 O.2     
  28 C28           -7.8962     9.2857     2.1448 C.3     
  29 C29           -8.6602    10.4928     2.6246 C.2     
  30 O30           -8.1643    11.5919     2.5467 O.2     
  31 O31           -9.8917    10.3471     3.1384 O.3     
  32 C32           -8.6828     8.5945     1.0293 C.3     
  33 C33           -7.9805     7.3211     0.6341 C.2     
  34 O34           -6.9560     6.9993     1.1879 O.2     
  35 O35           -8.4931     6.5443    -0.3331 O.3     
  36 H36            2.5152     0.2694     1.8740 H       
  37 H37           -0.4560     3.2307     2.6393 H       
  38 H38           -1.4061    -0.1966     0.2651 H       
  39 H39            0.8250    -2.2148     1.0671 H       
  40 H40            0.4353    -1.5543    -0.5392 H       
  41 H41            2.0728    -1.3581     0.1303 H       
  42 H42            2.6513     3.3160     2.4913 H       
  43 H43            1.6023     3.1756     3.9225 H       
  44 H44            2.8422     1.9391     3.6031 H       
  45 H45           -3.1263     1.4154     1.2337 H       
  46 H46           -4.3455     3.4767    -0.0615 H       
  47 H47           -4.6861     3.5375     1.6846 H       
  48 H48           -3.5875     5.4515    -1.2491 H       
  49 H49           -3.5677     7.9114    -1.3353 H       
  50 H50           -4.3859     8.0574     2.8569 H       
  51 H51           -4.4096     5.5972     2.9335 H       
  52 H52           -3.5750     9.3687     3.8543 H       
  53 H53           -2.4173     9.0754     2.5257 H       
  54 H54           -2.1004    11.0937     4.3972 H       
  55 H55           -1.4562    11.1962     2.7286 H       
  56 H56           -4.0901    12.3289     3.8220 H       
  57 H57           -2.8439    13.1613     2.8346 H       
  58 H58           -3.4250    11.9185     0.8544 H       
  59 H59           -5.0311    12.1701     1.6073 H       
  60 H60           -6.4706     9.8708     0.6842 H       
  61 H61           -7.7553     8.5919     2.9736 H       
  62 H62          -10.3425    11.1504     3.4328 H       
  63 H63           -9.6868     8.3609     1.3836 H       
  64 H64           -8.7472     9.2569     0.1660 H       
  65 H65           -8.0072     5.7374    -0.5519 H       
@<TRIPOS>BOND
   1    1    2 ar
   2    1    7 1
   3    1    6 ar
   4    2    3 ar
   5    2   36 1
   6    3    4 ar
   7    3    8 1
   8    4    5 ar
   9    4   37 1
  10    5    6 ar
  11    5    9 1
  12    6   38 1
  13    7   39 1
  14    7   40 1
  15    7   41 1
  16    8   42 1
  17    8   43 1
  18    8   44 1
  19    9   10 am
  20    9   45 1
  21   10   11 1
  22   10   12 2
  23   11   13 1
  24   11   46 1
  25   11   47 1
  26   13   14 ar
  27   13   18 ar
  28   14   15 ar
  29   14   48 1
  30   15   16 ar
  31   15   49 1
  32   16   17 ar
  33   16   19 1
  34   17   18 ar
  35   17   50 1
  36   18   51 1
  37   19   20 1
  38   20   21 1
  39   20   22 1
  40   20   25 1
  41   21   26 am
  42   21   27 2
  43   22   23 1
  44   22   52 1
  45   22   53 1
  46   23   24 1
  47   23   54 1
  48   23   55 1
  49   24   25 1
  50   24   56 1
  51   24   57 1
  52   25   58 1
  53   25   59 1
  54   26   28 1
  55   26   60 1
  56   28   29 1
  57   28   32 1
  58   28   61 1
  59   29   30 2
  60   29   31 1
  61   31   62 1
  62   32   33 1
  63   32   63 1
  64   32   64 1
  65   33   34 2
  66   33   35 1
  67   35   65 1

#	End of record

