#	Name: ASD01209127
#	Creating user name:	WinNT
#	Creation time:	15. 06. 2019 19:11

#	Modifying user name:	WinNT
#	Modification time:	15. 06. 2019 19:11

#	Program:	/corina/corina34_cracker 3.40 0067  02.08.2006

@<TRIPOS>MOLECULE
ASD01209127
  74   77    0    0    0
SMALL
NO_CHARGES


@<TRIPOS>ATOM
   1 C1             1.4637     3.6126     1.1288 C.ar    
   2 C2             1.8430     2.2798     1.1930 C.ar    
   3 C3             0.8989     1.2767     1.0241 C.ar    
   4 C4            -0.4267     1.6029     0.7900 C.ar    
   5 C5            -0.8125     2.9425     0.7246 C.ar    
   6 C6             0.1389     3.9477     0.9007 C.ar    
   7 O7             2.3921     4.5911     1.2953 O.3     
   8 O8             1.2757    -0.0274     1.0880 O.3     
   9 C9             1.2444    -0.7574    -0.0577 C.ar    
  10 C10            1.5516    -2.1101    -0.0285 C.ar    
  11 C11           -2.2261     3.2953     0.4749 C.2     
  12 N12           -2.5966     4.5897     0.4121 N.am    
  13 O13           -3.0544     2.4181     0.3262 O.2     
  14 C14           -3.9248     4.9212     0.1775 C.2     
  15 S15           -5.1903     3.7941    -0.0486 S.3     
  16 C16           -6.3423     5.1117    -0.2495 C.2     
  17 C17           -5.6787     6.2633    -0.1298 C.2     
  18 N18           -4.3865     6.1304     0.1036 N.2     
  19 P19           -6.9225     8.1455     1.3988 P.3     
  20 O20           -5.7835     8.1358     2.3438 O.2     
  21 C21            1.5191    -2.8499    -1.1947 C.ar    
  22 C22            1.1807    -2.2435    -2.3903 C.ar    
  23 C23            0.8740    -0.8956    -2.4222 C.ar    
  24 C24            0.8995    -0.1525    -1.2579 C.ar    
  25 S25            1.1407    -3.1898    -3.8760 S.o2    
  26 O26            1.3822    -2.2388    -4.9039 O.2     
  27 O27            2.0486    -4.2564    -3.6367 O.2     
  28 C28           -0.5608    -3.8115    -3.9710 C.3     
  29 C29           -6.3514     7.6068    -0.2465 C.3     
  30 C30            3.3390     4.7407     0.3353 C.ar    
  31 N31            3.3930     3.8932    -0.6821 N.ar    
  32 C32            4.3171     4.0417    -1.6161 C.ar    
  33 C33            5.2263     5.0792    -1.5325 C.ar    
  34 N34            5.1757     5.9265    -0.5185 N.ar    
  35 C35            4.2520     5.7876     0.4138 C.ar    
  36 O36           -8.0654     7.1412     1.9254 O.3     
  37 C37           -8.6081     7.2037     3.2459 C.3     
  38 C38          -10.1312     7.3252     3.1660 C.3     
  39 C39           -8.2374     5.9312     4.0103 C.3     
  40 O40           -7.5229     9.6358     1.2971 O.3     
  41 C41           -7.9065    10.4001     2.4419 C.3     
  42 C42           -6.9956    11.6230     2.5674 C.3     
  43 C43           -9.3577    10.8591     2.2858 C.3     
  44 H44            2.8759     2.0220     1.3747 H       
  45 H45           -1.1607     0.8217     0.6579 H       
  46 H46           -0.1555     4.9856     0.8508 H       
  47 H47            1.8164    -2.5842     0.9051 H       
  48 H48           -1.9356     5.2896     0.5307 H       
  49 H49           -7.4006     5.0060    -0.4372 H       
  50 H50            1.7585    -3.9028    -1.1725 H       
  51 H51            0.6103    -0.4242    -3.3574 H       
  52 H52            0.6599     0.9003    -1.2833 H       
  53 H53           -1.2535    -2.9706    -4.0054 H       
  54 H54           -0.6773    -4.4153    -4.8710 H       
  55 H55           -0.7740    -4.4222    -3.0937 H       
  56 H56           -5.6428     8.3348    -0.6415 H       
  57 H57           -7.2050     7.5285    -0.9198 H       
  58 H58            4.3617     3.3510    -2.4452 H       
  59 H59            5.9800     5.1980    -2.2969 H       
  60 H60            4.2108     6.4800     1.2416 H       
  61 H61           -8.2011     8.0712     3.7653 H       
  62 H62          -10.5464     6.4134     2.7367 H       
  63 H63          -10.5369     7.4731     4.1669 H       
  64 H64          -10.3954     8.1757     2.5376 H       
  65 H65           -8.6514     5.9789     5.0175 H       
  66 H66           -8.6444     5.0637     3.4909 H       
  67 H67           -7.1524     5.8446     4.0672 H       
  68 H68           -7.8143     9.7850     3.3370 H       
  69 H69           -7.2882    12.2060     3.4407 H       
  70 H70           -5.9617    11.2960     2.6787 H       
  71 H71           -7.0878    12.2381     1.6724 H       
  72 H72          -10.0152     9.9897     2.2807 H       
  73 H73           -9.6240    11.5111     3.1177 H       
  74 H74           -9.4677    11.4034     1.3479 H       
@<TRIPOS>BOND
   1    1    2 ar
   2    1    7 1
   3    1    6 ar
   4    2    3 ar
   5    2   44 1
   6    3    4 ar
   7    3    8 1
   8    4    5 ar
   9    4   45 1
  10    5    6 ar
  11    5   11 1
  12    6   46 1
  13    7   30 1
  14    8    9 1
  15    9   10 ar
  16    9   24 ar
  17   10   21 ar
  18   10   47 1
  19   11   12 am
  20   11   13 2
  21   12   14 1
  22   12   48 1
  23   14   15 1
  24   14   18 2
  25   15   16 1
  26   16   17 2
  27   16   49 1
  28   17   18 1
  29   17   29 1
  30   19   20 2
  31   19   36 1
  32   19   40 1
  33   19   29 1
  34   21   22 ar
  35   21   50 1
  36   22   23 ar
  37   22   25 1
  38   23   24 ar
  39   23   51 1
  40   24   52 1
  41   25   26 2
  42   25   27 2
  43   25   28 1
  44   28   53 1
  45   28   54 1
  46   28   55 1
  47   29   56 1
  48   29   57 1
  49   30   31 ar
  50   30   35 ar
  51   31   32 ar
  52   32   33 ar
  53   32   58 1
  54   33   34 ar
  55   33   59 1
  56   34   35 ar
  57   35   60 1
  58   36   37 1
  59   37   38 1
  60   37   39 1
  61   37   61 1
  62   38   62 1
  63   38   63 1
  64   38   64 1
  65   39   65 1
  66   39   66 1
  67   39   67 1
  68   40   41 1
  69   41   42 1
  70   41   43 1
  71   41   68 1
  72   42   69 1
  73   42   70 1
  74   42   71 1
  75   43   72 1
  76   43   73 1
  77   43   74 1

#	End of record

