#	Name: ASD01882078
#	Creating user name:	WinNT
#	Creation time:	15. 06. 2019 19:43

#	Modifying user name:	WinNT
#	Modification time:	15. 06. 2019 19:43

#	Program:	/corina/corina34_cracker 3.40 0067  02.08.2006

@<TRIPOS>MOLECULE
ASD01882078
  18   17    0    0    0
SMALL
NO_CHARGES


@<TRIPOS>ATOM
   1 C1             0.0105     0.0140    -0.2216 C.1     
   2 C2            -0.0159     1.4409    -0.1040 C.2     
   3 C3             1.2084     2.1835    -0.1213 C.1     
   4 N4             0.0314    -1.1180    -0.3150 N.1     
   5 N5             2.1797     2.7726    -0.1350 N.1     
   6 C6            -1.2059     2.0924     0.0188 C.2     
   7 C7            -1.2293     3.5788     0.2660 C.3     
   8 O8            -2.3603     1.4088    -0.0806 O.3     
   9 C9            -3.2149     1.7195    -1.2126 C.3     
  10 C10           -4.4096     0.7638    -1.2272 C.3     
  11 H11           -1.2473     4.1056    -0.6881 H       
  12 H12           -2.1185     3.8376     0.8408 H       
  13 H13           -0.3389     3.8683     0.8242 H       
  14 H14           -3.5718     2.7459    -1.1276 H       
  15 H15           -2.6485     1.6072    -2.1371 H       
  16 H16           -4.0528    -0.2627    -1.3122 H       
  17 H17           -4.9760     0.8761    -0.3027 H       
  18 H18           -5.0512     0.9970    -2.0770 H       
@<TRIPOS>BOND
   1    1    2 1
   2    1    4 3
   3    2    3 1
   4    2    6 2
   5    3    5 3
   6    6    7 1
   7    6    8 1
   8    7   11 1
   9    7   12 1
  10    7   13 1
  11    8    9 1
  12    9   10 1
  13    9   14 1
  14    9   15 1
  15   10   16 1
  16   10   17 1
  17   10   18 1

#	End of record

