#	Name: ASD00170765
#	Creating user name:	WinNT
#	Creation time:	15. 06. 2019 18:32

#	Modifying user name:	WinNT
#	Modification time:	15. 06. 2019 18:32

#	Program:	/corina/corina34_cracker 3.40 0067  02.08.2006

@<TRIPOS>MOLECULE
ASD00170765
  64   68    0    0    0
SMALL
NO_CHARGES


@<TRIPOS>ATOM
   1 C1             2.0255     1.3812     0.6849 C.3     
   2 O2             1.3719     0.1643     0.3189 O.3     
   3 C3             1.8422    -0.4823    -0.7801 C.ar    
   4 C4             1.2517    -1.6702    -1.1900 C.ar    
   5 C5             1.7261    -2.3295    -2.3041 C.ar    
   6 C6             2.8014    -1.8010    -3.0204 C.ar    
   7 C7             3.3920    -0.6062    -2.6051 C.ar    
   8 C8             2.9082     0.0496    -1.4930 C.ar    
   9 C9             3.3136    -2.5048    -4.2152 C.2     
  10 S10            3.7359    -4.2086    -4.2735 S.3     
  11 C11            4.1833    -4.1021    -5.9161 C.2     
  12 C12            4.0105    -2.8180    -6.3777 C.2     
  13 C13            3.5172    -1.9360    -5.4116 C.2     
  14 C14            3.2479    -0.4791    -5.6874 C.3     
  15 C15            1.7847    -0.2996    -6.0971 C.3     
  16 C16            0.8766    -0.6865    -4.9281 C.3     
  17 C17            1.5363     1.1624    -6.4737 C.3     
  18 C18            1.4781    -1.1951    -7.2992 C.3     
  19 C19            4.3111    -2.4134    -7.7540 C.2     
  20 O20            3.4955    -2.6061    -8.6370 O.2     
  21 C21            5.6047    -1.7714    -8.0700 C.ar    
  22 C22            5.8541    -1.2944    -9.3581 C.ar    
  23 C23            7.0625    -0.6958    -9.6474 C.ar    
  24 C24            8.0283    -0.5675    -8.6634 C.ar    
  25 C25            7.7870    -1.0390    -7.3821 C.ar    
  26 C26            6.5796    -1.6345    -7.0796 C.ar    
  27 Cl27           9.0037    -0.8745    -6.1547 Cl      
  28 Cl28           9.5472     0.1862    -9.0357 Cl      
  29 N29            4.6551    -5.1607    -6.6784 N.am    
  30 C30            5.9569    -5.4470    -6.8601 C.2     
  31 O31            6.8908    -4.8295    -6.3898 O.2     
  32 C32            6.0602    -6.6391    -7.7275 C.ar    
  33 C33            4.7345    -7.0134    -8.0282 C.ar    
  34 C34            3.8709    -6.0394    -7.3285 C.2     
  35 O35            2.6566    -6.0292    -7.3443 O.2     
  36 C36            4.4956    -8.1138    -8.8358 C.ar    
  37 C37            5.5628    -8.8390    -9.3425 C.ar    
  38 C38            6.8625    -8.4722    -9.0473 C.ar    
  39 C39            7.1170    -7.3734    -8.2416 C.ar    
  40 H40            3.0771     1.1811     0.8905 H       
  41 H41            1.9450     2.0971    -0.1330 H       
  42 H42            1.5531     1.7934     1.5765 H       
  43 H43            0.4198    -2.0784    -0.6352 H       
  44 H44            1.2667    -3.2538    -2.6219 H       
  45 H45            4.2243    -0.1942    -3.1564 H       
  46 H46            3.3645     0.9740    -1.1711 H       
  47 H47            3.4476     0.1038    -4.7883 H       
  48 H48            3.8958    -0.1362    -6.4941 H       
  49 H49            1.1653    -0.1221    -4.0414 H       
  50 H50           -0.1589    -0.4598    -5.1819 H       
  51 H51            0.9764    -1.7534    -4.7282 H       
  52 H52            2.1832     1.4381    -7.3065 H       
  53 H53            0.4939     1.2903    -6.7655 H       
  54 H54            1.7547     1.8004    -5.6173 H       
  55 H55            1.6551    -2.2366    -7.0309 H       
  56 H56            0.4358    -1.0671    -7.5910 H       
  57 H57            2.1251    -0.9194    -8.1320 H       
  58 H58            5.1022    -1.3943   -10.1269 H       
  59 H59            7.2561    -0.3266   -10.6437 H       
  60 H60            6.3922    -2.0016    -6.0813 H       
  61 H61            3.4822    -8.4054    -9.0692 H       
  62 H62            5.3775    -9.6967    -9.9720 H       
  63 H63            7.6855    -9.0457    -9.4476 H       
  64 H64            8.1345    -7.0916    -8.0143 H       
@<TRIPOS>BOND
   1    1    2 1
   2    1   40 1
   3    1   41 1
   4    1   42 1
   5    2    3 1
   6    3    4 ar
   7    3    8 ar
   8    4    5 ar
   9    4   43 1
  10    5    6 ar
  11    5   44 1
  12    6    7 ar
  13    6    9 1
  14    7    8 ar
  15    7   45 1
  16    8   46 1
  17    9   10 1
  18    9   13 2
  19   10   11 1
  20   11   12 2
  21   11   29 1
  22   12   13 1
  23   12   19 1
  24   13   14 1
  25   14   15 1
  26   14   47 1
  27   14   48 1
  28   15   16 1
  29   15   17 1
  30   15   18 1
  31   16   49 1
  32   16   50 1
  33   16   51 1
  34   17   52 1
  35   17   53 1
  36   17   54 1
  37   18   55 1
  38   18   56 1
  39   18   57 1
  40   19   20 2
  41   19   21 1
  42   21   22 ar
  43   21   26 ar
  44   22   23 ar
  45   22   58 1
  46   23   24 ar
  47   23   59 1
  48   24   25 ar
  49   24   28 1
  50   25   26 ar
  51   25   27 1
  52   26   60 1
  53   29   30 am
  54   29   34 am
  55   30   31 2
  56   30   32 1
  57   32   33 ar
  58   32   39 ar
  59   33   34 1
  60   33   36 ar
  61   34   35 2
  62   36   37 ar
  63   36   61 1
  64   37   38 ar
  65   37   62 1
  66   38   39 ar
  67   38   63 1
  68   39   64 1

#	End of record

