#	Name: ASD01916746
#	Creating user name:	WinNT
#	Creation time:	15. 06. 2019 20:07

#	Modifying user name:	WinNT
#	Modification time:	15. 06. 2019 20:07

#	Program:	/corina/corina34_cracker 3.40 0067  02.08.2006

@<TRIPOS>MOLECULE
ASD01916746
  49   52    0    0    0
SMALL
NO_CHARGES


@<TRIPOS>ATOM
   1 C1            -0.1419     1.0007    -0.9195 C.ar    
   2 C2            -0.0702    -0.2242    -0.2197 C.ar    
   3 C3            -1.1783    -0.7034     0.4757 C.ar    
   4 C4            -2.3442     0.0084     0.4699 C.ar    
   5 C5            -2.4362     1.2180    -0.2295 C.ar    
   6 C6            -1.3405     1.7166    -0.9235 C.ar    
   7 N7             0.9613     1.4492    -1.5582 N.2     
   8 C8             2.0905     0.7852    -1.5807 C.2     
   9 N9             2.2101    -0.4466    -1.0247 N.am    
  10 C10            1.1996    -0.9610    -0.2715 C.2     
  11 C11           -3.7105     1.9710    -0.2300 C.2     
  12 O12            1.3440    -2.0025     0.3415 O.2     
  13 N13           -4.8706     1.3326     0.0213 N.am    
  14 C14            3.2628     1.4878    -2.2137 C.3     
  15 C15            4.3537     0.5321    -2.6436 C.3     
  16 C16            4.6228    -0.5355    -1.6029 C.3     
  17 C17            3.3739    -1.3019    -1.2306 C.3     
  18 C18           -6.0545     2.0581     0.1348 C.ar    
  19 N19           -7.2176     1.4293     0.0709 N.ar    
  20 C20           -8.3616     2.0784     0.1738 C.ar    
  21 C21           -8.3855     3.4473     0.3526 C.ar    
  22 C22           -7.1869     4.1444     0.4249 C.ar    
  23 C23           -6.0035     3.4354     0.3198 C.ar    
  24 O24           -3.7108     3.1649    -0.4570 O.2     
  25 C25            5.6602    -1.5155    -2.1545 C.3     
  26 C26            5.1903     0.1284    -0.3467 C.3     
  27 C27           -4.8866    -0.1242     0.1752 C.3     
  28 H28           -1.1158    -1.6354     1.0177 H       
  29 H29           -3.2023    -0.3651     1.0089 H       
  30 H30           -1.4152     2.6503    -1.4611 H       
  31 H31            2.9132     2.0386    -3.0870 H       
  32 H32            3.6778     2.1959    -1.4965 H       
  33 H33            4.0555     0.0508    -3.5750 H       
  34 H34            5.2702     1.0963    -2.8166 H       
  35 H35            3.5657    -1.8582    -0.3131 H       
  36 H36            3.1494    -2.0122    -2.0264 H       
  37 H37           -9.2914     1.5319     0.1170 H       
  38 H38           -9.3267     3.9704     0.4351 H       
  39 H39           -7.1785     5.2153     0.5644 H       
  40 H40           -5.0532     3.9458     0.3721 H       
  41 H41            6.5824    -0.9799    -2.3797 H       
  42 H42            5.8607    -2.2882    -1.4124 H       
  43 H43            5.2764    -1.9767    -3.0646 H       
  44 H44            4.4691     0.8477     0.0415 H       
  45 H45            5.3873    -0.6323     0.4088 H       
  46 H46            6.1186     0.6427    -0.5953 H       
  47 H47           -4.8247    -0.3785     1.2333 H       
  48 H48           -5.8116    -0.5234    -0.2409 H       
  49 H49           -4.0354    -0.5546    -0.3523 H       
@<TRIPOS>BOND
   1    1    2 ar
   2    1    7 1
   3    1    6 ar
   4    2    3 ar
   5    2   10 1
   6    3    4 ar
   7    3   28 1
   8    4    5 ar
   9    4   29 1
  10    5    6 ar
  11    5   11 1
  12    6   30 1
  13    7    8 2
  14    8    9 1
  15    8   14 1
  16    9   10 am
  17    9   17 1
  18   10   12 2
  19   11   13 am
  20   11   24 2
  21   13   18 1
  22   13   27 1
  23   14   15 1
  24   14   31 1
  25   14   32 1
  26   15   16 1
  27   15   33 1
  28   15   34 1
  29   16   17 1
  30   16   25 1
  31   16   26 1
  32   17   35 1
  33   17   36 1
  34   18   19 ar
  35   18   23 ar
  36   19   20 ar
  37   20   21 ar
  38   20   37 1
  39   21   22 ar
  40   21   38 1
  41   22   23 ar
  42   22   39 1
  43   23   40 1
  44   25   41 1
  45   25   42 1
  46   25   43 1
  47   26   44 1
  48   26   45 1
  49   26   46 1
  50   27   47 1
  51   27   48 1
  52   27   49 1

#	End of record

