#	Name: ASD01840190
#	Creating user name:	WinNT
#	Creation time:	15. 06. 2019 19:37

#	Modifying user name:	WinNT
#	Modification time:	15. 06. 2019 19:37

#	Program:	/corina/corina34_cracker 3.40 0067  02.08.2006

@<TRIPOS>MOLECULE
ASD01840190
  44   47    0    0    0
SMALL
NO_CHARGES


@<TRIPOS>ATOM
   1 C1            -1.7085     1.4897    -0.1431 C.3     
   2 C2            -1.7842    -0.0465    -0.0803 C.3     
   3 N3            -1.2518    -0.7123    -1.2718 N.am    
   4 C4            -1.6801    -1.9468    -1.6019 C.2     
   5 C5            -1.1488    -2.6113    -2.7911 C.2     
   6 O6            -2.5094    -2.5087    -0.9100 O.2     
   7 C7            -1.5149    -3.8492    -3.2062 C.2     
   8 C8            -0.8448    -4.2891    -4.4160 C.ar    
   9 C9             0.0511    -3.3299    -4.9071 C.ar    
  10 S10            0.0396    -1.9094    -3.8715 S.3     
  11 C11           -0.9652    -5.4986    -5.1376 C.ar    
  12 C12           -0.1981    -5.6557    -6.2710 C.ar    
  13 N13            0.6214    -4.6934    -6.6584 N.ar    
  14 N14            0.7432    -3.5907    -6.0186 N.ar    
  15 C15           -0.2931    -6.9288    -7.0716 C.3     
  16 C16           -1.9046    -6.5846    -4.6801 C.3     
  17 N17           -2.4479    -4.6268    -2.5336 N.pl3   
  18 C18           -0.7755     0.0496     1.0785 C.3     
  19 N19           -0.3815     1.3517     0.4967 N.3     
  20 C20           -0.2043     2.3138     1.4956 C.ar    
  21 C21           -1.1796     2.4943     2.4678 C.ar    
  22 C22            0.9495     3.0859     1.5202 C.ar    
  23 C23            1.1238     4.0362     2.5081 C.ar    
  24 C24            0.1498     4.2192     3.4738 C.ar    
  25 C25           -1.0018     3.4462     3.4550 C.ar    
  26 F26            0.3228     5.1486     4.4390 F       
  27 F27           -1.9495     3.6230     4.4014 F       
  28 H28           -1.6678     1.8863    -1.1575 H       
  29 H29           -2.4472     1.9917     0.4818 H       
  30 H30           -2.7618    -0.4258     0.2172 H       
  31 H31           -0.5911    -0.2646    -1.8230 H       
  32 H32           -1.0682    -6.8236    -7.8308 H       
  33 H33            0.6639    -7.1267    -7.5544 H       
  34 H34           -0.5438    -7.7570    -6.4088 H       
  35 H35           -2.9073    -6.3794    -5.0551 H       
  36 H36           -1.5630    -7.5459    -5.0637 H       
  37 H37           -1.9231    -6.6139    -3.5907 H       
  38 H38           -2.6528    -4.4424    -1.6036 H       
  39 H39           -2.8949    -5.3544    -2.9937 H       
  40 H40           -1.2413     0.1304     2.0607 H       
  41 H41            0.0107    -0.7045     1.0401 H       
  42 H42           -2.0760     1.8922     2.4526 H       
  43 H43            1.7107     2.9436     0.7674 H       
  44 H44            2.0214     4.6365     2.5268 H       
@<TRIPOS>BOND
   1    1    2 1
   2    1   19 1
   3    1   28 1
   4    1   29 1
   5    2    3 1
   6    2   18 1
   7    2   30 1
   8    3    4 am
   9    3   31 1
  10    4    5 1
  11    4    6 2
  12    5    7 2
  13    5   10 1
  14    7    8 1
  15    7   17 1
  16    8    9 ar
  17    8   11 ar
  18    9   10 1
  19    9   14 ar
  20   11   12 ar
  21   11   16 1
  22   12   13 ar
  23   12   15 1
  24   13   14 ar
  25   15   32 1
  26   15   33 1
  27   15   34 1
  28   16   35 1
  29   16   36 1
  30   16   37 1
  31   17   38 1
  32   17   39 1
  33   18   19 1
  34   18   40 1
  35   18   41 1
  36   19   20 1
  37   20   22 ar
  38   20   21 ar
  39   21   25 ar
  40   21   42 1
  41   22   23 ar
  42   22   43 1
  43   23   24 ar
  44   23   44 1
  45   24   25 ar
  46   24   26 1
  47   25   27 1

#	End of record

