#	Name: ASD01820176
#	Creating user name:	WinNT
#	Creation time:	15. 06. 2019 19:36

#	Modifying user name:	WinNT
#	Modification time:	15. 06. 2019 19:36

#	Program:	/corina/corina34_cracker 3.40 0067  02.08.2006

@<TRIPOS>MOLECULE
ASD01820176
 108  111    0    0    0
SMALL
NO_CHARGES


@<TRIPOS>ATOM
   1 C1            -0.0170     1.4054     0.0098 C.ar    
   2 C2             0.0021    -0.0041     0.0020 C.ar    
   3 C3            -1.4140    -0.4277     0.0138 C.2     
   4 N4            -2.1901     0.6710     0.0273 N.am    
   5 C5            -1.4440     1.7904     0.0314 C.2     
   6 C6            -3.6549     0.6510     0.0417 C.3     
   7 C7            -4.1505     0.6370     1.4892 C.3     
   8 C8            -5.6803     0.6162     1.5042 C.3     
   9 N9            -6.1562     0.6027     2.8939 N.4     
  10 C10           -7.6250     0.5827     2.9084 C.3     
  11 C11           -8.1206     0.5687     4.3558 C.3     
  12 C12           -9.6504     0.5478     4.3708 C.3     
  13 C13          -10.1460     0.5338     5.8183 C.3     
  14 C14          -11.6758     0.5130     5.8333 C.3     
  15 C15          -12.1715     0.4989     7.2807 C.3     
  16 N16          -13.6403     0.4789     7.2952 N.4     
  17 C17          -14.1161     0.4655     8.6849 C.3     
  18 C18          -15.6459     0.4446     8.7000 C.3     
  19 N19          -17.6064     0.4107    10.1618 N.am    
  20 O20           -1.8714     2.9271     0.0430 O.2     
  21 O21           -1.8105    -1.5757     0.0112 O.2     
  22 C22          -16.1416     0.4306    10.1474 C.3     
  23 C23          -18.3524    -0.7088    10.1641 C.2     
  24 C24          -19.7794    -0.3238    10.1800 C.ar    
  25 C25          -19.7985     1.0857    10.1865 C.ar    
  26 C26          -18.3824     1.5093    10.1802 C.2     
  27 C27          -20.9719    -1.0291    10.1890 C.ar    
  28 C28          -22.1762    -0.3426    10.2044 C.ar    
  29 C29          -22.1950     1.0393    10.2108 C.ar    
  30 C30          -21.0097     1.7583    10.2019 C.ar    
  31 O31          -17.9249    -1.8455    10.1548 O.2     
  32 O32          -17.9859     2.6573    10.1835 O.2     
  33 C33          -14.1530     1.6750     6.6136 C.3     
  34 C34          -14.1205    -0.7236     6.6015 C.3     
  35 C35           -5.6435    -0.5934     3.5755 C.3     
  36 C36           -5.6760     1.8053     3.5876 C.3     
  37 C37            1.1755     2.1107     0.0022 C.ar    
  38 C38            2.3798     1.4243    -0.0130 C.ar    
  39 C39            2.3986     0.0424    -0.0211 C.ar    
  40 C40            1.2133    -0.6766    -0.0136 C.ar    
  41 C41            3.6776     2.1903    -0.0213 C.3     
  42 C42            3.7622     3.0639     1.2319 C.3     
  43 C43            4.8499     1.2073    -0.0378 C.3     
  44 C44            3.7383     3.0773    -1.2664 C.3     
  45 C45          -23.5130     1.7697    10.2275 C.3     
  46 C46          -24.6583     0.7552    10.2347 C.3     
  47 C47          -23.5968     2.6422    11.4816 C.3     
  48 C48          -23.6223     2.6534     8.9833 C.3     
  49 H49           -4.0353     1.5385    -0.4640 H       
  50 H50           -4.0112    -0.2413    -0.4730 H       
  51 H51           -3.7701    -0.2505     1.9949 H       
  52 H52           -3.7942     1.5293     2.0039 H       
  53 H53           -6.0607     1.5037     0.9985 H       
  54 H54           -6.0366    -0.2761     0.9895 H       
  55 H55           -8.0054     1.4702     2.4026 H       
  56 H56           -7.9813    -0.3096     2.3936 H       
  57 H57           -7.7402    -0.3188     4.8615 H       
  58 H58           -7.7643     1.4610     4.8705 H       
  59 H59          -10.0308     1.4353     3.8651 H       
  60 H60          -10.0067    -0.3445     3.8561 H       
  61 H61           -9.7656    -0.3537     6.3240 H       
  62 H62           -9.7897     1.4261     6.3330 H       
  63 H63          -12.0563     1.4005     5.3276 H       
  64 H64          -12.0321    -0.3793     5.3186 H       
  65 H65          -11.7910    -0.3885     7.7865 H       
  66 H66          -11.8152     1.3912     7.7955 H       
  67 H67          -13.7357    -0.4220     9.1906 H       
  68 H68          -13.7598     1.3578     9.1996 H       
  69 H69          -16.0264     1.3321     8.1942 H       
  70 H70          -16.0022    -0.4477     8.1852 H       
  71 H71          -15.7611    -0.4569    10.6531 H       
  72 H72          -15.7853     1.3229    10.6621 H       
  73 H73          -20.9633    -2.1090    10.1837 H       
  74 H74          -23.1063    -0.8915    10.2111 H       
  75 H75          -21.0303     2.8381    10.2069 H       
  76 H76          -13.7999     1.6850     5.5824 H       
  77 H77          -15.2428     1.6602     6.6243 H       
  78 H78          -13.7967     2.5673     7.1284 H       
  79 H79          -13.7400    -1.6111     7.1072 H       
  80 H80          -15.2103    -0.7385     6.6122 H       
  81 H81          -13.7673    -0.7136     5.5703 H       
  82 H82           -4.5536    -0.5785     3.5648 H       
  83 H83           -5.9966    -0.6034     4.6067 H       
  84 H84           -5.9998    -1.4857     3.0608 H       
  85 H85           -6.0564     2.6927     3.0819 H       
  86 H86           -6.0291     1.7952     4.6188 H       
  87 H87           -4.5861     1.8201     3.5769 H       
  88 H88            1.1668     3.1907     0.0077 H       
  89 H89            3.3432    -0.4810    -0.0336 H       
  90 H90            1.2339    -1.7564    -0.0199 H       
  91 H91            3.7189     2.4320     2.1190 H       
  92 H92            4.7009     3.6179     1.2259 H       
  93 H93            2.9270     3.7642     1.2436 H       
  94 H94            4.7897     0.5849    -0.9306 H       
  95 H95            5.7886     1.7613    -0.0438 H       
  96 H96            4.8067     0.5753     0.8493 H       
  97 H97            2.9031     3.7776    -1.2547 H       
  98 H98            4.6770     3.6314    -1.2724 H       
  99 H99            3.6781     2.4549    -2.1592 H       
 100 H100         -24.5804     0.1256    11.1211 H       
 101 H101         -25.6116     1.2834    10.2468 H       
 102 H102         -24.5986     0.1336     9.3412 H       
 103 H103         -22.7809     3.3649    11.4765 H       
 104 H104         -24.5501     3.1704    11.4937 H       
 105 H105         -23.5189     2.0126    12.3680 H       
 106 H106         -23.5627     2.0318     8.0898 H       
 107 H107         -24.5756     3.1816     8.9954 H       
 108 H108         -22.8064     3.3762     8.9782 H       
@<TRIPOS>BOND
   1    1    2 ar
   2    1   37 ar
   3    1    5 1
   4    2    3 1
   5    2   40 ar
   6    3    4 am
   7    3   21 2
   8    4    5 am
   9    4    6 1
  10    5   20 2
  11    6    7 1
  12    6   49 1
  13    6   50 1
  14    7    8 1
  15    7   51 1
  16    7   52 1
  17    8    9 1
  18    8   53 1
  19    8   54 1
  20    9   10 1
  21    9   35 1
  22    9   36 1
  23   10   11 1
  24   10   55 1
  25   10   56 1
  26   11   12 1
  27   11   57 1
  28   11   58 1
  29   12   13 1
  30   12   59 1
  31   12   60 1
  32   13   14 1
  33   13   61 1
  34   13   62 1
  35   14   15 1
  36   14   63 1
  37   14   64 1
  38   15   16 1
  39   15   65 1
  40   15   66 1
  41   16   17 1
  42   16   33 1
  43   16   34 1
  44   17   18 1
  45   17   67 1
  46   17   68 1
  47   18   22 1
  48   18   69 1
  49   18   70 1
  50   19   23 am
  51   19   22 1
  52   19   26 am
  53   22   71 1
  54   22   72 1
  55   23   24 1
  56   23   31 2
  57   24   25 ar
  58   24   27 ar
  59   25   26 1
  60   25   30 ar
  61   26   32 2
  62   27   28 ar
  63   27   73 1
  64   28   29 ar
  65   28   74 1
  66   29   30 ar
  67   29   45 1
  68   30   75 1
  69   33   76 1
  70   33   77 1
  71   33   78 1
  72   34   79 1
  73   34   80 1
  74   34   81 1
  75   35   82 1
  76   35   83 1
  77   35   84 1
  78   36   85 1
  79   36   86 1
  80   36   87 1
  81   37   38 ar
  82   37   88 1
  83   38   39 ar
  84   38   41 1
  85   39   40 ar
  86   39   89 1
  87   40   90 1
  88   41   42 1
  89   41   43 1
  90   41   44 1
  91   42   91 1
  92   42   92 1
  93   42   93 1
  94   43   94 1
  95   43   95 1
  96   43   96 1
  97   44   97 1
  98   44   98 1
  99   44   99 1
 100   45   46 1
 101   45   47 1
 102   45   48 1
 103   46  100 1
 104   46  101 1
 105   46  102 1
 106   47  103 1
 107   47  104 1
 108   47  105 1
 109   48  106 1
 110   48  107 1
 111   48  108 1

#	End of record

