#	Name: ASD08150386
#	Creating user name:	WinNT
#	Creation time:	15. 06. 2019 21:15

#	Modifying user name:	WinNT
#	Modification time:	15. 06. 2019 21:15

#	Program:	/corina/corina34_cracker 3.40 0067  02.08.2006

@<TRIPOS>MOLECULE
ASD08150386
  39   41    0    0    0
SMALL
NO_CHARGES


@<TRIPOS>ATOM
   1 N1             0.0281     1.1009     0.5147 N.2     
   2 C2            -0.0468    -0.1905     0.4029 C.2     
   3 N3             0.8587    -0.9348    -0.2879 N.am    
   4 C4             1.9073    -0.3437    -0.9065 C.2     
   5 C5             2.0205     1.1181    -0.7987 C.ar    
   6 C6             3.0622     1.8226    -1.3991 C.ar    
   7 C7             3.1199     3.1926    -1.2667 C.ar    
   8 C8             2.1506     3.8737    -0.5417 C.ar    
   9 C9             1.1137     3.1965     0.0595 C.ar    
  10 C10            1.0329     1.8075    -0.0606 C.ar    
  11 O11            2.7253    -0.9971    -1.5277 O.2     
  12 C12            4.1182     1.0911    -2.1870 C.3     
  13 C13            0.7045    -2.3251    -0.3592 C.ar    
  14 C14           -0.1830    -2.8799    -1.2707 C.ar    
  15 C15           -0.3329    -4.2560    -1.3382 C.ar    
  16 C16            0.4042    -5.0758    -0.4949 C.ar    
  17 C17            1.2873    -4.5216     0.4119 C.ar    
  18 C18            1.4436    -3.1504     0.4782 C.ar    
  19 O19           -1.2014    -4.8024    -2.2293 O.3     
  20 C20           -1.1947    -0.9010     1.0727 C.3     
  21 C21           -2.4007    -0.9217     0.1314 C.3     
  22 N22           -0.7985    -2.2793     1.3912 N.3     
  23 H23            3.9260     3.7418    -1.7304 H       
  24 H24            2.2113     4.9479    -0.4481 H       
  25 H25            0.3662     3.7368     0.6213 H       
  26 H26            3.7646     0.9288    -3.2052 H       
  27 H27            5.0314     1.6857    -2.2101 H       
  28 H28            4.3224     0.1297    -1.7157 H       
  29 H29           -0.7560    -2.2405    -1.9258 H       
  30 H30            0.2872    -6.1481    -0.5473 H       
  31 H31            1.8596    -5.1616     1.0670 H       
  32 H32            2.1380    -2.7199     1.1845 H       
  33 H33           -0.8085    -5.0011    -3.0903 H       
  34 H34           -1.4596    -0.3776     1.9913 H       
  35 H35           -3.2480    -1.3853     0.6366 H       
  36 H36           -2.6596     0.0991    -0.1498 H       
  37 H37           -2.1538    -1.4934    -0.7631 H       
  38 H38           -0.0707    -2.2940     2.0899 H       
  39 H39           -1.5941    -2.8252     1.6862 H       
@<TRIPOS>BOND
   1    1    2 2
   2    1   10 1
   3    2    3 1
   4    2   20 1
   5    3    4 am
   6    3   13 1
   7    4    5 1
   8    4   11 2
   9    5    6 ar
  10    5   10 ar
  11    6    7 ar
  12    6   12 1
  13    7    8 ar
  14    7   23 1
  15    8    9 ar
  16    8   24 1
  17    9   10 ar
  18    9   25 1
  19   12   26 1
  20   12   27 1
  21   12   28 1
  22   13   14 ar
  23   13   18 ar
  24   14   15 ar
  25   14   29 1
  26   15   16 ar
  27   15   19 1
  28   16   17 ar
  29   16   30 1
  30   17   18 ar
  31   17   31 1
  32   18   32 1
  33   19   33 1
  34   20   21 1
  35   20   22 1
  36   20   34 1
  37   21   35 1
  38   21   36 1
  39   21   37 1
  40   22   38 1
  41   22   39 1

#	End of record

