#	Name: ASD04220035
#	Creating user name:	WinNT
#	Creation time:	15. 06. 2019 20:48

#	Modifying user name:	WinNT
#	Modification time:	15. 06. 2019 20:48

#	Program:	/corina/corina34_cracker 3.40 0067  02.08.2006

@<TRIPOS>MOLECULE
ASD04220035
  57   59    0    0    0
SMALL
NO_CHARGES


@<TRIPOS>ATOM
   1 C1             0.4253     1.4670     0.3619 C.3     
   2 N2             0.3997     0.0007     0.3288 N.am    
   3 C3             0.9282    -0.6568    -0.8780 C.3     
   4 C4             2.4189    -0.3355    -0.9724 C.3     
   5 C5             2.6650     1.1353    -0.7615 C.ar    
   6 C6             3.8736     1.6602    -1.2178 C.ar    
   7 C7             4.1675     3.0016    -1.0477 C.ar    
   8 C8             3.2574     3.8303    -0.4204 C.ar    
   9 C9             2.0551     3.3129     0.0299 C.ar    
  10 C10            1.7566     1.9633    -0.1437 C.ar    
  11 C11            0.7334    -2.1475    -0.7734 C.2     
  12 O12           -0.1253    -2.6984    -1.4408 O.co2   
  13 O13            1.4346    -2.8026    -0.0212 O.co2   
  14 C14           -0.0873    -0.7156     1.3614 C.2     
  15 C15           -0.5016    -0.0197     2.6323 C.3     
  16 C16           -1.0147    -1.0540     3.6361 C.3     
  17 O17           -0.1921    -1.9202     1.2678 O.2     
  18 C18           -1.4291    -0.3581     4.9070 C.ar    
  19 C19           -2.7010     0.1844     5.0177 C.ar    
  20 C20           -3.0824     0.8244     6.1874 C.ar    
  21 C21           -2.1958     0.9213     7.2425 C.ar    
  22 C22           -0.9245     0.3785     7.1319 C.ar    
  23 C23           -0.5444    -0.2654     5.9635 C.ar    
  24 O24           -0.0518     0.4739     8.1704 O.3     
  25 S25           -0.1255    -0.6889     9.1497 S.o2    
  26 O26            0.5803    -0.2710    10.3510 O.co2   
  27 O27           -1.5365    -0.9351     9.4032 O.co2   
  28 O28            0.5190    -1.8222     8.5043 O.co2   
  29 O29           -3.5736     0.0890     3.9792 O.3     
  30 S30           -4.4414    -1.1609     4.0126 S.o2    
  31 O31           -5.0360    -1.2941     2.6917 O.co2   
  32 O32           -3.5608    -2.2745     4.3297 O.co2   
  33 O33           -5.4448    -0.9475     5.0439 O.co2   
  34 O34            1.1585     4.1282     0.6469 O.3     
  35 S35            0.1665     4.7870    -0.3009 S.o2    
  36 O36           -0.4626     5.8710     0.4375 O.co2   
  37 O37            0.9323     5.2734    -1.4380 O.co2   
  38 O38           -0.7905     3.7612    -0.6858 O.co2   
  39 O39            4.7715     0.8465    -1.8349 O.3     
  40 S40            4.5934     0.7599    -3.3439 S.o2    
  41 O41            5.3629    -0.3905    -3.7917 O.co2   
  42 O42            3.1693     0.5930    -3.5893 O.co2   
  43 O43            5.1006     2.0054    -3.8983 O.co2   
  44 H44           -0.3716     1.8580    -0.2708 H       
  45 H45            0.2755     1.8094     1.3858 H       
  46 H46            0.4126    -0.2777    -1.7604 H       
  47 H47            2.9565    -0.9016    -0.2118 H       
  48 H48            2.7858    -0.6226    -1.9579 H       
  49 H49            5.1061     3.3996    -1.4042 H       
  50 H50            3.4828     4.8774    -0.2822 H       
  51 H51            0.3555     0.5038     3.0559 H       
  52 H52           -1.2928     0.6971     2.4126 H       
  53 H53           -1.8718    -1.5774     3.2125 H       
  54 H54           -0.2235    -1.7708     3.8558 H       
  55 H55           -4.0724     1.2474     6.2733 H       
  56 H56           -2.4928     1.4200     8.1532 H       
  57 H57            0.4443    -0.6917     5.8789 H       
@<TRIPOS>BOND
   1    1    2 1
   2    1   10 1
   3    1   44 1
   4    1   45 1
   5    2    3 1
   6    2   14 am
   7    3    4 1
   8    3   11 1
   9    3   46 1
  10    4    5 1
  11    4   47 1
  12    4   48 1
  13    5    6 ar
  14    5   10 ar
  15    6    7 ar
  16    6   39 1
  17    7    8 ar
  18    7   49 1
  19    8    9 ar
  20    8   50 1
  21    9   10 ar
  22    9   34 1
  23   11   12 ar
  24   11   13 ar
  25   14   15 1
  26   14   17 2
  27   15   16 1
  28   15   51 1
  29   15   52 1
  30   16   18 1
  31   16   53 1
  32   16   54 1
  33   18   19 ar
  34   18   23 ar
  35   19   20 ar
  36   19   29 1
  37   20   21 ar
  38   20   55 1
  39   21   22 ar
  40   21   56 1
  41   22   23 ar
  42   22   24 1
  43   23   57 1
  44   24   25 1
  45   25   26 ar
  46   25   27 ar
  47   25   28 ar
  48   29   30 1
  49   30   31 ar
  50   30   32 ar
  51   30   33 ar
  52   34   35 1
  53   35   36 ar
  54   35   37 ar
  55   35   38 ar
  56   39   40 1
  57   40   41 ar
  58   40   42 ar
  59   40   43 ar

#	End of record

