#	Name: ASD05430159
#	Creating user name:	WinNT
#	Creation time:	15. 06. 2019 20:59

#	Modifying user name:	WinNT
#	Modification time:	15. 06. 2019 20:59

#	Program:	/corina/corina34_cracker 3.40 0067  02.08.2006

@<TRIPOS>MOLECULE
ASD05430159
  59   65    0    0    0
SMALL
NO_CHARGES


@<TRIPOS>ATOM
   1 C1            -0.0027     1.3293     0.0579 C.ar    
   2 C2             0.0203    -0.0145    -0.3180 C.ar    
   3 C3             1.2266    -0.6443    -0.5946 C.ar    
   4 C4             2.4087     0.0556    -0.4996 C.ar    
   5 C5             2.3922     1.4016    -0.1241 C.ar    
   6 C6             1.1708     2.0349     0.1552 C.ar    
   7 O7             4.8666     0.1345     0.2078 O.3     
   8 C8             4.8272     1.4936     0.0673 C.2     
   9 C9             3.6530     2.1535    -0.0208 C.2     
  10 C10            6.0825    -0.4210     0.7191 C.3     
  11 C11            6.9274     0.5154     1.5927 C.3     
  12 N12            7.1295     1.7673     0.8609 N.pl3   
  13 C13            6.1160     2.2144     0.0156 C.2     
  14 N14           -1.1793    -0.7317    -0.4163 N.pl3   
  15 C15           -1.5840    -1.5018    -1.4760 C.2     
  16 C16           -2.7902    -2.0061    -1.1535 C.2     
  17 N17           -3.1178    -1.5596     0.0681 N.2     
  18 C18           -2.1586    -0.8001     0.5227 C.2     
  19 C19           -3.6276    -2.9147    -2.0162 C.3     
  20 C20            8.3454     2.5662     1.0036 C.3     
  21 C21            8.6862     3.1755    -0.3610 C.3     
  22 O22            7.5555     3.8677    -0.8807 O.3     
  23 N23            6.3150     3.2065    -0.7882 N.2     
  24 C24            8.1151     3.6663     2.0075 C.ar    
  25 C25            9.1095     3.9981     2.9087 C.ar    
  26 C26            6.9118     4.3466     2.0227 C.ar    
  27 C27            6.6998     5.3563     2.9422 C.ar    
  28 C28            7.6931     5.6860     3.8488 C.ar    
  29 C29            8.8997     5.0071     3.8295 C.ar    
  30 F30            7.4870     6.6728     4.7482 F       
  31 C31            6.0819    -1.9073     1.0802 C.3     
  32 C32            6.8278    -1.4220    -0.1648 C.3     
  33 C33            0.4647     3.2993     0.5663 C.3     
  34 C34           -0.8373     2.5185     0.4537 C.3     
  35 H35            1.2378    -1.6847    -0.8843 H       
  36 H36            3.3467    -0.4348    -0.7145 H       
  37 H37            3.6388     3.2334    -0.0153 H       
  38 H38            6.4048     0.7166     2.5279 H       
  39 H39            7.8916     0.0523     1.8021 H       
  40 H40           -1.0400    -1.6710    -2.3936 H       
  41 H41           -2.1485    -0.3031     1.4815 H       
  42 H42           -3.3742    -3.9532    -1.8030 H       
  43 H43           -4.6832    -2.7471    -1.8028 H       
  44 H44           -3.4308    -2.7011    -3.0668 H       
  45 H45            9.1655     1.9302     1.3368 H       
  46 H46            9.5169     3.8723    -0.2488 H       
  47 H47            8.9727     2.3814    -1.0504 H       
  48 H48           10.0506     3.4684     2.8935 H       
  49 H49            6.1372     4.0893     1.3154 H       
  50 H50            5.7600     5.8881     2.9535 H       
  51 H51            9.6750     5.2632     4.5364 H       
  52 H52            6.6806    -2.2175     1.9366 H       
  53 H53            5.1560    -2.4619     0.9280 H       
  54 H54            6.3925    -1.6574    -1.1360 H       
  55 H55            7.9171    -1.4129    -0.1274 H       
  56 H56            0.6989     3.6197     1.5815 H       
  57 H57            0.5513     4.1046    -0.1632 H       
  58 H58           -1.4942     2.8773    -0.3387 H       
  59 H59           -1.3525     2.3893     1.4056 H       
@<TRIPOS>BOND
   1    1    2 ar
   2    1    6 ar
   3    1   34 1
   4    2    3 ar
   5    2   14 1
   6    3    4 ar
   7    3   35 1
   8    4    5 ar
   9    4   36 1
  10    5    6 ar
  11    5    9 1
  12    6   33 1
  13    7    8 1
  14    7   10 1
  15    8    9 2
  16    8   13 1
  17    9   37 1
  18   10   11 1
  19   10   31 1
  20   10   32 1
  21   11   12 1
  22   11   38 1
  23   11   39 1
  24   12   13 1
  25   12   20 1
  26   13   23 2
  27   14   15 1
  28   14   18 1
  29   15   16 2
  30   15   40 1
  31   16   17 1
  32   16   19 1
  33   17   18 2
  34   18   41 1
  35   19   42 1
  36   19   43 1
  37   19   44 1
  38   20   21 1
  39   20   24 1
  40   20   45 1
  41   21   22 1
  42   21   46 1
  43   21   47 1
  44   22   23 1
  45   24   25 ar
  46   24   26 ar
  47   25   29 ar
  48   25   48 1
  49   26   27 ar
  50   26   49 1
  51   27   28 ar
  52   27   50 1
  53   28   29 ar
  54   28   30 1
  55   29   51 1
  56   31   32 1
  57   31   52 1
  58   31   53 1
  59   32   54 1
  60   32   55 1
  61   33   34 1
  62   33   56 1
  63   33   57 1
  64   34   58 1
  65   34   59 1

#	End of record

