#	Name: ASD03320172
#	Creating user name:	WinNT
#	Creation time:	15. 06. 2019 20:36

#	Modifying user name:	WinNT
#	Modification time:	15. 06. 2019 20:36

#	Program:	/corina/corina34_cracker 3.40 0067  02.08.2006

@<TRIPOS>MOLECULE
ASD03320172
  40   42    0    0    0
SMALL
NO_CHARGES


@<TRIPOS>ATOM
   1 C1            -0.0077     1.3435    -0.1945 C.ar    
   2 C2             0.0217    -0.0349     0.0276 C.ar    
   3 C3            -1.1533    -0.7585     0.0438 C.ar    
   4 C4            -2.3651    -0.1242    -0.1593 C.ar    
   5 C5            -2.4069     1.2528    -0.3823 C.ar    
   6 C6            -1.2281     1.9886    -0.3943 C.ar    
   7 C7             1.2508     2.1179    -0.2118 C.2     
   8 O8             1.2236     3.3179    -0.4053 O.2     
   9 N9             2.4287     1.4939    -0.0131 N.am    
  10 C10            3.6276     2.2087    -0.1264 C.ar    
  11 C11           -3.7094     1.9315    -0.6012 C.2     
  12 C12            3.6884     3.5331     0.2864 C.ar    
  13 C13            4.8709     4.2373     0.1743 C.ar    
  14 C14            5.9979     3.6220    -0.3510 C.ar    
  15 C15            5.9379     2.2990    -0.7636 C.ar    
  16 C16            4.7578     1.5916    -0.6464 C.ar    
  17 O17            7.1617     4.3163    -0.4619 O.3     
  18 C18            8.2823     3.6206    -1.0115 C.3     
  19 F19            7.9753     3.1920    -2.3074 F       
  20 F20            9.3880     4.4766    -1.0531 F       
  21 F21            8.5807     2.5119    -0.2121 F       
  22 Cl22          -3.8378    -1.0431    -0.1376 Cl      
  23 C23           -4.6804     1.5483    -1.4794 C.2     
  24 N24           -5.6982     2.4263    -1.3709 N.pl3   
  25 N25           -5.3537     3.3778    -0.4033 N.2     
  26 C26           -4.1694     3.0842     0.0645 C.2     
  27 C27           -6.9481     2.3910    -2.1342 C.3     
  28 H28            0.9654    -0.5354     0.1865 H       
  29 H29           -1.1262    -1.8244     0.2156 H       
  30 H30           -1.2561     3.0544    -0.5661 H       
  31 H31            2.4461     0.5497     0.2084 H       
  32 H32            2.8110     4.0124     0.6948 H       
  33 H33            4.9184     5.2674     0.4954 H       
  34 H34            6.8156     1.8208    -1.1728 H       
  35 H35            4.7112     0.5616    -0.9677 H       
  36 H36           -4.6409     0.6965    -2.1421 H       
  37 H37           -3.6335     3.6340     0.8241 H       
  38 H38           -7.6860     1.7963    -1.5957 H       
  39 H39           -7.3238     3.4061    -2.2633 H       
  40 H40           -6.7646     1.9445    -3.1114 H       
@<TRIPOS>BOND
   1    1    2 ar
   2    1    7 1
   3    1    6 ar
   4    2    3 ar
   5    2   28 1
   6    3    4 ar
   7    3   29 1
   8    4    5 ar
   9    4   22 1
  10    5    6 ar
  11    5   11 1
  12    6   30 1
  13    7    8 2
  14    7    9 am
  15    9   10 1
  16    9   31 1
  17   10   12 ar
  18   10   16 ar
  19   11   23 2
  20   11   26 1
  21   12   13 ar
  22   12   32 1
  23   13   14 ar
  24   13   33 1
  25   14   15 ar
  26   14   17 1
  27   15   16 ar
  28   15   34 1
  29   16   35 1
  30   17   18 1
  31   18   19 1
  32   18   20 1
  33   18   21 1
  34   23   24 1
  35   23   36 1
  36   24   25 1
  37   24   27 1
  38   25   26 2
  39   26   37 1
  40   27   38 1
  41   27   39 1
  42   27   40 1

#	End of record

