#	Name: ASD09740521
#	Creating user name:	WinNT
#	Creation time:	15. 06. 2019 21:23

#	Modifying user name:	WinNT
#	Modification time:	15. 06. 2019 21:23

#	Program:	/corina/corina34_cracker 3.40 0067  02.08.2006

@<TRIPOS>MOLECULE
ASD09740521
  60   63    0    0    0
SMALL
NO_CHARGES


@<TRIPOS>ATOM
   1 N1            -0.0151     1.3053     0.0121 N.2     
   2 C2             0.0028    -0.0042     0.0021 C.2     
   3 C3             1.1361     1.9169    -0.0038 C.2     
   4 S4             2.4286     0.7206    -0.0357 S.3     
   5 C5             1.2290    -0.5707    -0.0239 C.2     
   6 C6             1.3265     3.3822     0.0030 C.ar    
   7 C7             0.2203     4.2281     0.0287 C.ar    
   8 C8             2.6171     3.9195    -0.0106 C.ar    
   9 C9             2.8006     5.2854    -0.0039 C.ar    
  10 C10            1.7059     6.1376     0.0168 C.ar    
  11 C11            0.4060     5.6096     0.0354 C.ar    
  12 O12            1.8923     7.4813     0.0242 O.3     
  13 C13            3.2384     7.9489     0.1309 C.3     
  14 C14            3.8767     7.9873    -1.2590 C.3     
  15 C15            3.2435     9.3553     0.7335 C.3     
  16 C16           -0.7257     6.4867     0.0564 C.1     
  17 N17           -1.6236     7.1825     0.0729 N.1     
  18 C18            1.5148    -2.0206    -0.0398 C.ar    
  19 C19            2.3963    -2.5499    -0.9869 C.ar    
  20 C20            2.6588    -3.9044    -0.9964 C.ar    
  21 C21            2.0480    -4.7339    -0.0688 C.ar    
  22 C22            1.1747    -4.2154     0.8694 C.ar    
  23 C23            0.9096    -2.8621     0.8940 C.ar    
  24 C24            3.1782    -1.8676    -2.0886 C.3     
  25 C25            3.6044    -3.0030    -3.0435 C.3     
  26 C26            3.6368    -4.2285    -2.1057 C.3     
  27 N27            3.2078    -5.4340    -2.8273 N.3     
  28 C28            3.7653    -6.6442    -2.2088 C.3     
  29 C29            3.2975    -7.8761    -2.9862 C.3     
  30 S30            3.9859    -9.3705    -2.2223 S.o2    
  31 O31            5.3987    -9.3460    -2.3725 O.2     
  32 O32            3.4286    -9.5126    -0.9229 O.2     
  33 C33            3.3143   -10.6781    -3.2853 C.3     
  34 H34           -0.9029    -0.5924     0.0141 H       
  35 H35           -0.7776     3.8153     0.0430 H       
  36 H36            3.4736     3.2617    -0.0260 H       
  37 H37            3.8003     5.6940    -0.0144 H       
  38 H38            3.8068     7.2764     0.7733 H       
  39 H39            3.8730     6.9854    -1.6883 H       
  40 H40            3.3083     8.6599    -1.9014 H       
  41 H41            4.9035     8.3440    -1.1777 H       
  42 H42            2.7888     9.3279     1.7237 H       
  43 H43            4.2703     9.7119     0.8149 H       
  44 H44            2.6751    10.0278     0.0911 H       
  45 H45            2.2557    -5.7937    -0.0792 H       
  46 H46            0.7038    -4.8703     1.5875 H       
  47 H47            0.2277    -2.4567     1.6269 H       
  48 H48            2.5465    -1.1501    -2.6123 H       
  49 H49            4.0563    -1.3700    -1.6769 H       
  50 H50            2.8681    -3.1403    -3.8354 H       
  51 H51            4.5923    -2.8081    -3.4608 H       
  52 H52            4.6383    -4.3668    -1.6985 H       
  53 H53            2.2014    -5.4853    -2.8795 H       
  54 H54            4.8539    -6.5938    -2.2286 H       
  55 H55            3.4235    -6.7148    -1.1761 H       
  56 H56            2.2088    -7.9265    -2.9664 H       
  57 H57            3.6392    -7.8055    -4.0188 H       
  58 H58            3.6556   -10.5250    -4.3092 H       
  59 H59            3.6588   -11.6488    -2.9288 H       
  60 H60            2.2252   -10.6460    -3.2567 H       
@<TRIPOS>BOND
   1    1    2 1
   2    1    3 2
   3    2    5 2
   4    2   34 1
   5    3    4 1
   6    3    6 1
   7    4    5 1
   8    5   18 1
   9    6    7 ar
  10    6    8 ar
  11    7   11 ar
  12    7   35 1
  13    8    9 ar
  14    8   36 1
  15    9   10 ar
  16    9   37 1
  17   10   11 ar
  18   10   12 1
  19   11   16 1
  20   12   13 1
  21   13   14 1
  22   13   15 1
  23   13   38 1
  24   14   39 1
  25   14   40 1
  26   14   41 1
  27   15   42 1
  28   15   43 1
  29   15   44 1
  30   16   17 3
  31   18   19 ar
  32   18   23 ar
  33   19   20 ar
  34   19   24 1
  35   20   21 ar
  36   20   26 1
  37   21   22 ar
  38   21   45 1
  39   22   23 ar
  40   22   46 1
  41   23   47 1
  42   24   25 1
  43   24   48 1
  44   24   49 1
  45   25   26 1
  46   25   50 1
  47   25   51 1
  48   26   27 1
  49   26   52 1
  50   27   28 1
  51   27   53 1
  52   28   29 1
  53   28   54 1
  54   28   55 1
  55   29   30 1
  56   29   56 1
  57   29   57 1
  58   30   31 2
  59   30   32 2
  60   30   33 1
  61   33   58 1
  62   33   59 1
  63   33   60 1

#	End of record

