#	Name: ASD01120106
#	Creating user name:	WinNT
#	Creation time:	15. 06. 2019 18:59

#	Modifying user name:	WinNT
#	Modification time:	15. 06. 2019 18:59

#	Program:	/corina/corina34_cracker 3.40 0067  02.08.2006

@<TRIPOS>MOLECULE
ASD01120106
  36   38    0    0    0
SMALL
NO_CHARGES


@<TRIPOS>ATOM
   1 C1            -0.0174     1.2671    -0.6957 C.ar    
   2 C2             1.0833     1.5918    -1.4670 C.ar    
   3 C3             2.2913     0.9582    -1.2506 C.ar    
   4 C4             2.3997    -0.0062    -0.2568 C.ar    
   5 C5             1.2916    -0.3301     0.5164 C.ar    
   6 C6             0.0870     0.3073     0.2947 C.ar    
   7 N7             3.6204    -0.6497    -0.0355 N.pl3   
   8 C8             4.8073     0.0579    -0.1476 C.2     
   9 N9             5.9964    -0.4567    -0.0800 N.2     
  10 C10            7.0204     0.3764    -0.2095 C.2     
  11 C11            6.6937     1.6667    -0.3971 C.2     
  12 S12            4.9362     1.7942    -0.4116 S.3     
  13 C13            8.4292    -0.0841    -0.1509 C.ar    
  14 C14            8.7151    -1.4342     0.0457 C.ar    
  15 C15           10.0262    -1.8593     0.0992 C.ar    
  16 C16           11.0604    -0.9443    -0.0419 C.ar    
  17 C17           10.7790     0.4008    -0.2373 C.ar    
  18 C18            9.4700     0.8314    -0.2980 C.ar    
  19 S19            0.9445     2.8149    -2.7277 S.o2    
  20 O20            1.9803     2.5465    -3.6629 O.2     
  21 O21           -0.4299     2.8693    -3.0845 O.2     
  22 N22            1.3061     4.2753    -2.0358 N.am    
  23 O23           12.3512    -1.3663     0.0118 O.3     
  24 H24           -0.9597     1.7673    -0.8640 H       
  25 H25            3.1506     1.2120    -1.8536 H       
  26 H26            1.3725    -1.0794     1.2899 H       
  27 H27           -0.7746     0.0563     0.8956 H       
  28 H28            3.6372    -1.5914     0.1966 H       
  29 H29            7.3887     2.4839    -0.5215 H       
  30 H30            7.9109    -2.1466     0.1563 H       
  31 H31           10.2483    -2.9052     0.2515 H       
  32 H32           11.5859     1.1104    -0.3465 H       
  33 H33            9.2517     1.8781    -0.4501 H       
  34 H34            1.5381     4.3222    -1.0951 H       
  35 H35            1.2859     5.0839    -2.5712 H       
  36 H36           12.7191    -1.6168    -0.8467 H       
@<TRIPOS>BOND
   1    1    2 ar
   2    1    6 ar
   3    1   24 1
   4    2    3 ar
   5    2   19 1
   6    3    4 ar
   7    3   25 1
   8    4    5 ar
   9    4    7 1
  10    5    6 ar
  11    5   26 1
  12    6   27 1
  13    7    8 1
  14    7   28 1
  15    8    9 2
  16    8   12 1
  17    9   10 1
  18   10   11 2
  19   10   13 1
  20   11   12 1
  21   11   29 1
  22   13   14 ar
  23   13   18 ar
  24   14   15 ar
  25   14   30 1
  26   15   16 ar
  27   15   31 1
  28   16   17 ar
  29   16   23 1
  30   17   18 ar
  31   17   32 1
  32   18   33 1
  33   19   20 2
  34   19   21 2
  35   19   22 am
  36   22   34 1
  37   22   35 1
  38   23   36 1

#	End of record

