#	Name: ASD01913393
#	Creating user name:	WinNT
#	Creation time:	15. 06. 2019 20:01

#	Modifying user name:	WinNT
#	Modification time:	15. 06. 2019 20:01

#	Program:	/corina/corina34_cracker 3.40 0067  02.08.2006

@<TRIPOS>MOLECULE
ASD01913393
  36   38    0    0    0
SMALL
NO_CHARGES


@<TRIPOS>ATOM
   1 C1            -0.0996    -0.7217    -2.1601 C.ar    
   2 C2            -0.5437    -0.0429    -1.0298 C.ar    
   3 C3            -0.5162     1.3479    -1.0429 C.ar    
   4 N4            -0.0720     1.9711    -2.1218 N.ar    
   5 C5             0.3405     1.2922    -3.1734 C.ar    
   6 N6             0.3299    -0.0254    -3.1996 N.ar    
   7 C7            -0.9996    -2.0790     0.0068 C.ar    
   8 C8             0.1809    -2.7857     0.1918 C.ar    
   9 C9             0.1794    -4.1688     0.1455 C.ar    
  10 C10           -0.9968    -4.8545    -0.0855 C.ar    
  11 C11           -2.1884    -4.1514    -0.2726 C.ar    
  12 C12           -2.1849    -2.7573    -0.2251 C.ar    
  13 C13           -3.4493    -4.8819    -0.5206 C.2     
  14 N14           -3.4500    -6.2289    -0.5664 N.am    
  15 C15           -4.6524    -6.9209    -0.6942 C.ar    
  16 O16           -4.4856    -4.2677    -0.6832 O.2     
  17 O17           -0.9933    -0.7210     0.0588 O.3     
  18 C18           -4.6680    -8.3112    -0.6256 C.ar    
  19 N19           -5.8091    -8.9632    -0.7471 N.ar    
  20 C20           -6.9361    -8.2974    -0.9337 C.ar    
  21 C21           -6.9241    -6.9166    -1.0024 C.ar    
  22 N22           -5.7859    -6.2565    -0.8761 N.ar    
  23 C23           -8.2115    -6.1627    -1.2153 C.3     
  24 Cl24           1.6603    -5.0442     0.3780 Cl      
  25 H25           -0.1014    -1.8013    -2.1867 H       
  26 H26           -0.8530     1.9107    -0.1848 H       
  27 H27            0.6974     1.8311    -4.0386 H       
  28 H28            1.1036    -2.2542     0.3721 H       
  29 H29           -0.9948    -5.9339    -0.1218 H       
  30 H30           -3.1037    -2.2083    -0.3691 H       
  31 H31           -2.6133    -6.7165    -0.5105 H       
  32 H32           -3.7477    -8.8556    -0.4735 H       
  33 H33           -7.8683    -8.8336    -1.0332 H       
  34 H34           -8.6598    -5.9292    -0.2495 H       
  35 H35           -8.0060    -5.2375    -1.7537 H       
  36 H36           -8.8999    -6.7761    -1.7966 H       
@<TRIPOS>BOND
   1    1    2 ar
   2    1    6 ar
   3    1   25 1
   4    2    3 ar
   5    2   17 1
   6    3    4 ar
   7    3   26 1
   8    4    5 ar
   9    5    6 ar
  10    5   27 1
  11    7    8 ar
  12    7   12 ar
  13    7   17 1
  14    8    9 ar
  15    8   28 1
  16    9   10 ar
  17    9   24 1
  18   10   11 ar
  19   10   29 1
  20   11   12 ar
  21   11   13 1
  22   12   30 1
  23   13   14 am
  24   13   16 2
  25   14   15 1
  26   14   31 1
  27   15   18 ar
  28   15   22 ar
  29   18   19 ar
  30   18   32 1
  31   19   20 ar
  32   20   21 ar
  33   20   33 1
  34   21   22 ar
  35   21   23 1
  36   23   34 1
  37   23   35 1
  38   23   36 1

#	End of record

