#	Name: ASD01200131
#	Creating user name:	WinNT
#	Creation time:	15. 06. 2019 19:08

#	Modifying user name:	WinNT
#	Modification time:	15. 06. 2019 19:08

#	Program:	/corina/corina34_cracker 3.40 0067  02.08.2006

@<TRIPOS>MOLECULE
ASD01200131
  44   47    0    0    0
SMALL
NO_CHARGES


@<TRIPOS>ATOM
   1 C1            -0.0167     1.3792     0.0096 C.ar    
   2 C2             0.0021    -0.0041     0.0020 C.ar    
   3 C3             1.2087    -0.6842    -0.0132 C.ar    
   4 C4             2.3920     0.0166    -0.0208 C.ar    
   5 C5             2.3846     1.4137    -0.0132 C.ar    
   6 C6             1.1648     2.0919     0.0022 C.ar    
   7 C7             3.8409    -0.4021    -0.0369 C.3     
   8 N8             4.6266     0.8371    -0.0378 N.am    
   9 C9             3.7832     1.8837    -0.0241 C.2     
  10 O10            4.1240     3.0505    -0.0207 O.2     
  11 S11            4.2232    -1.3815     1.4413 S.3     
  12 C12            6.0892     0.9201    -0.0514 C.3     
  13 C13            6.5770     0.9561    -1.4768 C.ar    
  14 C14            3.6289    -3.0373     0.9988 C.3     
  15 C15            3.8791    -3.9837     2.1445 C.2     
  16 N16            3.5169    -5.2777     2.0411 N.am    
  17 O17            4.4064    -3.5808     3.1597 O.2     
  18 C18            3.7476    -6.1507     3.0979 C.2     
  19 C19            6.7330     2.1681    -2.1232 C.ar    
  20 C20            7.1804     2.2018    -3.4305 C.ar    
  21 C21            7.4722     1.0223    -4.0921 C.ar    
  22 C22            7.3160    -0.1903    -3.4446 C.ar    
  23 C23            6.8739    -0.2224    -2.1355 C.ar    
  24 N24            3.4393    -7.4097     3.1019 N.2     
  25 C25            3.7318    -8.0931     4.1925 C.2     
  26 C26            4.3151    -7.3774     5.1560 C.2     
  27 S27            4.4861    -5.7217     4.5790 S.3     
  28 Cl28           8.0337     1.0639    -5.7343 Cl      
  29 H29           -0.9607     1.9038     0.0169 H       
  30 H30           -0.9267    -0.5552     0.0083 H       
  31 H31            1.2202    -1.7641    -0.0188 H       
  32 H32            1.1457     3.1718     0.0078 H       
  33 H33            4.0535    -0.9810    -0.9357 H       
  34 H34            6.4065     1.8264     0.4643 H       
  35 H35            6.5072     0.0493     0.4538 H       
  36 H36            2.5601    -2.9956     0.7887 H       
  37 H37            4.1596    -3.3894     0.1142 H       
  38 H38            3.0951    -5.5999     1.2292 H       
  39 H39            6.5048     3.0888    -1.6067 H       
  40 H40            7.3019     3.1487    -3.9355 H       
  41 H41            7.5436    -1.1114    -3.9606 H       
  42 H42            6.7518    -1.1690    -1.6299 H       
  43 H43            3.5166    -9.1463     4.2967 H       
  44 H44            4.6302    -7.7491     6.1198 H       
@<TRIPOS>BOND
   1    1    2 ar
   2    1    6 ar
   3    1   29 1
   4    2    3 ar
   5    2   30 1
   6    3    4 ar
   7    3   31 1
   8    4    5 ar
   9    4    7 1
  10    5    6 ar
  11    5    9 1
  12    6   32 1
  13    7    8 1
  14    7   11 1
  15    7   33 1
  16    8    9 am
  17    8   12 1
  18    9   10 2
  19   11   14 1
  20   12   13 1
  21   12   34 1
  22   12   35 1
  23   13   19 ar
  24   13   23 ar
  25   14   15 1
  26   14   36 1
  27   14   37 1
  28   15   16 am
  29   15   17 2
  30   16   18 1
  31   16   38 1
  32   18   24 2
  33   18   27 1
  34   19   20 ar
  35   19   39 1
  36   20   21 ar
  37   20   40 1
  38   21   22 ar
  39   21   28 1
  40   22   23 ar
  41   22   41 1
  42   23   42 1
  43   24   25 1
  44   25   26 2
  45   25   43 1
  46   26   27 1
  47   26   44 1

#	End of record

