#	Name: ASD01915999
#	Creating user name:	WinNT
#	Creation time:	15. 06. 2019 20:06

#	Modifying user name:	WinNT
#	Modification time:	15. 06. 2019 20:06

#	Program:	/corina/corina34_cracker 3.40 0067  02.08.2006

@<TRIPOS>MOLECULE
ASD01915999
  45   46    0    0    0
SMALL
NO_CHARGES


@<TRIPOS>ATOM
   1 C1            -0.0048     1.3404     0.1011 C.ar    
   2 C2            -0.0417    -0.0545    -0.0380 C.ar    
   3 C3            -1.2728    -0.6804    -0.0479 C.ar    
   4 C4            -2.4298     0.0896     0.0799 C.ar    
   5 C5            -3.7519    -0.5734     0.0707 C.2     
   6 N6            -4.4323    -0.7357     1.2227 N.am    
   7 O7            -4.2247    -0.9718    -0.9758 O.2     
   8 C8            -5.7875    -1.2919     1.2008 C.3     
   9 C9            -5.7534    -2.6946     0.5909 C.3     
  10 C10           -6.3298    -1.3700     2.6294 C.3     
  11 C11           -6.6946    -0.3918     0.3595 C.3     
  12 C12            1.2468     2.0360     0.1171 C.1     
  13 C13            2.2729     2.6062     0.1303 C.1     
  14 C14            3.5245     3.3018     0.1463 C.ar    
  15 C15            3.5529     4.6925     0.2854 C.ar    
  16 C16            5.9249     3.2677     0.0448 C.ar    
  17 C17            4.7610     5.3563     0.3000 C.ar    
  18 N18           -2.3599     1.4102     0.2100 N.ar    
  19 C19           -1.2110     2.0445     0.2183 C.ar    
  20 C20            4.7234     2.5923     0.0287 C.ar    
  21 C21           -3.8168    -0.3561     2.4967 C.3     
  22 C22           -1.3657    -2.1772    -0.1953 C.3     
  23 C23            5.9461     4.6476     0.1768 C.ar    
  24 F24            7.1269     5.3038     0.1924 F       
  25 H25            0.8701    -0.6252    -0.1354 H       
  26 H26           -5.1071    -3.3358     1.1903 H       
  27 H27           -6.7616    -3.1084     0.5746 H       
  28 H28           -5.3670    -2.6389    -0.4269 H       
  29 H29           -6.3541    -0.3706     3.0639 H       
  30 H30           -7.3381    -1.7838     2.6131 H       
  31 H31           -5.6836    -2.0112     3.2288 H       
  32 H32           -6.3083    -0.3361    -0.6583 H       
  33 H33           -7.7029    -0.8056     0.3432 H       
  34 H34           -6.7190     0.6075     0.7940 H       
  35 H35            2.6303     5.2458     0.3807 H       
  36 H36            6.8516     2.7213    -0.0507 H       
  37 H37            4.7843     6.4307     0.4074 H       
  38 H38           -1.1944     3.1189     0.3266 H       
  39 H39            4.7082     1.5173    -0.0741 H       
  40 H40           -4.1268     0.6543     2.7632 H       
  41 H41           -4.1340    -1.0505     3.2747 H       
  42 H42           -2.7316    -0.3897     2.4002 H       
  43 H43           -1.2587    -2.6460     0.7829 H       
  44 H44           -2.3340    -2.4410    -0.6207 H       
  45 H45           -0.5716    -2.5274    -0.8548 H       
@<TRIPOS>BOND
   1    1    2 ar
   2    1   12 1
   3    1   19 ar
   4    2    3 ar
   5    2   25 1
   6    3    4 ar
   7    3   22 1
   8    4   18 ar
   9    4    5 1
  10    5    6 am
  11    5    7 2
  12    6    8 1
  13    6   21 1
  14    8    9 1
  15    8   10 1
  16    8   11 1
  17    9   26 1
  18    9   27 1
  19    9   28 1
  20   10   29 1
  21   10   30 1
  22   10   31 1
  23   11   32 1
  24   11   33 1
  25   11   34 1
  26   12   13 3
  27   13   14 1
  28   14   15 ar
  29   14   20 ar
  30   15   17 ar
  31   15   35 1
  32   16   23 ar
  33   16   20 ar
  34   16   36 1
  35   17   23 ar
  36   17   37 1
  37   18   19 ar
  38   19   38 1
  39   20   39 1
  40   21   40 1
  41   21   41 1
  42   21   42 1
  43   22   43 1
  44   22   44 1
  45   22   45 1
  46   23   24 1

#	End of record

