#	Name: ASD01411020
#	Creating user name:	WinNT
#	Creation time:	15. 06. 2019 19:19

#	Modifying user name:	WinNT
#	Modification time:	15. 06. 2019 19:19

#	Program:	/corina/corina34_cracker 3.40 0067  02.08.2006

@<TRIPOS>MOLECULE
ASD01411020
  73   78    0    0    0
SMALL
NO_CHARGES


@<TRIPOS>ATOM
   1 C1            -0.9342     3.0359    -1.4782 C.ar    
   2 C2            -0.5836     1.7749    -0.9592 C.ar    
   3 C3            -1.5659     0.9289    -0.4577 C.ar    
   4 C4            -2.8748     1.3161    -0.4659 C.ar    
   5 C5            -3.2423     2.5671    -0.9789 C.ar    
   6 C6            -2.2728     3.4300    -1.4806 C.ar    
   7 N7             0.2114     3.6341    -1.8892 N.2     
   8 C8             1.2298     2.8368    -1.6609 C.2     
   9 N9             0.7865     1.6731    -1.0856 N.pl3   
  10 C10            1.6141     0.5343    -0.6802 C.3     
  11 C11            1.4657     0.3065     0.8255 C.3     
  12 C12            2.3300    -0.8828     1.2489 C.3     
  13 C13            1.8774    -2.1358     0.4965 C.3     
  14 C14            2.0258    -1.9079    -1.0091 C.3     
  15 C15            1.1615    -0.7186    -1.4326 C.3     
  16 C16           -4.6621     2.9732    -0.9821 C.2     
  17 O17           -4.9830     4.0583    -1.4268 O.2     
  18 N18           -5.6022     2.1410    -0.4921 N.am    
  19 C19           -6.9980     2.5785    -0.4120 C.3     
  20 C20           -7.5828     2.9186    -1.7587 C.2     
  21 O21           -8.4179     3.7929    -1.8539 O.2     
  22 C22            2.6327     3.1447    -1.9750 C.2     
  23 C23           -7.8880     1.6482     0.4289 C.3     
  24 C24           -8.5565     2.9175     0.9826 C.3     
  25 C25           -7.2455     3.6560     0.6569 C.3     
  26 N26           -7.1778     2.2510    -2.8573 N.am    
  27 C27           -7.7395     2.5462    -4.0992 C.ar    
  28 C28           -7.7982     1.5654    -5.0848 C.ar    
  29 C29           -8.3511     1.8523    -6.3119 C.ar    
  30 C30           -8.8554     3.1331    -6.5679 C.ar    
  31 C31           -8.7946     4.1165    -5.5731 C.ar    
  32 C32           -8.2447     3.8191    -4.3472 C.ar    
  33 C33           -9.4463     3.4444    -7.8767 C.2     
  34 C34           -9.9324     4.6809    -8.1216 C.2     
  35 C35            3.2258     4.3610    -1.8204 C.2     
  36 C36            4.5529     4.3982    -2.1839 C.2     
  37 C37            5.0537     3.2408    -2.6305 C.2     
  38 S38            3.8100     1.9982    -2.6019 S.3     
  39 C39          -10.5026     4.9813    -9.3844 C.2     
  40 O40          -10.5541     4.1256   -10.2475 O.2     
  41 O41          -10.9881     6.2163    -9.6290 O.3     
  42 H42           -1.2928    -0.0377    -0.0607 H       
  43 H43           -3.6325     0.6535    -0.0746 H       
  44 H44           -2.5552     4.3944    -1.8762 H       
  45 H45            2.6580     0.7419    -0.9151 H       
  46 H46            1.7882     1.1991     1.3615 H       
  47 H47            0.4218     0.0989     1.0604 H       
  48 H48            3.3740    -0.6752     1.0140 H       
  49 H49            2.2243    -1.0452     2.3216 H       
  50 H50            2.4932    -2.9831     0.7982 H       
  51 H51            0.8335    -2.3434     0.7314 H       
  52 H52            3.0698    -1.7003    -1.2441 H       
  53 H53            1.7034    -2.8006    -1.5452 H       
  54 H54            0.1175    -0.9262    -1.1977 H       
  55 H55            1.2672    -0.5563    -2.5053 H       
  56 H56           -5.3545     1.2523    -0.1924 H       
  57 H57           -8.5566     1.0272    -0.1673 H       
  58 H58           -7.3391     1.0805     1.1803 H       
  59 H59           -9.4062     3.2573     0.3905 H       
  60 H60           -8.7761     2.8657     2.0490 H       
  61 H61           -6.5203     3.6378     1.4704 H       
  62 H62           -7.3971     4.6542     0.2460 H       
  63 H63           -6.4956     1.5653    -2.7841 H       
  64 H64           -7.4089     0.5777    -4.8865 H       
  65 H65           -8.3955     1.0907    -7.0764 H       
  66 H66           -9.1822     5.1059    -5.7663 H       
  67 H67           -8.1977     4.5769    -3.5792 H       
  68 H68           -9.4921     2.6847    -8.6430 H       
  69 H69           -9.8867     5.4406    -7.3553 H       
  70 H70            2.6983     5.2250    -1.4442 H       
  71 H71            5.1472     5.2973    -2.1138 H       
  72 H72            6.0723     3.0909    -2.9566 H       
  73 H73          -11.3563     6.3255   -10.5164 H       
@<TRIPOS>BOND
   1    1    2 ar
   2    1    7 1
   3    1    6 ar
   4    2    3 ar
   5    2    9 1
   6    3    4 ar
   7    3   42 1
   8    4    5 ar
   9    4   43 1
  10    5    6 ar
  11    5   16 1
  12    6   44 1
  13    7    8 2
  14    8    9 1
  15    8   22 1
  16    9   10 1
  17   10   11 1
  18   10   15 1
  19   10   45 1
  20   11   12 1
  21   11   46 1
  22   11   47 1
  23   12   13 1
  24   12   48 1
  25   12   49 1
  26   13   14 1
  27   13   50 1
  28   13   51 1
  29   14   15 1
  30   14   52 1
  31   14   53 1
  32   15   54 1
  33   15   55 1
  34   16   17 2
  35   16   18 am
  36   18   19 1
  37   18   56 1
  38   19   20 1
  39   19   23 1
  40   19   25 1
  41   20   21 2
  42   20   26 am
  43   22   35 2
  44   22   38 1
  45   23   24 1
  46   23   57 1
  47   23   58 1
  48   24   25 1
  49   24   59 1
  50   24   60 1
  51   25   61 1
  52   25   62 1
  53   26   27 1
  54   26   63 1
  55   27   28 ar
  56   27   32 ar
  57   28   29 ar
  58   28   64 1
  59   29   30 ar
  60   29   65 1
  61   30   31 ar
  62   30   33 1
  63   31   32 ar
  64   31   66 1
  65   32   67 1
  66   33   34 2
  67   33   68 1
  68   34   39 1
  69   34   69 1
  70   35   36 1
  71   35   70 1
  72   36   37 2
  73   36   71 1
  74   37   38 1
  75   37   72 1
  76   39   40 2
  77   39   41 1
  78   41   73 1

#	End of record

