#	Name: ASD01028021
#	Creating user name:	WinNT
#	Creation time:	15. 06. 2019 18:56

#	Modifying user name:	WinNT
#	Modification time:	15. 06. 2019 18:56

#	Program:	/corina/corina34_cracker 3.40 0067  02.08.2006

@<TRIPOS>MOLECULE
ASD01028021
  45   46    0    0    0
SMALL
NO_CHARGES


@<TRIPOS>ATOM
   1 C1             0.0167     0.1828     1.2727 C.1     
   2 C2            -0.0077     1.5508     0.8499 C.ar    
   3 C3             1.1902     2.2384     0.6268 C.ar    
   4 C4             1.1615     3.5563     0.2196 C.ar    
   5 C5            -0.0586     4.2056     0.0300 C.ar    
   6 C6            -1.2496     3.5324     0.2492 C.ar    
   7 C7            -1.2340     2.2058     0.6521 C.ar    
   8 O8            -0.0791     5.5034    -0.3705 O.3     
   9 N9            -2.4307     1.5288     0.8724 N.pl3   
  10 C10           -1.3619     6.1081    -0.5457 C.3     
  11 O11            2.3267     4.2248     0.0026 O.3     
  12 C12            3.5358     3.4691     0.0979 C.3     
  13 C13            4.6267     4.1409    -0.7406 C.3     
  14 C14            5.9346     3.3616    -0.5861 C.3     
  15 N15            6.3262     3.3356     0.8290 N.3     
  16 C16            5.3157     2.6531     1.6471 C.3     
  17 C17            3.9892     3.4113     1.5593 C.3     
  18 C18            7.6471     2.7156     0.9984 C.3     
  19 C19            8.1225     2.9247     2.4131 C.2     
  20 N20            9.3181     2.4384     2.8011 N.am    
  21 O21            7.4291     3.5305     3.2025 O.2     
  22 C22            9.7801     2.6417     4.1764 C.3     
  23 N23            0.0360    -0.9024     1.6081 N.1     
  24 H24            2.1361     1.7383     0.7734 H       
  25 H25           -2.1913     4.0401     0.1013 H       
  26 H26           -3.2769     1.9853     0.7441 H       
  27 H27           -2.4181     0.6008     1.1542 H       
  28 H28           -1.9221     5.5591    -1.3026 H       
  29 H29           -1.9068     6.0843     0.3980 H       
  30 H30           -1.2354     7.1422    -0.8662 H       
  31 H31            3.3634     2.4581    -0.2712 H       
  32 H32            4.3281     4.1467    -1.7889 H       
  33 H33            4.7707     5.1653    -0.3970 H       
  34 H34            5.7937     2.3412    -0.9427 H       
  35 H35            6.7170     3.8456    -1.1706 H       
  36 H36            5.1776     1.6361     1.2800 H       
  37 H37            5.6485     2.6225     2.6846 H       
  38 H38            4.1232     4.4242     1.9390 H       
  39 H39            3.2353     2.8957     2.1541 H       
  40 H40            7.5762     1.6475     0.7930 H       
  41 H41            8.3544     3.1725     0.3062 H       
  42 H42            9.8726     1.9539     2.1697 H       
  43 H43           10.7603     2.1816     4.3021 H       
  44 H44            9.8511     3.7098     4.3817 H       
  45 H45            9.0729     2.1848     4.8686 H       
@<TRIPOS>BOND
   1    1    2 1
   2    1   23 3
   3    2    3 ar
   4    2    7 ar
   5    3    4 ar
   6    3   24 1
   7    4    5 ar
   8    4   11 1
   9    5    6 ar
  10    5    8 1
  11    6    7 ar
  12    6   25 1
  13    7    9 1
  14    8   10 1
  15    9   26 1
  16    9   27 1
  17   10   28 1
  18   10   29 1
  19   10   30 1
  20   11   12 1
  21   12   13 1
  22   12   17 1
  23   12   31 1
  24   13   14 1
  25   13   32 1
  26   13   33 1
  27   14   15 1
  28   14   34 1
  29   14   35 1
  30   15   16 1
  31   15   18 1
  32   16   17 1
  33   16   36 1
  34   16   37 1
  35   17   38 1
  36   17   39 1
  37   18   19 1
  38   18   40 1
  39   18   41 1
  40   19   20 am
  41   19   21 2
  42   20   22 1
  43   20   42 1
  44   22   43 1
  45   22   44 1
  46   22   45 1

#	End of record

