#	Name: ASD05430452
#	Creating user name:	WinNT
#	Creation time:	15. 06. 2019 21:00

#	Modifying user name:	WinNT
#	Modification time:	15. 06. 2019 21:00

#	Program:	/corina/corina34_cracker 3.40 0067  02.08.2006

@<TRIPOS>MOLECULE
ASD05430452
  59   63    0    0    0
SMALL
NO_CHARGES


@<TRIPOS>ATOM
   1 C1            -0.3619     1.3450    -0.0401 C.ar    
   2 C2            -0.2697     0.2531    -0.9029 C.ar    
   3 C3            -1.3782    -0.1537    -1.6347 C.ar    
   4 C4            -2.5739     0.5195    -1.5118 C.ar    
   5 C5            -2.6738     1.6156    -0.6485 C.ar    
   6 C6            -1.5595     2.0216     0.0925 C.ar    
   7 C7            -5.1126     1.6567    -0.5405 C.2     
   8 C8            -3.9501     2.3361    -0.5158 C.2     
   9 O9             0.7250     1.7404     0.6745 O.3     
  10 C10            1.1249    -1.7912    -0.9462 C.2     
  11 N11            0.9438    -0.4349    -1.0321 N.pl3   
  12 C12            2.4389    -2.0215    -1.1297 C.2     
  13 N13            3.0480    -0.8422    -1.3228 N.2     
  14 C14            2.1632     0.1158    -1.2666 C.2     
  15 C15            3.1092    -3.3712    -1.1199 C.3     
  16 C16           -7.3538     0.5141     0.6197 C.2     
  17 N17           -7.4821     1.7290     0.0728 N.am    
  18 C18           -6.0813    -0.2862     0.6223 C.3     
  19 C19           -6.4236     2.3398    -0.5893 C.2     
  20 C20           -5.1629     0.1388    -0.5266 C.3     
  21 C21            0.5587     2.8663     1.5386 C.3     
  22 O22           -8.3298     0.0265     1.1490 O.2     
  23 C23           -8.7585     2.4519     0.1847 C.3     
  24 C24           -8.9918     3.2049    -1.1323 C.3     
  25 C25           -7.8206     4.1686    -1.3512 C.3     
  26 N26           -6.5533     3.4536    -1.2341 N.2     
  27 C27           -9.8801     1.4727     0.4177 C.ar    
  28 C28          -10.6976     1.6094     1.5241 C.ar    
  29 C29          -10.0943     0.4419    -0.4782 C.ar    
  30 C30          -11.1231    -0.4561    -0.2660 C.ar    
  31 C31          -11.9392    -0.3233     0.8446 C.ar    
  32 C32          -11.7267     0.7124     1.7386 C.ar    
  33 F33          -12.9453    -1.2006     1.0530 F       
  34 O34           -9.0569     2.2737    -2.2142 O.3     
  35 H35           -1.3024    -0.9996    -2.3019 H       
  36 H36           -3.4339     0.2012    -2.0823 H       
  37 H37           -1.6324     2.8671     0.7605 H       
  38 H38           -3.9546     3.4097    -0.3987 H       
  39 H39            0.3611    -2.5321    -0.7620 H       
  40 H40            2.3666     1.1696    -1.3870 H       
  41 H41            3.1146    -3.7816    -2.1297 H       
  42 H42            4.1345    -3.2651    -0.7654 H       
  43 H43            2.5635    -4.0431    -0.4576 H       
  44 H44           -5.5618    -0.1289     1.5675 H       
  45 H45           -6.3239    -1.3440     0.5204 H       
  46 H46           -5.5620    -0.2263    -1.4729 H       
  47 H47           -4.1621    -0.2626    -0.3673 H       
  48 H48            0.2631     3.7351     0.9505 H       
  49 H49           -0.2131     2.6473     2.2764 H       
  50 H50            1.4994     3.0754     2.0480 H       
  51 H51           -8.7094     3.1609     1.0111 H       
  52 H52           -9.9242     3.7664    -1.0739 H       
  53 H53           -7.8983     4.6126    -2.3436 H       
  54 H54           -7.8562     4.9576    -0.6000 H       
  55 H55          -10.5316     2.4174     2.2214 H       
  56 H56           -9.4576     0.3385    -1.3444 H       
  57 H57          -11.2907    -1.2609    -0.9664 H       
  58 H58          -12.3625     0.8168     2.6054 H       
  59 H59           -9.2031     2.6836    -3.0777 H       
@<TRIPOS>BOND
   1    1    2 ar
   2    1    9 1
   3    1    6 ar
   4    2    3 ar
   5    2   11 1
   6    3    4 ar
   7    3   35 1
   8    4    5 ar
   9    4   36 1
  10    5    6 ar
  11    5    8 1
  12    6   37 1
  13    7    8 2
  14    7   19 1
  15    7   20 1
  16    8   38 1
  17    9   21 1
  18   10   11 1
  19   10   12 2
  20   10   39 1
  21   11   14 1
  22   12   13 1
  23   12   15 1
  24   13   14 2
  25   14   40 1
  26   15   41 1
  27   15   42 1
  28   15   43 1
  29   16   17 am
  30   16   18 1
  31   16   22 2
  32   17   23 1
  33   17   19 1
  34   18   20 1
  35   18   44 1
  36   18   45 1
  37   19   26 2
  38   20   46 1
  39   20   47 1
  40   21   48 1
  41   21   49 1
  42   21   50 1
  43   23   24 1
  44   23   27 1
  45   23   51 1
  46   24   25 1
  47   24   34 1
  48   24   52 1
  49   25   26 1
  50   25   53 1
  51   25   54 1
  52   27   28 ar
  53   27   29 ar
  54   28   32 ar
  55   28   55 1
  56   29   30 ar
  57   29   56 1
  58   30   31 ar
  59   30   57 1
  60   31   32 ar
  61   31   33 1
  62   32   58 1
  63   34   59 1

#	End of record

