#	Name: ASD01911243
#	Creating user name:	WinNT
#	Creation time:	15. 06. 2019 19:57

#	Modifying user name:	WinNT
#	Modification time:	15. 06. 2019 19:57

#	Program:	/corina/corina34_cracker 3.40 0067  02.08.2006

@<TRIPOS>MOLECULE
ASD01911243
  47   50    0    0    0
SMALL
NO_CHARGES


@<TRIPOS>ATOM
   1 C1            -0.2321     0.9789     0.0366 C.3     
   2 C2             0.2531    -0.4667    -0.1103 C.3     
   3 N3             1.1726    -0.7714     0.9945 N.am    
   4 C4             2.3206     0.1166     1.2235 C.3     
   5 C5             1.8121     1.5557     1.3554 C.3     
   6 C6             0.9774     1.9125     0.1233 C.3     
   7 C7             0.9667    -1.8448     1.7830 C.2     
   8 O8             1.7871    -2.1457     2.6241 O.2     
   9 C9            -0.2829    -2.6712     1.6197 C.3     
  10 C10           -0.3676    -3.8587     2.5931 C.3     
  11 C11           -1.8637    -3.5329     2.7365 C.3     
  12 C12           -1.5060    -2.0888     2.3474 C.3     
  13 C13            3.0270    -0.2878     2.4917 C.2     
  14 N14            4.2313    -0.7944     2.5837 N.2     
  15 C15            4.4403    -0.9967     3.9043 C.2     
  16 N16            3.3612    -0.6050     4.5303 N.2     
  17 O17            2.5445    -0.1916     3.7346 O.3     
  18 C18            5.6650    -1.5587     4.5265 C.ar    
  19 C19            6.7438    -1.9359     3.7300 C.ar    
  20 C20            7.8804    -2.4580     4.3140 C.ar    
  21 C21            7.9493    -2.6069     5.6872 C.ar    
  22 C22            6.8809    -2.2340     6.4830 C.ar    
  23 C23            5.7420    -1.7055     5.9101 C.ar    
  24 C24            6.9631    -2.3997     7.9786 C.3     
  25 H25           -0.8387     1.2487    -0.8280 H       
  26 H26           -0.8292     1.0719     0.9437 H       
  27 H27           -0.6000    -1.1441    -0.0730 H       
  28 H28            0.7732    -0.5827    -1.0611 H       
  29 H29            3.0092     0.0481     0.3814 H       
  30 H30            1.1958     1.6432     2.2501 H       
  31 H31            2.6606     2.2359     1.4295 H       
  32 H32            1.5873     1.8009    -0.7732 H       
  33 H33            0.6349     2.9442     0.2031 H       
  34 H34           -0.4785    -2.9422     0.5822 H       
  35 H35           -0.1738    -4.8230     2.1233 H       
  36 H36            0.2011    -3.7121     3.5113 H       
  37 H37           -2.4929    -4.0393     2.0045 H       
  38 H38           -2.2361    -3.6309     3.7562 H       
  39 H39           -1.2485    -1.4583     3.1984 H       
  40 H40           -2.2312    -1.6242     1.6793 H       
  41 H41            6.6909    -1.8203     2.6575 H       
  42 H42            8.7173    -2.7511     3.6974 H       
  43 H43            8.8403    -3.0162     6.1400 H       
  44 H44            4.9086    -1.4144     6.5322 H       
  45 H45            7.3752    -1.4934     8.4224 H       
  46 H46            5.9656    -2.5795     8.3796 H       
  47 H47            7.6079    -3.2460     8.2155 H       
@<TRIPOS>BOND
   1    1    2 1
   2    1    6 1
   3    1   25 1
   4    1   26 1
   5    2    3 1
   6    2   27 1
   7    2   28 1
   8    3    4 1
   9    3    7 am
  10    4    5 1
  11    4   13 1
  12    4   29 1
  13    5    6 1
  14    5   30 1
  15    5   31 1
  16    6   32 1
  17    6   33 1
  18    7    8 2
  19    7    9 1
  20    9   10 1
  21    9   12 1
  22    9   34 1
  23   10   11 1
  24   10   35 1
  25   10   36 1
  26   11   12 1
  27   11   37 1
  28   11   38 1
  29   12   39 1
  30   12   40 1
  31   13   14 2
  32   13   17 1
  33   14   15 1
  34   15   16 2
  35   15   18 1
  36   16   17 1
  37   18   19 ar
  38   18   23 ar
  39   19   20 ar
  40   19   41 1
  41   20   21 ar
  42   20   42 1
  43   21   22 ar
  44   21   43 1
  45   22   23 ar
  46   22   24 1
  47   23   44 1
  48   24   45 1
  49   24   46 1
  50   24   47 1

#	End of record

