#	Name: ASD01900368
#	Creating user name:	WinNT
#	Creation time:	15. 06. 2019 19:51

#	Modifying user name:	WinNT
#	Modification time:	15. 06. 2019 19:51

#	Program:	/corina/corina34_cracker 3.40 0067  02.08.2006

@<TRIPOS>MOLECULE
ASD01900368
  26   28    0    0    0
SMALL
NO_CHARGES


@<TRIPOS>ATOM
   1 C1             0.0221     1.4066     0.3787 C.ar    
   2 C2             0.0579     0.0276     0.5390 C.ar    
   3 N3             1.1754    -0.6483     0.3980 N.ar    
   4 C4             2.3206    -0.0414     0.0953 C.ar    
   5 C5             2.3584     1.3548    -0.0822 C.ar    
   6 C6             1.1814     2.0880     0.0642 C.ar    
   7 C7             3.6897    -0.5153    -0.1205 C.2     
   8 N8             4.4321     0.5241    -0.3953 N.2     
   9 N9             3.6536     1.6860    -0.3812 N.pl3   
  10 N10            4.1242    -1.8425    -0.0458 N.pl3   
  11 C11            5.4837    -2.1400    -0.1655 C.ar    
  12 C12            6.4369    -1.2131     0.2364 C.ar    
  13 C13            5.8853    -3.3662    -0.6816 C.ar    
  14 C14            7.2299    -3.6576    -0.7988 C.ar    
  15 C15            8.1773    -2.7312    -0.4029 C.ar    
  16 C16            7.7814    -1.5110     0.1164 C.ar    
  17 Cl17           8.9743    -0.3512     0.6120 Cl      
  18 H18           -0.9082     1.9427     0.4951 H       
  19 H19           -0.8518    -0.5000     0.7849 H       
  20 H20            1.1763     3.1601    -0.0656 H       
  21 H21            3.9788     2.5831    -0.5554 H       
  22 H22            3.4816    -2.5564     0.0891 H       
  23 H23            6.1281    -0.2609     0.6416 H       
  24 H24            5.1464    -4.0907    -0.9904 H       
  25 H25            7.5422    -4.6105    -1.1998 H       
  26 H26            9.2283    -2.9621    -0.4951 H       
@<TRIPOS>BOND
   1    1    2 ar
   2    1    6 ar
   3    1   18 1
   4    2    3 ar
   5    2   19 1
   6    3    4 ar
   7    4    5 ar
   8    4    7 1
   9    5    6 ar
  10    5    9 1
  11    6   20 1
  12    7    8 2
  13    7   10 1
  14    8    9 1
  15    9   21 1
  16   10   11 1
  17   10   22 1
  18   11   12 ar
  19   11   13 ar
  20   12   16 ar
  21   12   23 1
  22   13   14 ar
  23   13   24 1
  24   14   15 ar
  25   14   25 1
  26   15   16 ar
  27   15   26 1
  28   16   17 1

#	End of record

