#	Name: ASD01120336
#	Creating user name:	WinNT
#	Creation time:	15. 06. 2019 18:59

#	Modifying user name:	WinNT
#	Modification time:	15. 06. 2019 18:59

#	Program:	/corina/corina34_cracker 3.40 0067  02.08.2006

@<TRIPOS>MOLECULE
ASD01120336
  52   54    0    0    0
SMALL
NO_CHARGES


@<TRIPOS>ATOM
   1 C1            -0.0187     1.5258     0.0104 C.3     
   2 C2             0.0021    -0.0041     0.0020 C.3     
   3 C3            -1.4333    -0.5336     0.0129 C.3     
   4 N4            -1.4134    -1.9985     0.0048 N.pl3   
   5 C5            -1.3925    -2.7010     1.2067 C.ar    
   6 C6            -2.5768    -3.0686     1.8190 C.ar    
   7 C7            -2.5596    -3.7685     3.0163 C.ar    
   8 C8            -1.3669    -4.1095     3.6160 C.ar    
   9 C9            -0.1593    -3.7524     3.0229 C.ar    
  10 C10           -0.1653    -3.0472     1.8041 C.ar    
  11 C11            1.1833    -2.8248     1.4465 C.2     
  12 C12            1.9655    -3.3757     2.4142 C.2     
  13 N13            1.1547    -3.9487     3.3780 N.pl3   
  14 C14            3.4323    -3.3681     2.4302 C.2     
  15 O15            4.0475    -2.8375     1.5254 O.2     
  16 O16            4.0986    -3.9497     3.4485 O.3     
  17 C17            5.5491    -3.9041     3.3985 C.3     
  18 C18            6.1241    -4.6093     4.6286 C.3     
  19 N19           -1.3698    -4.8567     4.8940 N.pl3   
  20 O20           -2.4258    -5.1694     5.4143 O.2     
  21 O21           -0.3162    -5.1587     5.4253 O.2     
  22 C22           -1.4155    -2.6904    -1.2087 C.ar    
  23 C23           -1.3967    -4.0797    -1.2175 C.ar    
  24 C24           -1.3992    -4.7637    -2.4178 C.ar    
  25 C25           -1.4205    -4.0689    -3.6120 C.ar    
  26 C26           -1.4389    -2.6808    -3.6096 C.ar    
  27 C27           -1.4422    -1.9908    -2.4079 C.ar    
  28 O28           -1.4593    -1.9991    -4.7850 O.3     
  29 C29           -1.4606    -2.7749    -5.9850 C.3     
  30 H30            1.0039     1.9031     0.0027 H       
  31 H31           -0.5459     1.8868    -0.8726 H       
  32 H32           -0.5289     1.8773     0.9072 H       
  33 H33            0.5123    -0.3556    -0.8948 H       
  34 H34            0.5293    -0.3651     0.8851 H       
  35 H35           -1.9435    -0.1821     0.9097 H       
  36 H36           -1.9605    -0.1726    -0.8702 H       
  37 H37           -3.5205    -2.8089     1.3624 H       
  38 H38           -3.4918    -4.0491     3.4840 H       
  39 H39            1.5312    -2.3100     0.5631 H       
  40 H40            1.4623    -4.4078     4.1752 H       
  41 H41            5.8975    -4.4061     2.4959 H       
  42 H42            5.8798    -2.8656     3.3874 H       
  43 H43            5.7757    -4.1073     5.5312 H       
  44 H44            5.7934    -5.6478     4.6398 H       
  45 H45            7.2129    -4.5751     4.5911 H       
  46 H46           -1.3797    -4.6252    -0.2856 H       
  47 H47           -1.3842    -5.8436    -2.4228 H       
  48 H48           -1.4224    -4.6065    -4.5487 H       
  49 H49           -1.4565    -0.9109    -2.4041 H       
  50 H50           -0.5626    -3.3918    -6.0198 H       
  51 H51           -2.3424    -3.4155    -6.0026 H       
  52 H52           -1.4778    -2.1093    -6.8480 H       
@<TRIPOS>BOND
   1    1    2 1
   2    1   30 1
   3    1   31 1
   4    1   32 1
   5    2    3 1
   6    2   33 1
   7    2   34 1
   8    3    4 1
   9    3   35 1
  10    3   36 1
  11    4    5 1
  12    4   22 1
  13    5    6 ar
  14    5   10 ar
  15    6    7 ar
  16    6   37 1
  17    7    8 ar
  18    7   38 1
  19    8    9 ar
  20    8   19 1
  21    9   10 ar
  22    9   13 1
  23   10   11 1
  24   11   12 2
  25   11   39 1
  26   12   13 1
  27   12   14 1
  28   13   40 1
  29   14   15 2
  30   14   16 1
  31   16   17 1
  32   17   18 1
  33   17   41 1
  34   17   42 1
  35   18   43 1
  36   18   44 1
  37   18   45 1
  38   19   20 2
  39   19   21 2
  40   22   23 ar
  41   22   27 ar
  42   23   24 ar
  43   23   46 1
  44   24   25 ar
  45   24   47 1
  46   25   26 ar
  47   25   48 1
  48   26   27 ar
  49   26   28 1
  50   27   49 1
  51   28   29 1
  52   29   50 1
  53   29   51 1
  54   29   52 1

#	End of record

