#	Name: ASD01900484
#	Creating user name:	WinNT
#	Creation time:	15. 06. 2019 19:52

#	Modifying user name:	WinNT
#	Modification time:	15. 06. 2019 19:52

#	Program:	/corina/corina34_cracker 3.40 0067  02.08.2006

@<TRIPOS>MOLECULE
ASD01900484
  36   39    0    0    0
SMALL
NO_CHARGES


@<TRIPOS>ATOM
   1 C1            -0.0862     0.8929     0.5649 C.ar    
   2 C2            -0.0596    -0.4454     0.1898 C.ar    
   3 C3             1.1360    -1.0392    -0.1649 C.ar    
   4 C4             2.3113    -0.2986    -0.1468 C.ar    
   5 C5             2.2840     1.0383     0.2281 C.ar    
   6 C6             1.0886     1.6321     0.5829 C.ar    
   7 N7            -1.2994     1.4970     0.9193 N.pl3   
   8 N8             3.5228    -0.9000    -0.5057 N.pl3   
   9 C9             5.8935    -0.6021    -1.4040 C.ar    
  10 C10            6.5947     0.5243    -1.8749 C.ar    
  11 C11            7.9089     0.3686    -2.3142 C.ar    
  12 C12            8.4684    -0.8931    -2.2674 C.ar    
  13 C13            7.7179    -1.9599    -1.7905 C.ar    
  14 N14            6.4805    -1.7964    -1.3810 N.ar    
  15 N15            4.5208     1.1625    -1.2585 N.2     
  16 N16            5.7446     1.5943    -1.7803 N.pl3   
  17 C17            4.5616    -0.1229    -1.0271 C.2     
  18 C18           -1.2996     2.6876     1.6372 C.ar    
  19 C19           -2.4942     3.3699     1.8587 C.ar    
  20 N20           -0.1629     3.1748     2.1180 N.ar    
  21 N21           -2.4896     4.4992     2.5404 N.ar    
  22 C22           -1.3532     4.9839     3.0131 C.ar    
  23 C23           -0.1673     4.3075     2.8002 C.ar    
  24 Cl24          -1.5285    -1.3704     0.1679 Cl      
  25 H25            1.1572    -2.0790    -0.4561 H       
  26 H26            3.1978     1.6138     0.2422 H       
  27 H27            1.0678     2.6720     0.8739 H       
  28 H28           -2.1394     1.0846     0.6638 H       
  29 H29            3.6419    -1.8560    -0.3928 H       
  30 H30            8.4742     1.2124    -2.6816 H       
  31 H31            9.4839    -1.0495    -2.6002 H       
  32 H32            8.1604    -2.9445    -1.7565 H       
  33 H33            5.9574     2.5059    -2.0344 H       
  34 H34           -3.4223     2.9748     1.4727 H       
  35 H35           -1.3529     5.9088     3.5708 H       
  36 H36            0.7575     4.7044     3.1921 H       
@<TRIPOS>BOND
   1    1    2 ar
   2    1    6 ar
   3    1    7 1
   4    2    3 ar
   5    2   24 1
   6    3    4 ar
   7    3   25 1
   8    4    5 ar
   9    4    8 1
  10    5    6 ar
  11    5   26 1
  12    6   27 1
  13    7   18 1
  14    7   28 1
  15    8   17 1
  16    8   29 1
  17    9   10 ar
  18    9   14 ar
  19    9   17 1
  20   10   11 ar
  21   10   16 1
  22   11   12 ar
  23   11   30 1
  24   12   13 ar
  25   12   31 1
  26   13   14 ar
  27   13   32 1
  28   15   16 1
  29   15   17 2
  30   16   33 1
  31   18   19 ar
  32   18   20 ar
  33   19   21 ar
  34   19   34 1
  35   20   23 ar
  36   21   22 ar
  37   22   23 ar
  38   22   35 1
  39   23   36 1

#	End of record

