#	Name: ASD01915054
#	Creating user name:	WinNT
#	Creation time:	15. 06. 2019 20:04

#	Modifying user name:	WinNT
#	Modification time:	15. 06. 2019 20:04

#	Program:	/corina/corina34_cracker 3.40 0067  02.08.2006

@<TRIPOS>MOLECULE
ASD01915054
  29   31    0    0    0
SMALL
NO_CHARGES


@<TRIPOS>ATOM
   1 C1            -0.0180     1.4737     0.0101 C.2     
   2 C2             0.0021    -0.0041     0.0020 C.ar    
   3 C3             1.2187    -0.6886    -0.0133 C.ar    
   4 C4             1.2301    -2.0690    -0.0208 C.ar    
   5 C5             0.0380    -2.7739    -0.0138 C.ar    
   6 C6            -1.1703    -2.1008     0.0009 C.ar    
   7 C7            -1.1953    -0.7213     0.0154 C.ar    
   8 O8             1.0263     2.0957     0.0035 O.2     
   9 N9            -1.1942     2.1316     0.0193 N.am    
  10 Cl10           2.7415    -2.9229    -0.0399 Cl      
  11 C11           -1.2130     3.5150     0.0269 C.2     
  12 N12           -0.1061     4.3141     0.0260 N.pl3   
  13 C13           -0.5471     5.6263     0.0352 C.ar    
  14 C14           -1.9509     5.5663     0.0416 C.ar    
  15 N15           -2.2945     4.2520     0.0304 N.2     
  16 C16           -2.6898     6.7518     0.0515 C.ar    
  17 C17           -2.0371     7.9643     0.0551 C.ar    
  18 C18           -0.6513     8.0179     0.0483 C.ar    
  19 C19            0.0931     6.8562     0.0393 C.ar    
  20 H20            2.1487    -0.1395    -0.0195 H       
  21 H21            0.0519    -3.8538    -0.0201 H       
  22 H22           -2.0964    -2.6564     0.0060 H       
  23 H23           -2.1396    -0.1975     0.0317 H       
  24 H24           -2.0276     1.6353     0.0206 H       
  25 H25            0.8175     4.0177     0.0205 H       
  26 H26           -3.7692     6.7175     0.0561 H       
  27 H27           -2.6088     8.8806     0.0628 H       
  28 H28           -0.1515     8.9752     0.0508 H       
  29 H29            1.1720     6.9048     0.0347 H       
@<TRIPOS>BOND
   1    1    2 1
   2    1    8 2
   3    1    9 am
   4    2    3 ar
   5    2    7 ar
   6    3    4 ar
   7    3   20 1
   8    4    5 ar
   9    4   10 1
  10    5    6 ar
  11    5   21 1
  12    6    7 ar
  13    6   22 1
  14    7   23 1
  15    9   11 1
  16    9   24 1
  17   11   12 1
  18   11   15 2
  19   12   13 1
  20   12   25 1
  21   13   14 ar
  22   13   19 ar
  23   14   15 1
  24   14   16 ar
  25   16   17 ar
  26   16   26 1
  27   17   18 ar
  28   17   27 1
  29   18   19 ar
  30   18   28 1
  31   19   29 1

#	End of record

