#	Name: ASD00960253
#	Creating user name:	WinNT
#	Creation time:	15. 06. 2019 18:53

#	Modifying user name:	WinNT
#	Modification time:	15. 06. 2019 18:53

#	Program:	/corina/corina34_cracker 3.40 0067  02.08.2006

@<TRIPOS>MOLECULE
ASD00960253
  41   43    0    0    0
SMALL
NO_CHARGES


@<TRIPOS>ATOM
   1 C1            -0.0167     1.3802     0.0096 C.2     
   2 C2             0.0021    -0.0041     0.0020 C.2     
   3 N3             1.2835     1.8087    -0.0005 N.pl3   
   4 C4             2.1028     0.7089     0.0001 C.2     
   5 C5             1.3473    -0.4009    -0.0056 C.2     
   6 N6             1.8027     3.1118     0.0020 N.2     
   7 C7             3.0817     3.2699    -0.2214 C.2     
   8 N8             3.9077     2.1924    -0.5225 N.pl3   
   9 C9             3.6078     0.8543     0.0180 C.3     
  10 N10            4.1075     0.7443     1.3950 N.3     
  11 C11            3.6629     4.6260    -0.1526 C.2     
  12 N12            2.8772     5.6819     0.1375 N.am    
  13 O13            4.8499     4.7897    -0.3577 O.2     
  14 C14            3.4536     7.0270     0.2056 C.3     
  15 C15           -1.2083     2.2299     0.0202 C.2     
  16 O16           -2.3150     1.7253     0.0234 O.2     
  17 O17           -1.0791     3.5727     0.0263 O.3     
  18 C18           -2.2844     4.3403     0.0365 C.3     
  19 C19           -1.9449     5.8085     0.0422 C.ar    
  20 C20           -1.7954     6.4880    -1.1523 C.ar    
  21 C21           -1.4839     7.8348    -1.1471 C.ar    
  22 C22           -1.3224     8.5022     0.0526 C.ar    
  23 C23           -1.4727     7.8229     1.2472 C.ar    
  24 C24           -1.7885     6.4771     1.2420 C.ar    
  25 H25           -0.8585    -0.6566     0.0023 H       
  26 H26            1.7106    -1.4179    -0.0144 H       
  27 H27            4.6836     2.3219    -1.0899 H       
  28 H28            4.0644     0.0878    -0.6083 H       
  29 H29            5.1060     0.8856     1.4297 H       
  30 H30            3.6296     1.3897     2.0058 H       
  31 H31            1.9301     5.5513     0.3011 H       
  32 H32            2.6714     7.7456     0.4503 H       
  33 H33            4.2248     7.0532     0.9755 H       
  34 H34            3.8936     7.2830    -0.7582 H       
  35 H35           -2.8716     4.1066    -0.8516 H       
  36 H36           -2.8623     4.0976     0.9283 H       
  37 H37           -1.9217     5.9666    -2.0896 H       
  38 H38           -1.3664     8.3655    -2.0803 H       
  39 H39           -1.0783     9.5543     0.0567 H       
  40 H40           -1.3462     8.3443     2.1845 H       
  41 H41           -1.9097     5.9473     2.1752 H       
@<TRIPOS>BOND
   1    1    2 2
   2    1    3 1
   3    1   15 1
   4    2    5 1
   5    2   25 1
   6    3    4 1
   7    3    6 1
   8    4    5 2
   9    4    9 1
  10    5   26 1
  11    6    7 2
  12    7    8 1
  13    7   11 1
  14    8    9 1
  15    8   27 1
  16    9   10 1
  17    9   28 1
  18   10   29 1
  19   10   30 1
  20   11   12 am
  21   11   13 2
  22   12   14 1
  23   12   31 1
  24   14   32 1
  25   14   33 1
  26   14   34 1
  27   15   16 2
  28   15   17 1
  29   17   18 1
  30   18   19 1
  31   18   35 1
  32   18   36 1
  33   19   20 ar
  34   19   24 ar
  35   20   21 ar
  36   20   37 1
  37   21   22 ar
  38   21   38 1
  39   22   23 ar
  40   22   39 1
  41   23   24 ar
  42   23   40 1
  43   24   41 1

#	End of record

