#	Name: ASD01916638
#	Creating user name:	WinNT
#	Creation time:	15. 06. 2019 20:07

#	Modifying user name:	WinNT
#	Modification time:	15. 06. 2019 20:07

#	Program:	/corina/corina34_cracker 3.40 0067  02.08.2006

@<TRIPOS>MOLECULE
ASD01916638
  35   36    0    0    0
SMALL
NO_CHARGES


@<TRIPOS>ATOM
   1 C1            -0.0170     1.4051     0.0098 C.2     
   2 C2             0.0021    -0.0041     0.0020 C.2     
   3 C3             1.1968    -0.6541    -0.0129 C.2     
   4 C4             2.3912     0.0853    -0.0203 C.2     
   5 C5             2.3569     1.4343    -0.0123 C.2     
   6 N6             1.1651     2.0992     0.0022 N.pl3   
   7 N7            -1.0090     2.2842     0.0293 N.2     
   8 C8            -0.5004     3.5187     0.0287 C.2     
   9 C9             0.8476     3.4301     0.0128 C.2     
  10 C10           -1.2972     4.7977     0.0476 C.3     
  11 C11           -2.2868     4.7994    -1.1192 C.3     
  12 C12           -3.0651     6.0487    -1.1008 C.1     
  13 C13           -3.6858     7.0450    -1.0861 C.1     
  14 Si14          -4.6904     8.6576    -1.0623 Si      
  15 C15           -5.8954     8.6596    -2.4831 C.3     
  16 C16           -5.6247     8.7835     0.5445 C.3     
  17 C17           -3.5361    10.1108    -1.2250 C.3     
  18 H18           -0.9225    -0.5622     0.0082 H       
  19 H19            1.2270    -1.7337    -0.0186 H       
  20 H20            3.3412    -0.4283    -0.0321 H       
  21 H21            3.2812     1.9930    -0.0178 H       
  22 H22            1.5443     4.2554     0.0107 H       
  23 H23           -1.8439     4.8714     0.9877 H       
  24 H24           -0.6219     5.6480    -0.0476 H       
  25 H25           -1.7402     4.7257    -2.0594 H       
  26 H26           -2.9622     3.9491    -1.0240 H       
  27 H27           -6.5708     7.8093    -2.3879 H       
  28 H28           -6.4717     9.5847    -2.4695 H       
  29 H29           -5.3488     8.5859    -3.4232 H       
  30 H30           -4.9197     8.7824     1.3758 H       
  31 H31           -6.2010     9.7086     0.5582 H       
  32 H32           -6.3001     7.9333     0.6397 H       
  33 H33           -2.9894    10.0371    -2.1651 H       
  34 H34           -4.1124    11.0359    -1.2113 H       
  35 H35           -2.8310    10.1096    -0.3937 H       
@<TRIPOS>BOND
   1    1    2 1
   2    1    6 1
   3    1    7 2
   4    2    3 2
   5    2   18 1
   6    3    4 1
   7    3   19 1
   8    4    5 2
   9    4   20 1
  10    5    6 1
  11    5   21 1
  12    6    9 1
  13    7    8 1
  14    8    9 2
  15    8   10 1
  16    9   22 1
  17   10   11 1
  18   10   23 1
  19   10   24 1
  20   11   12 1
  21   11   25 1
  22   11   26 1
  23   12   13 3
  24   13   14 1
  25   14   15 1
  26   14   16 1
  27   14   17 1
  28   15   27 1
  29   15   28 1
  30   15   29 1
  31   16   30 1
  32   16   31 1
  33   16   32 1
  34   17   33 1
  35   17   34 1
  36   17   35 1

#	End of record

