#	Name: ASD01900664
#	Creating user name:	WinNT
#	Creation time:	15. 06. 2019 19:52

#	Modifying user name:	WinNT
#	Modification time:	15. 06. 2019 19:52

#	Program:	/corina/corina34_cracker 3.40 0067  02.08.2006

@<TRIPOS>MOLECULE
ASD01900664
  62   66    0    0    0
SMALL
NO_CHARGES


@<TRIPOS>ATOM
   1 C1            -0.0158     1.4104    -0.1144 C.ar    
   2 C2             0.0118     0.0197    -0.1184 C.ar    
   3 C3            -1.1601    -0.7066    -0.0665 C.ar    
   4 C4            -2.3834    -0.0517    -0.0096 C.ar    
   5 C5            -2.4101     1.3497    -0.0098 C.ar    
   6 O6            -3.5356    -0.7545     0.0529 O.3     
   7 C7            -4.7274    -0.1817    -0.1874 C.2     
   8 C8            -4.9062     1.1604    -0.2029 C.2     
   9 C9            -3.7334     2.0222     0.0381 C.2     
  10 C10           -5.8914    -1.0529    -0.4450 C.ar    
  11 N11           -7.0829    -0.4983    -0.6855 N.ar    
  12 C12           -8.1578    -1.2080    -0.9222 C.ar    
  13 C13           -8.0917    -2.6124    -0.9309 C.ar    
  14 C14           -6.8432    -3.2415    -0.6797 C.ar    
  15 C15           -5.7238    -2.4289    -0.4378 C.ar    
  16 C16           -9.2219    -3.4055    -1.1795 C.ar    
  17 C17           -9.1049    -4.7628    -1.1764 C.ar    
  18 C18           -7.8798    -5.3793    -0.9295 C.ar    
  19 C19           -6.7605    -4.6424    -0.6844 C.ar    
  20 C20           -1.2297     2.0791    -0.0544 C.ar    
  21 N21            1.1801     2.1343    -0.1649 N.pl3   
  22 C22            2.4622     1.4277    -0.2221 C.3     
  23 C23            3.6037     2.4453    -0.2696 C.3     
  24 C24            4.9426     1.7073    -0.3294 C.3     
  25 N25            6.0386     2.6844    -0.3750 N.3     
  26 C26            7.3396     2.0252    -0.1945 C.3     
  27 C27            5.8437     3.7417     0.6268 C.3     
  28 C28            6.9610     4.7792     0.4937 C.3     
  29 N29            8.2620     4.1200     0.6743 N.3     
  30 C30            8.4569     3.0627    -0.3276 C.3     
  31 C31            9.3580     5.0971     0.6286 C.3     
  32 N32           -3.8522     3.3048     0.2812 N.2     
  33 O33           -2.7155     4.0634     0.6520 O.3     
  34 H34            0.9594    -0.4965    -0.1630 H       
  35 H35           -1.1261    -1.7860    -0.0704 H       
  36 H36           -5.8806     1.5882    -0.3866 H       
  37 H37           -9.0987    -0.7126    -1.1112 H       
  38 H38           -4.7559    -2.8662    -0.2424 H       
  39 H39          -10.1787    -2.9430    -1.3719 H       
  40 H40           -9.9763    -5.3713    -1.3681 H       
  41 H41           -7.8166    -6.4575    -0.9325 H       
  42 H42           -5.8170    -5.1325    -0.4948 H       
  43 H43           -1.2567     3.1587    -0.0510 H       
  44 H44            1.1605     3.1041    -0.1620 H       
  45 H45            2.5711     0.8005     0.6627 H       
  46 H46            2.4938     0.8042    -1.1156 H       
  47 H47            3.4947     3.0725    -1.1544 H       
  48 H48            3.5720     3.0688     0.6239 H       
  49 H49            5.0516     1.0801     0.5554 H       
  50 H50            4.9743     1.0838    -1.2229 H       
  51 H51            7.3823     1.5697     0.7948 H       
  52 H52            7.4658     1.2552    -0.9556 H       
  53 H53            4.8793     4.2231     0.4645 H       
  54 H54            5.8693     3.3057     1.6254 H       
  55 H55            6.9183     5.2347    -0.4956 H       
  56 H56            6.8347     5.5492     1.2548 H       
  57 H57            9.4213     2.5813    -0.1653 H       
  58 H58            8.4312     3.4988    -1.3262 H       
  59 H59            9.2244     5.8304     1.4239 H       
  60 H60           10.3092     4.5826     0.7648 H       
  61 H61            9.3536     5.6032    -0.3368 H       
  62 H62           -2.9017     4.9990     0.8107 H       
@<TRIPOS>BOND
   1    1    2 ar
   2    1   21 1
   3    1   20 ar
   4    2    3 ar
   5    2   34 1
   6    3    4 ar
   7    3   35 1
   8    4    5 ar
   9    4    6 1
  10    5   20 ar
  11    5    9 1
  12    6    7 1
  13    7    8 2
  14    7   10 1
  15    8    9 1
  16    8   36 1
  17    9   32 2
  18   10   11 ar
  19   10   15 ar
  20   11   12 ar
  21   12   13 ar
  22   12   37 1
  23   13   14 ar
  24   13   16 ar
  25   14   15 ar
  26   14   19 ar
  27   15   38 1
  28   16   17 ar
  29   16   39 1
  30   17   18 ar
  31   17   40 1
  32   18   19 ar
  33   18   41 1
  34   19   42 1
  35   20   43 1
  36   21   22 1
  37   21   44 1
  38   22   23 1
  39   22   45 1
  40   22   46 1
  41   23   24 1
  42   23   47 1
  43   23   48 1
  44   24   25 1
  45   24   49 1
  46   24   50 1
  47   25   26 1
  48   25   27 1
  49   26   30 1
  50   26   51 1
  51   26   52 1
  52   27   28 1
  53   27   53 1
  54   27   54 1
  55   28   29 1
  56   28   55 1
  57   28   56 1
  58   29   30 1
  59   29   31 1
  60   30   57 1
  61   30   58 1
  62   31   59 1
  63   31   60 1
  64   31   61 1
  65   32   33 1
  66   33   62 1

#	End of record

