#	Name: ASD02610020
#	Creating user name:	WinNT
#	Creation time:	15. 06. 2019 20:25

#	Modifying user name:	WinNT
#	Modification time:	15. 06. 2019 20:25

#	Program:	/corina/corina34_cracker 3.40 0067  02.08.2006

@<TRIPOS>MOLECULE
ASD02610020
 108  110    0    0    0
SMALL
NO_CHARGES


@<TRIPOS>ATOM
   1 C1             0.3073     1.1273    -0.2543 C.3     
   2 C2             0.6785    -0.3679    -0.3597 C.3     
   3 C3             2.1827    -0.4240    -0.4484 C.2     
   4 C4             2.7192     0.7584    -0.3705 C.2     
   5 C5             1.6631     1.8040    -0.1272 C.3     
   6 C6             4.1644     1.1205    -0.6071 C.3     
   7 C7             4.5471     2.2901     0.2728 C.3     
   8 C8             4.2439     3.6389    -0.2956 C.3     
   9 C9             2.8138     4.0488    -0.0511 C.3     
  10 C10            1.8466     3.1136    -0.7786 C.3     
  11 O11            0.2285    -1.0686     0.8016 O.3     
  12 C12            2.9709    -1.6985    -0.6077 C.3     
  13 O13           -0.5030     1.3740     0.9250 O.3     
  14 H14            1.7501     2.0220     0.9372 H       
  15 O15            0.5537     3.7680    -0.8705 O.3     
  16 C16            2.3701     2.8814    -2.1974 C.3     
  17 O17            4.4894     3.6138    -1.7265 O.3     
  18 C18            4.8766     4.7646    -2.2986 C.2     
  19 C19            5.1498     4.8152    -3.7798 C.3     
  20 O20            5.0061     5.7600    -1.6261 O.2     
  21 O21            5.0943     0.0626    -0.2546 O.3     
  22 C22            6.2882     0.6540    -0.0046 C.2     
  23 C23            6.0227     2.0258     0.5990 C.3     
  24 O24            3.8109     2.1672     1.4915 O.3     
  25 C25            5.5717     6.2325    -4.1725 C.3     
  26 C26            5.8491     6.2838    -5.6763 C.3     
  27 C27           -1.8351     1.3061     0.7741 C.2     
  28 C28           -2.7404     1.5505     1.9538 C.3     
  29 C29           -4.1994     1.4140     1.5139 C.3     
  30 C30           -5.1186     1.6621     2.7116 C.3     
  31 C31           -6.5776     1.5256     2.2718 C.3     
  32 C32           -7.4968     1.7737     3.4695 C.3     
  33 O33           -2.3083     1.0491    -0.3075 O.2     
  34 O34            7.3756     0.1747    -0.2233 O.2     
  35 O35            6.8562     3.0127    -0.0121 O.3     
  36 C36           -8.9558     1.6371     3.0296 C.3     
  37 C37           -9.8749     1.8853     4.2273 C.3     
  38 C38            6.2418     1.9982     2.1129 C.3     
  39 C39           -0.0405     4.1082     0.2840 C.2     
  40 C40           -1.3261     4.8944     0.2666 C.3     
  41 O41            0.4553     3.7842     1.3371 O.2     
  42 H42            4.3078     1.3882    -1.6539 H       
  43 C43           -0.1051    -2.4372     0.5618 C.3     
  44 C44           -0.5713    -3.0848     1.8672 C.3     
  45 C45           -0.9285    -4.5502     1.6105 C.3     
  46 C46           -1.3948    -5.1978     2.9159 C.3     
  47 C47           -1.7520    -6.6632     2.6591 C.3     
  48 C48           -2.2183    -7.3107     3.9646 C.3     
  49 C49           -2.5754    -8.7761     3.7078 C.3     
  50 C50           -3.0417    -9.4237     5.0132 C.3     
  51 H51           -0.2079     1.4614    -1.1548 H       
  52 H52            0.2340    -0.8019    -1.2553 H       
  53 H53            4.9062     4.3733     0.1628 H       
  54 H54            2.6090     4.0144     1.0189 H       
  55 H55            2.6663     5.0672    -0.4108 H       
  56 H56            2.2869    -2.5462    -0.6470 H       
  57 H57            3.5491    -1.6552    -1.5307 H       
  58 H58            3.6468    -1.8160     0.2393 H       
  59 H59            1.5916     2.4133    -2.7998 H       
  60 H60            2.6491     3.8364    -2.6426 H       
  61 H61            3.2425     2.2290    -2.1606 H       
  62 H62            5.9496     4.1167    -4.0258 H       
  63 H63            4.2470     4.5406    -4.3254 H       
  64 H64            3.9852     2.8729     2.1291 H       
  65 H65            4.7720     6.9310    -3.9265 H       
  66 H66            6.4746     6.5071    -3.6269 H       
  67 H67            6.1497     7.2935    -5.9560 H       
  68 H68            6.6489     5.5853    -5.9223 H       
  69 H69            4.9463     6.0092    -6.2218 H       
  70 H70           -2.5262     0.8199     2.7338 H       
  71 H71           -2.5701     2.5553     2.3405 H       
  72 H72           -4.4137     2.1446     0.7340 H       
  73 H73           -4.3698     0.4092     1.1272 H       
  74 H74           -4.9043     0.9314     3.4916 H       
  75 H75           -4.9482     2.6669     3.0984 H       
  76 H76           -6.7919     2.2562     1.4918 H       
  77 H77           -6.7480     0.5208     1.8850 H       
  78 H78           -7.2825     1.0430     4.2494 H       
  79 H79           -7.3264     2.7785     3.8562 H       
  80 H80            7.7999     2.8930     0.1620 H       
  81 H81           -9.1700     2.3678     2.2496 H       
  82 H82           -9.1261     0.6324     2.6429 H       
  83 H83           -9.7045     2.8900     4.6140 H       
  84 H84          -10.9143     1.7880     3.9139 H       
  85 H85           -9.6607     1.1546     5.0072 H       
  86 H86            5.6352     1.2069     2.5535 H       
  87 H87            7.2943     1.8095     2.3244 H       
  88 H88            5.9519     2.9584     2.5396 H       
  89 H89           -2.1719     4.2072     0.2449 H       
  90 H90           -1.3847     5.5147     1.1610 H       
  91 H91           -1.3515     5.5299    -0.6186 H       
  92 H92           -0.9047    -2.4922    -0.1769 H       
  93 H93            0.7723    -2.9649     0.1876 H       
  94 H94            0.2282    -3.0298     2.6060 H       
  95 H95           -1.4487    -2.5572     2.2414 H       
  96 H96           -1.7281    -4.6052     0.8717 H       
  97 H97           -0.0512    -5.0778     1.2363 H       
  98 H98           -0.5952    -5.1428     3.6546 H       
  99 H99           -2.2721    -4.6702     3.2901 H       
 100 H100          -2.5516    -6.7182     1.9204 H       
 101 H101          -0.8747    -7.1908     2.2849 H       
 102 H102          -1.4187    -7.2557     4.7033 H       
 103 H103          -3.0956    -6.7831     4.3388 H       
 104 H104          -3.3750    -8.8312     2.9691 H       
 105 H105          -1.6981    -9.3038     3.3336 H       
 106 H106          -3.2962   -10.4677     4.8303 H       
 107 H107          -2.2421    -9.3687     5.7519 H       
 108 H108          -3.9190    -8.8961     5.3874 H       
@<TRIPOS>BOND
   1    1    2 1
   2    1    5 1
   3    1   13 1
   4    1   51 1
   5    2    3 1
   6    2   11 1
   7    2   52 1
   8    3    4 2
   9    3   12 1
  10    4    5 1
  11    4    6 1
  12    5   10 1
  13    5   14 1
  14    6    7 1
  15    6   21 1
  16    6   42 1
  17    7   23 1
  18    7   24 1
  19    7    8 1
  20    8    9 1
  21    8   17 1
  22    8   53 1
  23    9   10 1
  24    9   54 1
  25    9   55 1
  26   10   15 1
  27   10   16 1
  28   11   43 1
  29   12   56 1
  30   12   57 1
  31   12   58 1
  32   13   27 1
  33   15   39 1
  34   16   59 1
  35   16   60 1
  36   16   61 1
  37   17   18 1
  38   18   19 1
  39   18   20 2
  40   19   25 1
  41   19   62 1
  42   19   63 1
  43   21   22 1
  44   22   23 1
  45   22   34 2
  46   23   35 1
  47   23   38 1
  48   24   64 1
  49   25   26 1
  50   25   65 1
  51   25   66 1
  52   26   67 1
  53   26   68 1
  54   26   69 1
  55   27   28 1
  56   27   33 2
  57   28   29 1
  58   28   70 1
  59   28   71 1
  60   29   30 1
  61   29   72 1
  62   29   73 1
  63   30   31 1
  64   30   74 1
  65   30   75 1
  66   31   32 1
  67   31   76 1
  68   31   77 1
  69   32   36 1
  70   32   78 1
  71   32   79 1
  72   35   80 1
  73   36   37 1
  74   36   81 1
  75   36   82 1
  76   37   83 1
  77   37   84 1
  78   37   85 1
  79   38   86 1
  80   38   87 1
  81   38   88 1
  82   39   40 1
  83   39   41 2
  84   40   89 1
  85   40   90 1
  86   40   91 1
  87   43   44 1
  88   43   92 1
  89   43   93 1
  90   44   45 1
  91   44   94 1
  92   44   95 1
  93   45   46 1
  94   45   96 1
  95   45   97 1
  96   46   47 1
  97   46   98 1
  98   46   99 1
  99   47   48 1
 100   47  100 1
 101   47  101 1
 102   48   49 1
 103   48  102 1
 104   48  103 1
 105   49   50 1
 106   49  104 1
 107   49  105 1
 108   50  106 1
 109   50  107 1
 110   50  108 1

#	End of record

