#	Name: ASD02508074
#	Creating user name:	WinNT
#	Creation time:	15. 06. 2019 20:23

#	Modifying user name:	WinNT
#	Modification time:	15. 06. 2019 20:23

#	Program:	/corina/corina34_cracker 3.40 0067  02.08.2006

@<TRIPOS>MOLECULE
ASD02508074
  37   39    0    0    0
SMALL
NO_CHARGES


@<TRIPOS>ATOM
   1 C1             1.6695    -4.1135     0.7454 C.ar    
   2 C2             0.9337    -3.0308     0.2905 C.ar    
   3 C3             3.0468    -3.9964     0.9323 C.ar    
   4 C4             3.6787    -2.7933     0.6618 C.ar    
   5 C5             2.9393    -1.7115     0.2066 C.ar    
   6 C6             1.5663    -1.8321     0.0215 C.ar    
   7 N7             1.3291    -5.4209     1.1014 N.am    
   8 C8             2.4628    -6.0463     1.4756 C.2     
   9 O9             3.4964    -5.1957     1.3769 O.3     
  10 N10            3.5766    -0.4957    -0.0669 N.am    
  11 S11            4.8503     0.0003     0.8681 S.o2    
  12 C12            4.2577     0.1474     2.5209 C.ar    
  13 C13            3.2819     1.0848     2.8279 C.ar    
  14 O14            2.5371    -7.2012     1.8491 O.2     
  15 O15            5.7862    -1.0689     0.8710 O.2     
  16 Cl16           0.6458    -0.4748    -0.5478 Cl      
  17 C17            4.7603    -0.6741     3.5110 C.ar    
  18 C18            4.2954    -0.5595     4.8084 C.ar    
  19 C19            3.3269     0.3772     5.1178 C.ar    
  20 C20            2.8175     1.1982     4.1300 C.ar    
  21 O21            5.1744     1.3158     0.4394 O.2     
  22 O22            2.7821     1.8908     1.8545 O.3     
  23 C23            4.8451    -1.4575     5.8865 C.3     
  24 C24            1.7799     2.8324     2.2429 C.3     
  25 H25           -0.1326    -3.1239     0.1462 H       
  26 H26            4.7448    -2.6979     0.8054 H       
  27 H27            0.4396    -5.8076     1.0832 H       
  28 H28            3.2723     0.0564    -0.8042 H       
  29 H29            5.5167    -1.4069     3.2717 H       
  30 H30            2.9652     0.4646     6.1317 H       
  31 H31            2.0610     1.9298     4.3723 H       
  32 H32            5.7109    -0.9829     6.3482 H       
  33 H33            4.0786    -1.6289     6.6424 H       
  34 H34            5.1432    -2.4102     5.4489 H       
  35 H35            0.9210     2.3006     2.6525 H       
  36 H36            2.1859     3.5039     2.9994 H       
  37 H37            1.4682     3.4108     1.3732 H       
@<TRIPOS>BOND
   1    1    2 ar
   2    1    3 ar
   3    1    7 1
   4    2    6 ar
   5    2   25 1
   6    3    4 ar
   7    3    9 1
   8    4    5 ar
   9    4   26 1
  10    5    6 ar
  11    5   10 1
  12    6   16 1
  13    7    8 am
  14    7   27 1
  15    8    9 1
  16    8   14 2
  17   10   11 am
  18   10   28 1
  19   11   12 1
  20   11   15 2
  21   11   21 2
  22   12   13 ar
  23   12   17 ar
  24   13   22 1
  25   13   20 ar
  26   17   18 ar
  27   17   29 1
  28   18   19 ar
  29   18   23 1
  30   19   20 ar
  31   19   30 1
  32   20   31 1
  33   22   24 1
  34   23   32 1
  35   23   33 1
  36   23   34 1
  37   24   35 1
  38   24   36 1
  39   24   37 1

#	End of record

