#	Name: ASD03092032
#	Creating user name:	WinNT
#	Creation time:	15. 06. 2019 20:31

#	Modifying user name:	WinNT
#	Modification time:	15. 06. 2019 20:31

#	Program:	/corina/corina34_cracker 3.40 0067  02.08.2006

@<TRIPOS>MOLECULE
ASD03092032
  43   45    0    0    0
SMALL
NO_CHARGES


@<TRIPOS>ATOM
   1 N1             0.3172     1.7097     1.7417 N.am    
   2 C2             0.2847     0.3668     1.4685 C.2     
   3 C3            -1.0173     0.0278     1.2483 C.2     
   4 C4            -1.7936     1.1892     1.3904 C.2     
   5 N5            -0.9980     2.1886     1.6902 N.2     
   6 C6             1.4175     2.4379     2.0164 C.2     
   7 N7             1.3228     3.7749     2.1576 N.am    
   8 N8            -3.1812     1.2665     1.2430 N.pl3   
   9 C9            -3.8240     2.5044     1.3205 C.ar    
  10 C10           -5.1034     2.5920     1.8548 C.ar    
  11 C11           -5.7373     3.8169     1.9306 C.ar    
  12 C12           -5.1007     4.9563     1.4751 C.ar    
  13 C13           -3.8250     4.8737     0.9411 C.ar    
  14 C14           -3.1829     3.6509     0.8688 C.ar    
  15 C15            1.4474    -0.5458     1.4210 C.ar    
  16 C16            2.3168    -0.6604     2.5117 C.ar    
  17 C17            3.3887    -1.5242     2.4244 C.ar    
  18 N18            3.5987    -2.2354     1.3332 N.ar    
  19 C19            2.8038    -2.1575     0.2828 C.ar    
  20 C20            1.7057    -1.3234     0.2859 C.ar    
  21 C21            2.5188     4.5665     2.4562 C.3     
  22 O22            2.4950     1.8891     2.1367 O.2     
  23 C23            0.8039    -1.2415    -0.9187 C.3     
  24 F24           -3.2056     5.9889     0.4963 F       
  25 C25           -7.1252     3.9113     2.5102 C.3     
  26 F26           -7.0406     4.1323     3.8891 F       
  27 F27           -7.8105     4.9725     1.9090 F       
  28 F28           -7.8128     2.7167     2.2707 F       
  29 H29           -1.3859    -0.9582     1.0071 H       
  30 H30            0.4627     4.2130     2.0615 H       
  31 H31           -3.6980     0.4606     1.0868 H       
  32 H32           -5.6024     1.7027     2.2105 H       
  33 H33           -5.5989     5.9126     1.5352 H       
  34 H34           -2.1884     3.5861     0.4526 H       
  35 H35            2.1512    -0.0810     3.4079 H       
  36 H36            4.0655    -1.6194     3.2607 H       
  37 H37            3.0140    -2.7581    -0.5899 H       
  38 H38            3.2489     4.4372     1.6573 H       
  39 H39            2.2476     5.6194     2.5336 H       
  40 H40            2.9497     4.2319     3.3998 H       
  41 H41           -0.0064    -1.9633    -0.8157 H       
  42 H42            0.3881    -0.2367    -0.9938 H       
  43 H43            1.3777    -1.4654    -1.8180 H       
@<TRIPOS>BOND
   1    1    2 1
   2    1    6 am
   3    1    5 1
   4    2    3 2
   5    2   15 1
   6    3    4 1
   7    3   29 1
   8    4    5 2
   9    4    8 1
  10    6    7 am
  11    6   22 2
  12    7   21 1
  13    7   30 1
  14    8    9 1
  15    8   31 1
  16    9   10 ar
  17    9   14 ar
  18   10   11 ar
  19   10   32 1
  20   11   12 ar
  21   11   25 1
  22   12   13 ar
  23   12   33 1
  24   13   14 ar
  25   13   24 1
  26   14   34 1
  27   15   16 ar
  28   15   20 ar
  29   16   17 ar
  30   16   35 1
  31   17   18 ar
  32   17   36 1
  33   18   19 ar
  34   19   20 ar
  35   19   37 1
  36   20   23 1
  37   21   38 1
  38   21   39 1
  39   21   40 1
  40   23   41 1
  41   23   42 1
  42   23   43 1
  43   25   26 1
  44   25   27 1
  45   25   28 1

#	End of record

