#	Name: ASD09890113
#	Creating user name:	WinNT
#	Creation time:	15. 06. 2019 21:24

#	Modifying user name:	WinNT
#	Modification time:	15. 06. 2019 21:24

#	Program:	/corina/corina34_cracker 3.40 0067  02.08.2006

@<TRIPOS>MOLECULE
ASD09890113
  35   37    0    0    0
SMALL
NO_CHARGES


@<TRIPOS>ATOM
   1 C1            -0.0664     1.6141    -0.8686 C.2     
   2 C2            -0.0298     0.1183    -1.0482 C.3     
   3 O3             0.8742     2.2911    -1.2265 O.2     
   4 N4            -1.1467     2.2002    -0.3154 N.am    
   5 C5            -1.1389     3.5743    -0.0515 C.ar    
   6 C6            -2.3137     4.3065    -0.1472 C.ar    
   7 C7            -2.3019     5.6689     0.1157 C.ar    
   8 C8            -1.1143     6.2956     0.4739 C.ar    
   9 C9             0.0534     5.5637     0.5678 C.ar    
  10 C10            0.0437     4.2058     0.3121 C.ar    
  11 N11           -3.4832     6.4104     0.0200 N.pl3   
  12 S12           -6.3513     4.2783     1.0644 S.o2    
  13 N13           -4.7344     4.6248     0.8160 N.am    
  14 C14           -4.6918     5.8256     0.3349 C.2     
  15 C15           -5.9507     6.5577     0.1293 C.ar    
  16 C16           -7.0673     5.7998     0.5073 C.ar    
  17 C17           -8.3401     6.2810     0.4019 C.ar    
  18 C18           -8.5517     7.5600    -0.0938 C.ar    
  19 C19           -7.4685     8.3312    -0.4749 C.ar    
  20 C20           -6.1832     7.8484    -0.3689 C.ar    
  21 O21           -6.7206     3.2656     0.1384 O.2     
  22 O22           -6.5616     4.1930     2.4671 O.2     
  23 Cl23           1.5308    -0.3568    -1.8160 Cl      
  24 H24           -0.1190    -0.3666    -0.0761 H       
  25 H25           -0.8577    -0.1914    -1.6860 H       
  26 H26           -1.9295     1.6694    -0.1001 H       
  27 H27           -3.2352     3.8172    -0.4261 H       
  28 H28           -1.1043     7.3559     0.6787 H       
  29 H29            0.9752     6.0531     0.8456 H       
  30 H30            0.9576     3.6355     0.3907 H       
  31 H31           -3.4528     7.3362    -0.2679 H       
  32 H32           -9.1782     5.6697     0.7022 H       
  33 H33           -9.5549     7.9502    -0.1816 H       
  34 H34           -7.6331     9.3264    -0.8609 H       
  35 H35           -5.3503     8.4660    -0.6713 H       
@<TRIPOS>BOND
   1    1    2 1
   2    1    3 2
   3    1    4 am
   4    2   23 1
   5    2   24 1
   6    2   25 1
   7    4    5 1
   8    4   26 1
   9    5    6 ar
  10    5   10 ar
  11    6    7 ar
  12    6   27 1
  13    7    8 ar
  14    7   11 1
  15    8    9 ar
  16    8   28 1
  17    9   10 ar
  18    9   29 1
  19   10   30 1
  20   11   14 1
  21   11   31 1
  22   12   13 am
  23   12   16 1
  24   12   21 2
  25   12   22 2
  26   13   14 2
  27   14   15 1
  28   15   16 ar
  29   15   20 ar
  30   16   17 ar
  31   17   18 ar
  32   17   32 1
  33   18   19 ar
  34   18   33 1
  35   19   20 ar
  36   19   34 1
  37   20   35 1

#	End of record

