#	Name: ASD03330577
#	Creating user name:	WinNT
#	Creation time:	15. 06. 2019 20:37

#	Modifying user name:	WinNT
#	Modification time:	15. 06. 2019 20:37

#	Program:	/corina/corina34_cracker 3.40 0067  02.08.2006

@<TRIPOS>MOLECULE
ASD03330577
  63   65    0    0    0
SMALL
NO_CHARGES


@<TRIPOS>ATOM
   1 C1            -0.4784     1.7279    -0.5371 C.2     
   2 N2            -0.5622     0.3961    -0.7960 N.pl3   
   3 C3             0.8453     2.0470    -0.5051 C.2     
   4 N4             1.5469     0.9210    -0.7596 N.2     
   5 C5             0.7103    -0.0737    -0.9411 C.2     
   6 C6             1.0845    -1.4707    -1.2518 C.ar    
   7 C7             1.4109     3.3818    -0.2407 C.2     
   8 O8             0.6721     4.3234    -0.0243 O.2     
   9 C9             3.3093     4.8862     0.0242 C.3     
  10 N10            2.7470     3.5592    -0.2386 N.am    
  11 C11            3.4259     5.1006     1.5346 C.3     
  12 C12            4.2881     3.9922     2.1421 C.3     
  13 C13            4.0745     6.4591     1.8083 C.3     
  14 C14            2.0318     5.0651     2.1639 C.3     
  15 C15            4.6753     4.9864    -0.6043 C.2     
  16 N16            5.2291     6.1954    -0.8237 N.am    
  17 O17            5.2763     3.9792    -0.9127 O.2     
  18 C18            6.5108     6.2975    -1.5258 C.3     
  19 C19           -1.8047    -0.3760    -0.8838 C.3     
  20 C20           -2.8045     0.3797    -1.7648 C.3     
  21 C21           -3.6062     1.3581    -0.9125 C.3     
  22 N22           -2.7902     1.9005     0.1755 N.3     
  23 C23           -1.6447     2.6621    -0.3442 C.3     
  24 C24           -3.6016     2.7234     1.0824 C.3     
  25 C25            2.3580    -3.0474    -2.5433 C.ar    
  26 C26            1.7852    -4.0867    -1.8332 C.ar    
  27 C27            0.8598    -3.8256    -0.8379 C.ar    
  28 C28            0.5067    -2.5249    -0.5436 C.ar    
  29 C29            2.0132    -1.7404    -2.2587 C.ar    
  30 C30            2.1658    -5.5103    -2.1488 C.3     
  31 Cl31           2.7325    -0.4366    -3.1511 Cl      
  32 H32            2.6566     5.6483    -0.4016 H       
  33 H33            3.3362     2.8082    -0.4112 H       
  34 H34            5.2813     4.0175     1.6938 H       
  35 H35            4.3711     4.1450     3.2181 H       
  36 H36            3.8260     3.0244     1.9471 H       
  37 H37            3.4627     7.2484     1.3716 H       
  38 H38            4.1534     6.6138     2.8844 H       
  39 H39            5.0695     6.4827     1.3640 H       
  40 H40            1.5697     4.0973     1.9690 H       
  41 H41            2.1148     5.2178     3.2400 H       
  42 H42            1.4175     5.8547     1.7312 H       
  43 H43            4.7790     6.9980    -0.5167 H       
  44 H44            7.2746     5.7552    -0.9685 H       
  45 H45            6.4143     5.8673    -2.5227 H       
  46 H46            6.7972     7.3459    -1.6088 H       
  47 H47           -1.5971    -1.3517    -1.3230 H       
  48 H48           -2.2240    -0.5062     0.1138 H       
  49 H49           -2.2649     0.9290    -2.5363 H       
  50 H50           -3.4832    -0.3318    -2.2352 H       
  51 H51           -3.9547     2.1776    -1.5410 H       
  52 H52           -4.4679     0.8414    -0.4898 H       
  53 H53           -1.3730     3.4423     0.3668 H       
  54 H54           -1.9111     3.1146    -1.2994 H       
  55 H55           -4.3967     2.1142     1.5122 H       
  56 H56           -2.9709     3.1137     1.8811 H       
  57 H57           -4.0392     3.5528     0.5269 H       
  58 H58            3.0798    -3.2578    -3.3185 H       
  59 H59            0.4163    -4.6419    -0.2872 H       
  60 H60           -0.2155    -2.3231     0.2337 H       
  61 H61            3.0188    -5.8026    -1.5364 H       
  62 H62            1.3229    -6.1676    -1.9353 H       
  63 H63            2.4309    -5.5903    -3.2030 H       
@<TRIPOS>BOND
   1    1    2 1
   2    1    3 2
   3    1   23 1
   4    2   19 1
   5    2    5 1
   6    3    4 1
   7    3    7 1
   8    4    5 2
   9    5    6 1
  10    6   29 ar
  11    6   28 ar
  12    7    8 2
  13    7   10 am
  14    9   10 1
  15    9   11 1
  16    9   15 1
  17    9   32 1
  18   10   33 1
  19   11   12 1
  20   11   13 1
  21   11   14 1
  22   12   34 1
  23   12   35 1
  24   12   36 1
  25   13   37 1
  26   13   38 1
  27   13   39 1
  28   14   40 1
  29   14   41 1
  30   14   42 1
  31   15   16 am
  32   15   17 2
  33   16   18 1
  34   16   43 1
  35   18   44 1
  36   18   45 1
  37   18   46 1
  38   19   20 1
  39   19   47 1
  40   19   48 1
  41   20   21 1
  42   20   49 1
  43   20   50 1
  44   21   22 1
  45   21   51 1
  46   21   52 1
  47   22   23 1
  48   22   24 1
  49   23   53 1
  50   23   54 1
  51   24   55 1
  52   24   56 1
  53   24   57 1
  54   25   26 ar
  55   25   29 ar
  56   25   58 1
  57   26   27 ar
  58   26   30 1
  59   27   28 ar
  60   27   59 1
  61   28   60 1
  62   29   31 1
  63   30   61 1
  64   30   62 1
  65   30   63 1

#	End of record

