#	Name: ASD03331225
#	Creating user name:	WinNT
#	Creation time:	15. 06. 2019 20:38

#	Modifying user name:	WinNT
#	Modification time:	15. 06. 2019 20:38

#	Program:	/corina/corina34_cracker 3.40 0067  02.08.2006

@<TRIPOS>MOLECULE
ASD03331225
  48   51    0    0    0
SMALL
NO_CHARGES


@<TRIPOS>ATOM
   1 N1            -0.0459     1.4956     0.5699 N.am    
   2 C2             0.0019     0.1507     1.1633 C.3     
   3 C3             0.5966    -0.8151     0.1329 C.3     
   4 N4             1.8894    -0.2950    -0.3321 N.3     
   5 C5             1.7287     0.9910    -1.0236 C.3     
   6 C6             1.1804     2.0309    -0.0406 C.3     
   7 C7            -1.1848     2.2162     0.5803 C.2     
   8 O8            -2.2139     1.7207     0.9975 O.2     
   9 N9            -1.1831     3.4859     0.1284 N.am    
  10 C10           -2.3851     4.1963     0.0330 C.ar    
  11 C11           -2.4013     5.5676     0.2480 C.ar    
  12 C12           -3.5904     6.2665     0.1530 C.ar    
  13 C13           -4.7630     5.5998    -0.1560 C.ar    
  14 C14           -4.7490     4.2337    -0.3701 C.ar    
  15 C15           -3.5631     3.5315    -0.2827 C.ar    
  16 C16            2.5723    -1.2724    -1.1901 C.3     
  17 C17            3.7647    -0.6217    -1.8424 C.ar    
  18 C18            5.0073    -0.6544    -1.2139 C.ar    
  19 N19            6.0670    -0.0997    -1.7511 N.ar    
  20 C20            6.0016     0.5247    -2.9309 C.ar    
  21 C21            4.7677     0.5948    -3.6243 C.ar    
  22 C22            3.6293    -0.0039    -3.0533 C.ar    
  23 C23            4.7043     1.2528    -4.8634 C.ar    
  24 C24            7.1411     1.1183    -3.5020 C.ar    
  25 C25            7.0437     1.7475    -4.7046 C.ar    
  26 C26            5.8290     1.8159    -5.3843 C.ar    
  27 Cl27          -3.6127     7.9813     0.4222 Cl      
  28 H28            0.6285     0.1660     2.0551 H       
  29 H29           -1.0062    -0.1696     1.4262 H       
  30 H30            0.7419    -1.7929     0.5922 H       
  31 H31           -0.0838    -0.9080    -0.7136 H       
  32 H32            2.6951     1.3232    -1.4030 H       
  33 H33            1.0326     0.8730    -1.8540 H       
  34 H34            0.9515     2.9536    -0.5736 H       
  35 H35            1.9203     2.2269     0.7354 H       
  36 H36           -0.3488     3.9073    -0.1308 H       
  37 H37           -1.4862     6.0879     0.4896 H       
  38 H38           -5.6909     6.1474    -0.2298 H       
  39 H39           -5.6658     3.7160    -0.6105 H       
  40 H40           -3.5524     2.4654    -0.4551 H       
  41 H41            2.9043    -2.1168    -0.5860 H       
  42 H42            1.8844    -1.6241    -1.9590 H       
  43 H43            5.1004    -1.1496    -0.2587 H       
  44 H44            2.6734     0.0306    -3.5550 H       
  45 H45            3.7689     1.3114    -5.4000 H       
  46 H46            8.0900     1.0753    -2.9881 H       
  47 H47            7.9218     2.2022    -5.1389 H       
  48 H48            5.7795     2.3209    -6.3377 H       
@<TRIPOS>BOND
   1    1    2 1
   2    1    6 1
   3    1    7 am
   4    2    3 1
   5    2   28 1
   6    2   29 1
   7    3    4 1
   8    3   30 1
   9    3   31 1
  10    4    5 1
  11    4   16 1
  12    5    6 1
  13    5   32 1
  14    5   33 1
  15    6   34 1
  16    6   35 1
  17    7    8 2
  18    7    9 am
  19    9   10 1
  20    9   36 1
  21   10   11 ar
  22   10   15 ar
  23   11   12 ar
  24   11   37 1
  25   12   13 ar
  26   12   27 1
  27   13   14 ar
  28   13   38 1
  29   14   15 ar
  30   14   39 1
  31   15   40 1
  32   16   17 1
  33   16   41 1
  34   16   42 1
  35   17   18 ar
  36   17   22 ar
  37   18   19 ar
  38   18   43 1
  39   19   20 ar
  40   20   21 ar
  41   20   24 ar
  42   21   22 ar
  43   21   23 ar
  44   22   44 1
  45   23   26 ar
  46   23   45 1
  47   24   25 ar
  48   24   46 1
  49   25   26 ar
  50   25   47 1
  51   26   48 1

#	End of record

