#	Name: ASD07301052
#	Creating user name:	WinNT
#	Creation time:	15. 06. 2019 21:10

#	Modifying user name:	WinNT
#	Modification time:	15. 06. 2019 21:10

#	Program:	/corina/corina34_cracker 3.40 0067  02.08.2006

@<TRIPOS>MOLECULE
ASD07301052
  28   28    0    0    0
SMALL
NO_CHARGES


@<TRIPOS>ATOM
   1 C1             0.0562    -0.0487     0.3732 C.1     
   2 C2             0.0289     1.3777     0.4971 C.ar    
   3 C3             1.2174     2.1186     0.3943 C.ar    
   4 C4             1.1778     3.5012     0.5158 C.ar    
   5 C5            -0.0254     4.1422     0.7367 C.ar    
   6 C6            -1.1992     3.4143     0.8385 C.ar    
   7 C7            -1.1801     2.0406     0.7152 C.ar    
   8 N8             0.0778    -1.1802     0.2748 N.1     
   9 N9             3.5175     2.1547     0.0784 N.2     
  10 N10            2.4277     1.4709     0.1724 N.pl3   
  11 C11            4.6808     1.5338    -0.0297 C.2     
  12 C12            5.9046     2.3058    -0.2534 C.2     
  13 C13            5.8392     3.8076    -0.3604 C.3     
  14 O14            6.9716     1.7363    -0.3526 O.2     
  15 C15            4.7444     0.0748     0.0743 C.2     
  16 O16            4.7209    -0.6066    -0.9296 O.2     
  17 C17            4.8390    -0.5807     1.4279 C.3     
  18 H18            2.0889     4.0759     0.4379 H       
  19 H19           -0.0511     5.2178     0.8308 H       
  20 H20           -2.1348     3.9252     1.0117 H       
  21 H21           -2.0990     1.4782     0.7914 H       
  22 H22            2.4526     0.5048     0.0882 H       
  23 H23            5.4325     4.2203     0.5628 H       
  24 H24            6.8410     4.2041    -0.5254 H       
  25 H25            5.1966     4.0846    -1.1962 H       
  26 H26            4.7582     0.1786     2.2058 H       
  27 H27            4.0300    -1.3026     1.5394 H       
  28 H28            5.7974    -1.0922     1.5177 H       
@<TRIPOS>BOND
   1    1    2 1
   2    1    8 3
   3    2    3 ar
   4    2    7 ar
   5    3    4 ar
   6    3   10 1
   7    4    5 ar
   8    4   18 1
   9    5    6 ar
  10    5   19 1
  11    6    7 ar
  12    6   20 1
  13    7   21 1
  14    9   10 1
  15    9   11 2
  16   10   22 1
  17   11   12 1
  18   11   15 1
  19   12   13 1
  20   12   14 2
  21   13   23 1
  22   13   24 1
  23   13   25 1
  24   15   16 2
  25   15   17 1
  26   17   26 1
  27   17   27 1
  28   17   28 1

#	End of record

