#	Name: ASD09116457
#	Creating user name:	WinNT
#	Creation time:	15. 06. 2019 21:21

#	Modifying user name:	WinNT
#	Modification time:	15. 06. 2019 21:21

#	Program:	/corina/corina34_cracker 3.40 0067  02.08.2006

@<TRIPOS>MOLECULE
ASD09116457
  74   79    0    0    0
SMALL
NO_CHARGES


@<TRIPOS>ATOM
   1 N1             0.3891     1.6891    -1.4098 N.2     
   2 N2             0.4136     0.4238    -2.0182 N.pl3   
   3 C3             1.6365     2.0468    -1.2200 C.2     
   4 N4             2.4416     1.0792    -1.6741 N.2     
   5 C5             1.7186     0.0925    -2.1590 C.2     
   6 N6             2.2055    -1.0756    -2.7141 N.pl3   
   7 C7            -0.6895    -0.3414    -2.4013 C.ar    
   8 N8             2.0564     3.2435    -0.6388 N.pl3   
   9 C9             3.4145     3.4621    -0.3929 C.ar    
  10 C10            3.9332     4.7502    -0.4478 C.ar    
  11 C11            4.2473     2.3927    -0.0876 C.ar    
  12 C12            5.5897     2.6104     0.1549 C.ar    
  13 C13            6.0990     3.8966     0.0917 C.ar    
  14 C14            5.2786     4.9548    -0.2036 C.ar    
  15 N15           -0.5696    -1.2383    -3.3687 N.ar    
  16 N16           -1.5558    -1.9610    -3.7658 N.ar    
  17 C17           -2.7592    -1.8490    -3.2269 C.ar    
  18 C18           -2.9751    -0.9430    -2.1845 C.ar    
  19 C19           -1.9184    -0.1652    -1.7604 C.ar    
  20 C20           -3.9099    -2.6415    -3.7189 C.ar    
  21 C21           -5.1068    -1.9847    -4.0088 C.ar    
  22 C22           -5.1802    -0.4889    -3.8685 C.3     
  23 C23           -5.3007    -0.0722    -2.4051 C.3     
  24 C24           -4.3263    -0.8625    -1.5358 C.3     
  25 C25           -3.8128    -4.0181    -3.8892 C.ar    
  26 C26           -4.9113    -4.7319    -4.3278 C.ar    
  27 C27           -6.1017    -4.0801    -4.5941 C.ar    
  28 C28           -6.1999    -2.7087    -4.4340 C.ar    
  29 C29            7.5723     4.1277     0.3574 C.3     
  30 C30            7.7158     4.8441     1.7024 C.3     
  31 C31            7.5815     6.3447     1.5342 C.3     
  32 C32            6.1927     6.8098     1.1432 C.3     
  33 C33            5.8430     6.3588    -0.2714 C.3     
  34 N34            7.9496     6.9903     2.8013 N.3     
  35 C35            9.3589     6.7388     3.1304 C.3     
  36 C36            9.6358     7.1897     4.5660 C.3     
  37 C37            8.3576     9.0504     1.5417 C.3     
  38 C38            7.6679     8.4315     2.7591 C.3     
  39 H39            3.1625    -1.2230    -2.7718 H       
  40 H40            1.5903    -1.7481    -3.0460 H       
  41 H41            1.4056     3.9239    -0.4053 H       
  42 H42            3.2897     5.5859    -0.6801 H       
  43 H43            3.8452     1.3915    -0.0396 H       
  44 H44            6.2392     1.7811     0.3931 H       
  45 H45           -2.0384     0.5589    -0.9682 H       
  46 H46           -4.2788    -0.0463    -4.2922 H       
  47 H47           -6.0479    -0.1215    -4.4164 H       
  48 H48           -5.0800     0.9915    -2.3156 H       
  49 H49           -6.3186    -0.2568    -2.0621 H       
  50 H50           -4.7138    -1.8705    -1.3885 H       
  51 H51           -4.2302    -0.3712    -0.5675 H       
  52 H52           -2.8833    -4.5267    -3.6800 H       
  53 H53           -4.8402    -5.8010    -4.4634 H       
  54 H54           -6.9597    -4.6443    -4.9285 H       
  55 H55           -7.1327    -2.2060    -4.6428 H       
  56 H56            8.0924     3.1705     0.3949 H       
  57 H57            7.9946     4.7467    -0.4342 H       
  58 H58            6.9409     4.4890     2.3817 H       
  59 H59            8.6940     4.6173     2.1264 H       
  60 H60            8.2840     6.6709     0.7673 H       
  61 H61            5.4658     6.3926     1.8401 H       
  62 H62            6.1520     7.8978     1.1931 H       
  63 H63            6.7410     6.3616    -0.8893 H       
  64 H64            5.0995     7.0325    -0.6974 H       
  65 H65            9.5692     5.6733     3.0373 H       
  66 H66            9.9972     7.2964     2.4450 H       
  67 H67            9.5177     8.2710     4.6364 H       
  68 H68            8.9327     6.7027     5.2418 H       
  69 H69           10.6541     6.9166     4.8426 H       
  70 H70            9.4210     8.8122     1.5663 H       
  71 H71            7.9161     8.6477     0.6301 H       
  72 H72            8.2272    10.1324     1.5613 H       
  73 H73            6.5919     8.5894     2.6864 H       
  74 H74            8.0436     8.9019     3.6677 H       
@<TRIPOS>BOND
   1    1    2 1
   2    1    3 2
   3    2    7 1
   4    2    5 1
   5    3    4 1
   6    3    8 1
   7    4    5 2
   8    5    6 1
   9    6   39 1
  10    6   40 1
  11    7   15 ar
  12    7   19 ar
  13    8    9 1
  14    8   41 1
  15    9   10 ar
  16    9   11 ar
  17   10   14 ar
  18   10   42 1
  19   11   12 ar
  20   11   43 1
  21   12   13 ar
  22   12   44 1
  23   13   14 ar
  24   13   29 1
  25   14   33 1
  26   15   16 ar
  27   16   17 ar
  28   17   18 ar
  29   17   20 1
  30   18   19 ar
  31   18   24 1
  32   19   45 1
  33   20   21 ar
  34   20   25 ar
  35   21   22 1
  36   21   28 ar
  37   22   23 1
  38   22   46 1
  39   22   47 1
  40   23   24 1
  41   23   48 1
  42   23   49 1
  43   24   50 1
  44   24   51 1
  45   25   26 ar
  46   25   52 1
  47   26   27 ar
  48   26   53 1
  49   27   28 ar
  50   27   54 1
  51   28   55 1
  52   29   30 1
  53   29   56 1
  54   29   57 1
  55   30   31 1
  56   30   58 1
  57   30   59 1
  58   31   32 1
  59   31   34 1
  60   31   60 1
  61   32   33 1
  62   32   61 1
  63   32   62 1
  64   33   63 1
  65   33   64 1
  66   34   35 1
  67   34   38 1
  68   35   36 1
  69   35   65 1
  70   35   66 1
  71   36   67 1
  72   36   68 1
  73   36   69 1
  74   37   38 1
  75   37   70 1
  76   37   71 1
  77   37   72 1
  78   38   73 1
  79   38   74 1

#	End of record

