#	Name: ASD01209034
#	Creating user name:	WinNT
#	Creation time:	15. 06. 2019 19:10

#	Modifying user name:	WinNT
#	Modification time:	15. 06. 2019 19:10

#	Program:	/corina/corina34_cracker 3.40 0067  02.08.2006

@<TRIPOS>MOLECULE
ASD01209034
  57   61    0    0    0
SMALL
NO_CHARGES


@<TRIPOS>ATOM
   1 F1            -0.0790     3.0501    -2.8051 F       
   2 S2            -0.9291    -0.3917     0.8387 S.o2    
   3 C3            -3.6529    -0.9193    -5.5628 C.3     
   4 C4            -5.0224    -0.4922    -5.0309 C.3     
   5 C5            -4.8546     0.7050    -4.0930 C.3     
   6 C6            -6.2117     1.2211    -3.6895 C.2     
   7 O7            -6.5782     1.1269    -2.5372 O.2     
   8 N8            -4.1150     0.2897    -2.8985 N.pl3   
   9 C9            -2.9160     0.8089    -2.4852 C.ar    
  10 C10           -2.5661     0.1301    -1.3022 C.ar    
  11 C11           -3.6395    -0.8251    -1.0452 C.2     
  12 N12           -4.5224    -0.6962    -1.9939 N.2     
  13 N13           -7.0181     1.7873    -4.6090 N.am    
  14 C14           -2.0689     1.7947    -2.9855 C.ar    
  15 C15           -0.9004     2.0938    -2.3193 C.ar    
  16 C16           -0.5588     1.4202    -1.1500 C.ar    
  17 C17           -1.3746     0.4521    -0.6425 C.ar    
  18 C18           -8.2198     2.3743    -4.2154 C.ar    
  19 C19           -2.2068     0.0869     2.0341 C.3     
  20 C20           -2.0403    -0.3946     3.4768 C.3     
  21 C21           -1.8125     1.0782     3.1307 C.3     
  22 O22           -1.0472    -1.7684     0.5069 O.2     
  23 O23            0.3256     0.1702     1.1983 O.2     
  24 C24           -3.7983    -2.2103    -6.3743 C.3     
  25 C25           -2.4382    -2.5867    -6.9677 C.3     
  26 O26           -1.9573    -1.5096    -7.7743 O.3     
  27 C27           -1.7570    -0.2890    -7.0587 C.3     
  28 C28           -3.0898     0.1798    -6.4691 C.3     
  29 C29           -8.4364     2.6903    -2.8773 C.ar    
  30 N30           -9.5752     3.2464    -2.5085 N.ar    
  31 C31          -10.5092     3.5032    -3.4085 C.ar    
  32 C32          -10.2974     3.1901    -4.7384 C.ar    
  33 N33           -9.1572     2.6381    -5.1158 N.ar    
  34 H34           -2.9737    -1.0883    -4.7273 H       
  35 H35           -5.6654    -0.2126    -5.8655 H       
  36 H36           -5.4747    -1.3204    -4.4854 H       
  37 H37           -4.3037     1.4936    -4.6056 H       
  38 H38           -3.6939    -1.5129    -0.2144 H       
  39 H39           -6.7624     1.7864    -5.5447 H       
  40 H40           -2.3264     2.3220    -3.8922 H       
  41 H41            0.3605     1.6668    -0.6396 H       
  42 H42           -3.2205     0.1504     1.6386 H       
  43 H43           -2.9445    -0.6474     4.0305 H       
  44 H44           -1.1630    -0.9989     3.7077 H       
  45 H45           -0.7853     1.4429     3.1339 H       
  46 H46           -2.5668     1.7944     3.4567 H       
  47 H47           -4.1464    -3.0124    -5.7235 H       
  48 H48           -4.5166    -2.0555    -7.1794 H       
  49 H49           -1.7309    -2.7808    -6.1613 H       
  50 H50           -2.5443    -3.4812    -7.5814 H       
  51 H51           -1.0409    -0.4530    -6.2535 H       
  52 H52           -1.3725     0.4718    -7.7381 H       
  53 H53           -3.7938     0.3828    -7.2760 H       
  54 H54           -2.9311     1.0869    -5.8860 H       
  55 H55           -7.6740     2.4805    -2.1418 H       
  56 H56          -11.4401     3.9582    -3.1039 H       
  57 H57          -11.0629     3.4006    -5.4705 H       
@<TRIPOS>BOND
   1    1   15 1
   2    2   22 2
   3    2   23 2
   4    2   17 1
   5    2   19 1
   6    3    4 1
   7    3   24 1
   8    3   28 1
   9    3   34 1
  10    4    5 1
  11    4   35 1
  12    4   36 1
  13    5    8 1
  14    5    6 1
  15    5   37 1
  16    6    7 2
  17    6   13 am
  18    8    9 1
  19    8   12 1
  20    9   10 ar
  21    9   14 ar
  22   10   11 1
  23   10   17 ar
  24   11   12 2
  25   11   38 1
  26   13   18 1
  27   13   39 1
  28   14   15 ar
  29   14   40 1
  30   15   16 ar
  31   16   17 ar
  32   16   41 1
  33   18   29 ar
  34   18   33 ar
  35   19   20 1
  36   19   21 1
  37   19   42 1
  38   20   21 1
  39   20   43 1
  40   20   44 1
  41   21   45 1
  42   21   46 1
  43   24   25 1
  44   24   47 1
  45   24   48 1
  46   25   26 1
  47   25   49 1
  48   25   50 1
  49   26   27 1
  50   27   28 1
  51   27   51 1
  52   27   52 1
  53   28   53 1
  54   28   54 1
  55   29   30 ar
  56   29   55 1
  57   30   31 ar
  58   31   32 ar
  59   31   56 1
  60   32   33 ar
  61   32   57 1

#	End of record

