#	Name: ASD08150935
#	Creating user name:	WinNT
#	Creation time:	15. 06. 2019 21:16

#	Modifying user name:	WinNT
#	Modification time:	15. 06. 2019 21:16

#	Program:	/corina/corina34_cracker 3.40 0067  02.08.2006

@<TRIPOS>MOLECULE
ASD08150935
  51   55    0    0    0
SMALL
NO_CHARGES


@<TRIPOS>ATOM
   1 N1            -0.2422     1.3979     0.1601 N.2     
   2 C2            -0.6394     0.2755     0.6856 C.2     
   3 N3            -0.3124     0.2390     2.0084 N.pl3   
   4 C4             0.3254     1.4164     2.3071 C.ar    
   5 N5             0.8612     1.9415     3.4040 N.ar    
   6 C6             1.4205     3.1329     3.3734 C.ar    
   7 N7             1.4795     3.8601     2.2728 N.ar    
   8 C8             0.9705     3.4179     1.1275 C.ar    
   9 C9             0.3632     2.1509     1.1096 C.ar    
  10 N10            1.0368     4.1875    -0.0208 N.pl3   
  11 C11            1.6735     5.5064     0.0171 C.3     
  12 C12            2.1338     5.8911    -1.3904 C.3     
  13 N13            0.6265     9.7886     2.1245 N.ar    
  14 C14           -0.2295    10.6796     2.5625 C.ar    
  15 C15           -1.6054    10.4833     2.4652 C.ar    
  16 C16           -2.0923     9.3384     1.9017 C.ar    
  17 C17           -1.1695     8.3843     1.4327 C.ar    
  18 C18           -1.5976     7.1838     0.8414 C.ar    
  19 C19           -0.6791     6.2803     0.3968 C.ar    
  20 C20            0.6850     6.5272     0.5189 C.ar    
  21 C21            1.1433     7.6928     1.0931 C.ar    
  22 C22            0.2159     8.6482     1.5632 C.ar    
  23 N23            2.5138     7.9272     1.2096 N.3     
  24 C24            2.9030     9.1441     0.4856 C.3     
  25 C25            4.4261     9.2901     0.5124 C.3     
  26 C26            4.9014     9.3646     1.9661 C.3     
  27 C27            4.4416     8.1078     2.7101 C.3     
  28 C28            2.9179     7.9961     2.6197 C.3     
  29 F29            6.2978     9.4422     1.9980 F       
  30 Cl30          -3.2937     6.8517     0.6779 Cl      
  31 H31           -1.1528    -0.5110     0.1523 H       
  32 H32           -0.4972    -0.4862     2.6255 H       
  33 H33            1.8467     3.5305     4.2826 H       
  34 H34            0.6616     3.8537    -0.8507 H       
  35 H35            2.5343     5.4752     0.6851 H       
  36 H36            2.6076     6.8723    -1.3622 H       
  37 H37            2.8488     5.1527    -1.7533 H       
  38 H38            1.2731     5.9223    -2.0583 H       
  39 H39            0.1415    11.5895     3.0107 H       
  40 H40           -2.2863    11.2355     2.8353 H       
  41 H41           -3.1557     9.1696     1.8184 H       
  42 H42           -1.0148     5.3595    -0.0568 H       
  43 H43            2.5627     9.0765    -0.5477 H       
  44 H44            2.4465    10.0118     0.9620 H       
  45 H45            4.8828     8.4294     0.0238 H       
  46 H46            4.7136    10.2017    -0.0116 H       
  47 H47            4.4756    10.2470     2.4437 H       
  48 H48            4.8985     7.2285     2.2562 H       
  49 H49            4.7401     8.1746     3.7563 H       
  50 H50            2.4614     8.8691     3.0861 H       
  51 H51            2.5886     7.0946     3.1363 H       
@<TRIPOS>BOND
   1    1    2 2
   2    1    9 1
   3    2    3 1
   4    2   31 1
   5    3    4 1
   6    3   32 1
   7    4    5 ar
   8    4    9 ar
   9    5    6 ar
  10    6    7 ar
  11    6   33 1
  12    7    8 ar
  13    8    9 ar
  14    8   10 1
  15   10   11 1
  16   10   34 1
  17   11   12 1
  18   11   20 1
  19   11   35 1
  20   12   36 1
  21   12   37 1
  22   12   38 1
  23   13   14 ar
  24   13   22 ar
  25   14   15 ar
  26   14   39 1
  27   15   16 ar
  28   15   40 1
  29   16   17 ar
  30   16   41 1
  31   17   18 ar
  32   17   22 ar
  33   18   19 ar
  34   18   30 1
  35   19   20 ar
  36   19   42 1
  37   20   21 ar
  38   21   22 ar
  39   21   23 1
  40   23   24 1
  41   23   28 1
  42   24   25 1
  43   24   43 1
  44   24   44 1
  45   25   26 1
  46   25   45 1
  47   25   46 1
  48   26   27 1
  49   26   29 1
  50   26   47 1
  51   27   28 1
  52   27   48 1
  53   27   49 1
  54   28   50 1
  55   28   51 1

#	End of record

