#	Name: ASD01880062
#	Creating user name:	WinNT
#	Creation time:	15. 06. 2019 19:39

#	Modifying user name:	WinNT
#	Modification time:	15. 06. 2019 19:39

#	Program:	/corina/corina34_cracker 3.40 0067  02.08.2006

@<TRIPOS>MOLECULE
ASD01880062
  48   50    0    0    0
SMALL
NO_CHARGES


@<TRIPOS>ATOM
   1 C1            -0.0167     1.3776     0.0096 C.ar    
   2 C2             0.0021    -0.0041     0.0020 C.ar    
   3 N3             1.1443    -0.6632    -0.0120 N.ar    
   4 C4             2.3054    -0.0383    -0.0197 C.ar    
   5 C5             2.3651     1.3426    -0.0133 C.ar    
   6 C6             1.1850     2.0698     0.0019 C.ar    
   7 C7             3.6964     2.0488    -0.0217 C.3     
   8 N8             4.1154     2.2846    -1.4056 N.am    
   9 C9             3.6624     3.4151    -2.0894 C.ar    
  10 S10            5.1261     1.2108    -2.1591 S.o2    
  11 C11            4.0114     0.0118    -2.9404 C.3     
  12 C12            4.8188    -0.9201    -3.8462 C.3     
  13 O13            5.7918     1.9885    -3.1445 O.2     
  14 O14            5.8466     0.6025    -1.0960 O.2     
  15 C15            3.2751     4.5470    -1.3835 C.ar    
  16 C16            2.8281     5.6633    -2.0628 C.ar    
  17 C17            2.7659     5.6550    -3.4442 C.ar    
  18 C18            3.1507     4.5298    -4.1501 C.ar    
  19 C19            3.6036     3.4120    -3.4773 C.ar    
  20 C20            2.2772     6.8747    -4.1821 C.3     
  21 C21            3.4446     7.7763    -4.4909 C.ar    
  22 C22            4.1413     7.6238    -5.6751 C.ar    
  23 C23            5.2122     8.4508    -5.9584 C.ar    
  24 C24            5.5860     9.4305    -5.0577 C.ar    
  25 C25            4.8887     9.5836    -3.8740 C.ar    
  26 C26            3.8152     8.7595    -3.5927 C.ar    
  27 H27           -0.9553     1.9117     0.0170 H       
  28 H28           -0.9295    -0.5505     0.0080 H       
  29 H29            3.2203    -0.6121    -0.0308 H       
  30 H30            1.2010     3.1496     0.0072 H       
  31 H31            3.6050     3.0027     0.4978 H       
  32 H32            4.4390     1.4303     0.4824 H       
  33 H33            3.5106    -0.5744    -2.1699 H       
  34 H34            3.2672     0.5416    -3.5351 H       
  35 H35            5.3196    -0.3339    -4.6167 H       
  36 H36            5.5630    -1.4499    -3.2516 H       
  37 H37            4.1490    -1.6405    -4.3157 H       
  38 H38            3.3232     4.5540    -0.3046 H       
  39 H39            2.5266     6.5435    -1.5145 H       
  40 H40            3.1008     4.5267    -5.2290 H       
  41 H41            3.9043     2.5338    -4.0292 H       
  42 H42            1.7981     6.5690    -5.1122 H       
  43 H43            1.5583     7.4106    -3.5622 H       
  44 H44            3.8492     6.8583    -6.3788 H       
  45 H45            5.7569     8.3311    -6.8832 H       
  46 H46            6.4231    10.0761    -5.2787 H       
  47 H47            5.1811    10.3489    -3.1702 H       
  48 H48            3.2704     8.8791    -2.6678 H       
@<TRIPOS>BOND
   1    1    2 ar
   2    1    6 ar
   3    1   27 1
   4    2    3 ar
   5    2   28 1
   6    3    4 ar
   7    4    5 ar
   8    4   29 1
   9    5    6 ar
  10    5    7 1
  11    6   30 1
  12    7    8 1
  13    7   31 1
  14    7   32 1
  15    8    9 1
  16    8   10 am
  17    9   15 ar
  18    9   19 ar
  19   10   11 1
  20   10   13 2
  21   10   14 2
  22   11   12 1
  23   11   33 1
  24   11   34 1
  25   12   35 1
  26   12   36 1
  27   12   37 1
  28   15   16 ar
  29   15   38 1
  30   16   17 ar
  31   16   39 1
  32   17   18 ar
  33   17   20 1
  34   18   19 ar
  35   18   40 1
  36   19   41 1
  37   20   21 1
  38   20   42 1
  39   20   43 1
  40   21   22 ar
  41   21   26 ar
  42   22   23 ar
  43   22   44 1
  44   23   24 ar
  45   23   45 1
  46   24   25 ar
  47   24   46 1
  48   25   26 ar
  49   25   47 1
  50   26   48 1

#	End of record

