#	Name: ASD01911860
#	Creating user name:	WinNT
#	Creation time:	15. 06. 2019 19:58

#	Modifying user name:	WinNT
#	Modification time:	15. 06. 2019 19:58

#	Program:	/corina/corina34_cracker 3.40 0067  02.08.2006

@<TRIPOS>MOLECULE
ASD01911860
  35   37    0    0    0
SMALL
NO_CHARGES


@<TRIPOS>ATOM
   1 C1            -1.0486    -0.4842    -2.0517 C.ar    
   2 C2            -1.0616     0.0599    -0.7714 C.ar    
   3 C3            -1.0259     1.4446    -0.6432 C.ar    
   4 N4            -0.9812     2.1895    -1.7355 N.ar    
   5 C5            -0.9703     1.6362    -2.9315 C.ar    
   6 N6            -1.0031     0.3288    -3.0942 N.ar    
   7 O7            -1.1084    -0.7408     0.3258 O.3     
   8 C8            -1.1451    -2.0854     0.1332 C.ar    
   9 C9             0.0139    -2.7703    -0.2049 C.ar    
  10 C10           -0.0222    -4.1386    -0.4016 C.ar    
  11 C11           -1.2125    -4.8283    -0.2617 C.ar    
  12 C12           -2.3748    -4.1473     0.0765 C.ar    
  13 C13           -2.3389    -2.7745     0.2798 C.ar    
  14 N14           -3.5788    -4.8445     0.2176 N.am    
  15 C15           -3.5737    -6.1124     0.6748 C.2     
  16 C16           -4.8328    -6.8851     0.7249 C.ar    
  17 O17           -2.5336    -6.6204     1.0460 O.2     
  18 C18           -4.8308    -8.1982     1.1979 C.ar    
  19 C19           -6.0093    -8.9145     1.2422 C.ar    
  20 C20           -7.1916    -8.3344     0.8193 C.ar    
  21 C21           -7.2011    -7.0320     0.3483 C.ar    
  22 C22           -6.0298    -6.3026     0.3047 C.ar    
  23 Cl23          -8.6898    -6.3131    -0.1814 Cl      
  24 Cl24           1.4291    -4.9918    -0.8255 Cl      
  25 H25           -1.0708    -1.5548    -2.1923 H       
  26 H26           -1.0349     1.9049     0.3338 H       
  27 H27           -0.9338     2.2725    -3.8034 H       
  28 H28            0.9448    -2.2339    -0.3148 H       
  29 H29           -1.2385    -5.8969    -0.4158 H       
  30 H30           -3.2414    -2.2429     0.5429 H       
  31 H31           -4.4176    -4.4157    -0.0136 H       
  32 H32           -3.9086    -8.6529     1.5282 H       
  33 H33           -6.0085    -9.9308     1.6078 H       
  34 H34           -8.1111    -8.8996     0.8561 H       
  35 H35           -6.0380    -5.2869    -0.0624 H       
@<TRIPOS>BOND
   1    1    2 ar
   2    1    6 ar
   3    1   25 1
   4    2    3 ar
   5    2    7 1
   6    3    4 ar
   7    3   26 1
   8    4    5 ar
   9    5    6 ar
  10    5   27 1
  11    7    8 1
  12    8    9 ar
  13    8   13 ar
  14    9   10 ar
  15    9   28 1
  16   10   11 ar
  17   10   24 1
  18   11   12 ar
  19   11   29 1
  20   12   13 ar
  21   12   14 1
  22   13   30 1
  23   14   15 am
  24   14   31 1
  25   15   16 1
  26   15   17 2
  27   16   18 ar
  28   16   22 ar
  29   18   19 ar
  30   18   32 1
  31   19   20 ar
  32   19   33 1
  33   20   21 ar
  34   20   34 1
  35   21   22 ar
  36   21   23 1
  37   22   35 1

#	End of record

