#	Name: ASD01151103
#	Creating user name:	WinNT
#	Creation time:	15. 06. 2019 19:05

#	Modifying user name:	WinNT
#	Modification time:	15. 06. 2019 19:05

#	Program:	/corina/corina34_cracker 3.40 0067  02.08.2006

@<TRIPOS>MOLECULE
ASD01151103
  61   64    0    0    0
SMALL
NO_CHARGES


@<TRIPOS>ATOM
   1 C1             0.3281    -0.5354    -0.4343 C.3     
   2 C2            -0.6076    -1.6104     0.1224 C.3     
   3 C3            -0.0248    -2.1710     1.4212 C.3     
   4 C4            -1.9805    -0.9960     0.4029 C.3     
   5 C5            -2.5546    -0.4438    -0.8763 C.2     
   6 C6            -2.4004    -1.0035    -2.1371 C.2     
   7 C7            -3.0777    -0.1968    -3.0410 C.2     
   8 N8            -3.2518    -0.2703    -4.3684 N.2     
   9 C9            -3.9520     0.6387    -5.0110 C.2     
  10 C10           -4.1310     0.5295    -6.5033 C.3     
  11 C11           -4.5304     1.7031    -4.3193 C.2     
  12 C12           -4.3625     1.7932    -2.9640 C.2     
  13 N13           -4.9239     2.8347    -2.2568 N.pl3   
  14 C14           -4.0754     3.8588    -1.6323 C.3     
  15 C15           -4.5417     5.2398    -2.1034 C.3     
  16 C16           -6.0355     5.3969    -1.8101 C.3     
  17 C17           -6.8226     4.3331    -2.5788 C.3     
  18 C18           -6.3824     2.9452    -2.1182 C.3     
  19 C19           -7.0618     1.8809    -2.9824 C.3     
  20 C20           -8.5687     1.8948    -2.7178 C.3     
  21 O21           -9.2141     0.9652    -3.5904 O.3     
  22 N22           -3.6282     0.8320    -2.3214 N.pl3   
  23 N23           -3.2864     0.6418    -0.9780 N.2     
  24 C24           -2.9021    -2.0548     0.9512 C.ar    
  25 C25           -3.2395    -3.1470     0.1740 C.ar    
  26 C26           -4.0847    -4.1184     0.6763 C.ar    
  27 C27           -4.5932    -3.9974     1.9573 C.ar    
  28 Cl28          -5.6544    -5.2174     2.5891 Cl      
  29 C29           -4.2552    -2.9040     2.7347 C.ar    
  30 C30           -3.4054    -1.9362     2.2333 C.ar    
  31 H31            1.3061    -0.9731    -0.6341 H       
  32 H32           -0.0872    -0.1360    -1.3595 H       
  33 H33            0.4318     0.2686     0.2943 H       
  34 H34           -0.7114    -2.4145    -0.6061 H       
  35 H35           -0.6914    -2.9368     1.8178 H       
  36 H36            0.9533    -2.6087     1.2214 H       
  37 H37            0.0790    -1.3669     2.1497 H       
  38 H38           -1.8767    -0.1919     1.1315 H       
  39 H39           -1.8522    -1.9038    -2.3723 H       
  40 H40           -3.5415    -0.3065    -6.8798 H       
  41 H41           -5.1838     0.3638    -6.7318 H       
  42 H42           -3.7971     1.4523    -6.9778 H       
  43 H43           -5.1048     2.4491    -4.8483 H       
  44 H44           -4.1626     3.7939    -0.5477 H       
  45 H45           -3.0377     3.7032    -1.9274 H       
  46 H46           -3.9838     6.0123    -1.5741 H       
  47 H47           -4.3693     5.3359    -3.1754 H       
  48 H48           -6.2103     5.2762    -0.7410 H       
  49 H49           -6.3645     6.3882    -2.1220 H       
  50 H50           -7.8882     4.4603    -2.3879 H       
  51 H51           -6.6288     4.4377    -3.6463 H       
  52 H52           -6.6620     2.8042    -1.0742 H       
  53 H53           -6.8757     2.0944    -4.0349 H       
  54 H54           -6.6583     0.8993    -2.7339 H       
  55 H55           -8.7583     1.6129    -1.6821 H       
  56 H56           -8.9602     2.8957    -2.8994 H       
  57 H57          -10.1792     0.9757    -3.5317 H       
  58 H58           -2.8428    -3.2412    -0.8261 H       
  59 H59           -4.3485    -4.9715     0.0688 H       
  60 H60           -4.6521    -2.8089     3.7346 H       
  61 H61           -3.1377    -1.0850     2.8418 H       
@<TRIPOS>BOND
   1    1    2 1
   2    1   31 1
   3    1   32 1
   4    1   33 1
   5    2    3 1
   6    2    4 1
   7    2   34 1
   8    3   35 1
   9    3   36 1
  10    3   37 1
  11    4    5 1
  12    4   24 1
  13    4   38 1
  14    5   23 2
  15    5    6 1
  16    6    7 2
  17    6   39 1
  18    7   22 1
  19    7    8 1
  20    8    9 2
  21    9   10 1
  22    9   11 1
  23   10   40 1
  24   10   41 1
  25   10   42 1
  26   11   12 2
  27   11   43 1
  28   12   13 1
  29   12   22 1
  30   13   18 1
  31   13   14 1
  32   14   15 1
  33   14   44 1
  34   14   45 1
  35   15   16 1
  36   15   46 1
  37   15   47 1
  38   16   17 1
  39   16   48 1
  40   16   49 1
  41   17   18 1
  42   17   50 1
  43   17   51 1
  44   18   19 1
  45   18   52 1
  46   19   20 1
  47   19   53 1
  48   19   54 1
  49   20   21 1
  50   20   55 1
  51   20   56 1
  52   21   57 1
  53   22   23 1
  54   24   30 ar
  55   24   25 ar
  56   25   26 ar
  57   25   58 1
  58   26   27 ar
  59   26   59 1
  60   27   28 1
  61   27   29 ar
  62   29   30 ar
  63   29   60 1
  64   30   61 1

#	End of record

