#	Name: ASD04750011
#	Creating user name:	WinNT
#	Creation time:	15. 06. 2019 20:52

#	Modifying user name:	WinNT
#	Modification time:	15. 06. 2019 20:52

#	Program:	/corina/corina34_cracker 3.40 0067  02.08.2006

@<TRIPOS>MOLECULE
ASD04750011
  47   50    0    0    0
SMALL
NO_CHARGES


@<TRIPOS>ATOM
   1 C1             0.0600     2.6528     2.9795 C.ar    
   2 C2             0.6148     1.4342     2.6263 C.ar    
   3 C3            -0.1330     0.5077     1.9326 C.ar    
   4 C4            -1.4572     0.7969     1.5830 C.ar    
   5 C5            -2.0079     2.0263     1.9427 C.ar    
   6 C6            -1.2510     2.9441     2.6419 C.ar    
   7 C7            -2.4597    -0.0076     0.8529 C.2     
   8 C8            -3.6979     0.7658     0.7554 C.2     
   9 C9            -3.4333     2.0809     1.4501 C.3     
  10 C10           -4.8486     0.3805     0.1623 C.2     
  11 C11           -5.9578     1.3361     0.0185 C.ar    
  12 C12           -5.6957     2.6785    -0.2754 C.ar    
  13 C13           -7.2804     0.9060     0.1692 C.ar    
  14 C14           -8.3144     1.8078     0.0330 C.ar    
  15 C15           -8.0465     3.1355    -0.2527 C.ar    
  16 C16           -6.7409     3.5678    -0.4086 C.ar    
  17 O17           -2.2844    -1.1267     0.4071 O.2     
  18 N18           -4.3522     2.2451     2.5843 N.3     
  19 C19           -4.1492     1.1879     3.5838 C.3     
  20 C20           -4.0275     1.8163     4.9734 C.3     
  21 C21           -3.8160     0.7151     6.0144 C.3     
  22 C22           -5.0076    -0.2444     5.9911 C.3     
  23 C23           -5.1292    -0.8728     4.6014 C.3     
  24 C24           -5.3407     0.2284     3.5605 C.3     
  25 Br25           1.0925     3.9188     3.9320 Br      
  26 H26            1.6365     1.2095     2.8949 H       
  27 H27            0.3029    -0.4416     1.6583 H       
  28 H28           -1.6798     3.8956     2.9197 H       
  29 H29           -3.5546     2.9055     0.7477 H       
  30 H30           -4.9544    -0.6291    -0.2064 H       
  31 H31           -4.6776     3.0174    -0.3973 H       
  32 H32           -7.4911    -0.1297     0.3914 H       
  33 H33           -9.3360     1.4774     0.1490 H       
  34 H34           -8.8609     3.8369    -0.3589 H       
  35 H35           -6.5401     4.6054    -0.6310 H       
  36 H36           -4.2539     3.1593     2.9999 H       
  37 H37           -3.2363     0.6392     3.3519 H       
  38 H38           -3.1786     2.4998     4.9900 H       
  39 H39           -4.9404     2.3649     5.2053 H       
  40 H40           -2.9032     0.1664     5.7825 H       
  41 H41           -3.7294     1.1628     7.0044 H       
  42 H42           -4.8569    -1.0289     6.7327 H       
  43 H43           -5.9204     0.3043     6.2229 H       
  44 H44           -4.2164    -1.4215     4.3696 H       
  45 H45           -5.9781    -1.5563     4.5848 H       
  46 H46           -6.2536     0.7770     3.7923 H       
  47 H47           -5.4274    -0.2193     2.5704 H       
@<TRIPOS>BOND
   1    1    2 ar
   2    1   25 1
   3    1    6 ar
   4    2    3 ar
   5    2   26 1
   6    3    4 ar
   7    3   27 1
   8    4    5 ar
   9    4    7 1
  10    5    6 ar
  11    5    9 1
  12    6   28 1
  13    7    8 1
  14    7   17 2
  15    8    9 1
  16    8   10 2
  17    9   18 1
  18    9   29 1
  19   10   11 1
  20   10   30 1
  21   11   12 ar
  22   11   13 ar
  23   12   16 ar
  24   12   31 1
  25   13   14 ar
  26   13   32 1
  27   14   15 ar
  28   14   33 1
  29   15   16 ar
  30   15   34 1
  31   16   35 1
  32   18   19 1
  33   18   36 1
  34   19   20 1
  35   19   24 1
  36   19   37 1
  37   20   21 1
  38   20   38 1
  39   20   39 1
  40   21   22 1
  41   21   40 1
  42   21   41 1
  43   22   23 1
  44   22   42 1
  45   22   43 1
  46   23   24 1
  47   23   44 1
  48   23   45 1
  49   24   46 1
  50   24   47 1

#	End of record

