#	Name: ASD01410045
#	Creating user name:	WinNT
#	Creation time:	15. 06. 2019 19:16

#	Modifying user name:	WinNT
#	Modification time:	15. 06. 2019 19:16

#	Program:	/corina/corina34_cracker 3.40 0067  02.08.2006

@<TRIPOS>MOLECULE
ASD01410045
  39   40    0    0    0
SMALL
NO_CHARGES


@<TRIPOS>ATOM
   1 C1             0.3997     1.0944    -0.0891 C.ar    
   2 C2             0.1444    -0.2578    -0.0386 C.ar    
   3 C3            -1.1781    -0.7175    -0.0020 C.ar    
   4 C4            -2.2351     0.2103    -0.0173 C.ar    
   5 C5            -1.9547     1.5702    -0.0685 C.ar    
   6 C6            -0.6464     2.0061    -0.0983 C.ar    
   7 N7            -3.5503    -0.2300     0.0181 N.pl3   
   8 C8            -4.6446     0.7388     0.1197 C.3     
   9 C9            -5.9623     0.0079     0.1394 C.2     
  10 N10           -7.1155     0.6999     0.2287 N.am    
  11 C11           -8.3355     0.0361     0.1275 C.ar    
  12 C12           -8.4201    -1.1671    -0.5595 C.ar    
  13 C13           -9.6306    -1.8235    -0.6587 C.ar    
  14 C14          -10.7681    -1.2892    -0.0758 C.ar    
  15 C15          -10.7036    -0.0957     0.6103 C.ar    
  16 C16           -9.4846     0.5773     0.7247 C.ar    
  17 C17           -9.4083     1.8538     1.4574 C.2     
  18 O18          -10.4925     2.3256     2.1037 O.3     
  19 O19           -8.3676     2.4808     1.4787 O.2     
  20 O20           -5.9852    -1.2029     0.0750 O.2     
  21 C21           -1.4588    -2.1559     0.0515 C.2     
  22 Br22           2.1861     1.7127    -0.1385 Br      
  23 C23           -0.3300    -3.1484    -0.0572 C.3     
  24 O24           -2.5997    -2.5469     0.1832 O.2     
  25 H25            0.9626    -0.9627    -0.0275 H       
  26 H26           -2.7623     2.2872    -0.0808 H       
  27 H27           -0.4348     3.0645    -0.1381 H       
  28 H28           -3.7453    -1.1792    -0.0244 H       
  29 H29           -4.5352     1.3155     1.0381 H       
  30 H30           -4.6150     1.4115    -0.7375 H       
  31 H31           -7.0956     1.6603     0.3634 H       
  32 H32           -7.5381    -1.5900    -1.0174 H       
  33 H33           -9.6912    -2.7594    -1.1943 H       
  34 H34          -11.7103    -1.8103    -0.1598 H       
  35 H35          -11.5934     0.3168     1.0626 H       
  36 H36          -10.3939     3.1668     2.5703 H       
  37 H37            0.6137    -2.6146    -0.1694 H       
  38 H38           -0.2963    -3.7604     0.8441 H       
  39 H39           -0.4910    -3.7882    -0.9249 H       
@<TRIPOS>BOND
   1    1    2 ar
   2    1   22 1
   3    1    6 ar
   4    2    3 ar
   5    2   25 1
   6    3    4 ar
   7    3   21 1
   8    4    5 ar
   9    4    7 1
  10    5    6 ar
  11    5   26 1
  12    6   27 1
  13    7    8 1
  14    7   28 1
  15    8    9 1
  16    8   29 1
  17    8   30 1
  18    9   10 am
  19    9   20 2
  20   10   11 1
  21   10   31 1
  22   11   12 ar
  23   11   16 ar
  24   12   13 ar
  25   12   32 1
  26   13   14 ar
  27   13   33 1
  28   14   15 ar
  29   14   34 1
  30   15   16 ar
  31   15   35 1
  32   16   17 1
  33   17   18 1
  34   17   19 2
  35   18   36 1
  36   21   23 1
  37   21   24 2
  38   23   37 1
  39   23   38 1
  40   23   39 1

#	End of record

