#	Name: ASD01410691
#	Creating user name:	WinNT
#	Creation time:	15. 06. 2019 19:18

#	Modifying user name:	WinNT
#	Modification time:	15. 06. 2019 19:18

#	Program:	/corina/corina34_cracker 3.40 0067  02.08.2006

@<TRIPOS>MOLECULE
ASD01410691
  77   80    0    0    0
SMALL
NO_CHARGES


@<TRIPOS>ATOM
   1 C1            -0.2337     1.1043     2.4601 C.ar    
   2 C2             0.5419     0.9819     3.6046 C.ar    
   3 C3             1.8369     0.5148     3.4964 C.ar    
   4 N4             2.3414     0.1860     2.3226 N.ar    
   5 C5             1.6336     0.2888     1.2095 C.ar    
   6 C6             0.3242     0.7508     1.2437 C.ar    
   7 O7             2.1922    -0.0605     0.0235 O.3     
   8 C8             3.5037    -0.4193     0.0166 C.ar    
   9 C9             3.8967    -1.6182     0.5995 C.ar    
  10 C10            5.2251    -1.9923     0.5977 C.ar    
  11 C11            6.1795    -1.1716     0.0124 C.ar    
  12 C12            5.7891     0.0403    -0.5779 C.ar    
  13 C13            4.4411     0.4072    -0.5754 C.ar    
  14 N14            7.5204    -1.5496     0.0113 N.am    
  15 C15            7.9717    -2.4299    -0.9041 C.2     
  16 C16            8.4400    -0.9900     1.0050 C.3     
  17 O17            9.1373    -2.7750    -0.8925 O.2     
  18 C18            7.0498    -2.9756    -1.9215 C.ar    
  19 C19            7.3654    -4.1601    -2.5901 C.ar    
  20 C20            6.5010    -4.6644    -3.5387 C.ar    
  21 C21            5.3218    -3.9981    -3.8292 C.ar    
  22 C22            5.0035    -2.8224    -3.1696 C.ar    
  23 C23            5.8567    -2.3118    -2.2143 C.ar    
  24 C24            7.7010     0.0413     1.8601 C.3     
  25 C25            8.9667    -2.1125     1.9015 C.3     
  26 C26           -0.0231     1.3553     4.9509 C.3     
  27 O27            9.8650    -2.9361     1.1554 O.3     
  28 C28           10.4169    -4.0209     1.9042 C.3     
  29 Cl29           4.2389    -4.6389    -5.0251 Cl      
  30 O30            7.3514     1.1671     1.0524 O.3     
  31 C31            6.6533     2.1947     1.7586 C.3     
  32 N32           -0.6610     0.1793     5.5575 N.3     
  33 C33           -1.0127     0.4361     6.9599 C.3     
  34 C34           -1.8022    -0.7516     7.5149 C.3     
  35 C35           -0.9508    -2.0196     7.4067 C.3     
  36 C36           -0.5576    -2.2376     5.9429 C.3     
  37 C37            0.1959    -1.0068     5.4335 C.3     
  38 F38            0.2662    -3.3639     5.8433 F       
  39 F39           -1.7100    -2.4313     5.1737 F       
  40 C40            6.7949     0.9184    -1.2019 C.2     
  41 O41            7.9464     0.5449    -1.3064 O.2     
  42 O42            6.4374     2.1356    -1.6565 O.3     
  43 C43           -0.4781     0.8662    -0.0267 C.3     
  44 F44           -1.7560     1.3515     0.2712 F       
  45 F45            0.1624     1.7474    -0.9044 F       
  46 F46           -0.5857    -0.3932    -0.6264 F       
  47 H47           -1.2508     1.4629     2.5179 H       
  48 H48            2.4446     0.4177     4.3840 H       
  49 H49            3.1586    -2.2605     1.0567 H       
  50 H50            5.5228    -2.9253     1.0530 H       
  51 H51            4.1329     1.3381    -1.0280 H       
  52 H52            9.2755    -0.5088     0.4966 H       
  53 H53            8.2848    -4.6801    -2.3649 H       
  54 H54            6.7439    -5.5805    -4.0565 H       
  55 H55            4.0829    -2.3072    -3.4007 H       
  56 H56            5.6075    -1.3950    -1.7007 H       
  57 H57            6.7958    -0.4075     2.2691 H       
  58 H58            8.3463     0.3660     2.6763 H       
  59 H59            9.4920    -1.6808     2.7534 H       
  60 H60            8.1313    -2.7155     2.2573 H       
  61 H61            0.7809     1.7066     5.5976 H       
  62 H62           -0.7624     2.1467     4.8278 H       
  63 H63           10.9723    -3.6289     2.7562 H       
  64 H64            9.6116    -4.6636     2.2601 H       
  65 H65           11.0877    -4.5978     1.2675 H       
  66 H66            6.4241     3.0132     1.0762 H       
  67 H67            5.7263     1.7906     2.1655 H       
  68 H68            7.2769     2.5641     2.5727 H       
  69 H69           -0.1022     0.5716     7.5437 H       
  70 H70           -1.6216     1.3380     7.0223 H       
  71 H71           -2.0496    -0.5675     8.5604 H       
  72 H72           -2.7196    -0.8792     6.9403 H       
  73 H73           -0.0516    -1.9074     8.0125 H       
  74 H74           -1.5253    -2.8755     7.7608 H       
  75 H75            0.4647    -1.1528     4.3873 H       
  76 H76            1.1007    -0.8645     6.0244 H       
  77 H77            7.1319     2.6756    -2.0580 H       
@<TRIPOS>BOND
   1    1    2 ar
   2    1    6 ar
   3    1   47 1
   4    2    3 ar
   5    2   26 1
   6    3    4 ar
   7    3   48 1
   8    4    5 ar
   9    5    6 ar
  10    5    7 1
  11    6   43 1
  12    7    8 1
  13    8    9 ar
  14    8   13 ar
  15    9   10 ar
  16    9   49 1
  17   10   11 ar
  18   10   50 1
  19   11   12 ar
  20   11   14 1
  21   12   13 ar
  22   12   40 1
  23   13   51 1
  24   14   15 am
  25   14   16 1
  26   15   17 2
  27   15   18 1
  28   16   24 1
  29   16   25 1
  30   16   52 1
  31   18   19 ar
  32   18   23 ar
  33   19   20 ar
  34   19   53 1
  35   20   21 ar
  36   20   54 1
  37   21   22 ar
  38   21   29 1
  39   22   23 ar
  40   22   55 1
  41   23   56 1
  42   24   30 1
  43   24   57 1
  44   24   58 1
  45   25   27 1
  46   25   59 1
  47   25   60 1
  48   26   32 1
  49   26   61 1
  50   26   62 1
  51   27   28 1
  52   28   63 1
  53   28   64 1
  54   28   65 1
  55   30   31 1
  56   31   66 1
  57   31   67 1
  58   31   68 1
  59   32   33 1
  60   32   37 1
  61   33   34 1
  62   33   69 1
  63   33   70 1
  64   34   35 1
  65   34   71 1
  66   34   72 1
  67   35   36 1
  68   35   73 1
  69   35   74 1
  70   36   37 1
  71   36   38 1
  72   36   39 1
  73   37   75 1
  74   37   76 1
  75   40   41 2
  76   40   42 1
  77   42   77 1
  78   43   44 1
  79   43   45 1
  80   43   46 1

#	End of record

