#	Name: ASD02500835
#	Creating user name:	WinNT
#	Creation time:	15. 06. 2019 20:23

#	Modifying user name:	WinNT
#	Modification time:	15. 06. 2019 20:23

#	Program:	/corina/corina34_cracker 3.40 0067  02.08.2006

@<TRIPOS>MOLECULE
ASD02500835
  32   33    0    0    0
SMALL
NO_CHARGES


@<TRIPOS>ATOM
   1 C1            -0.0168     1.3895     0.0097 C.ar    
   2 C2             0.0021    -0.0041     0.0020 C.ar    
   3 C3            -1.1974    -0.7138     0.0101 C.ar    
   4 C4            -2.4130    -0.0267     0.0259 C.ar    
   5 C5            -2.4277     1.3598     0.0335 C.ar    
   6 C6            -1.2364     2.0694     0.0308 C.ar    
   7 N7            -3.6508     2.0463     0.0489 N.pl3   
   8 C8            -4.1059     2.8395     1.0631 C.2     
   9 C9            -5.3145     3.3225     0.7100 C.2     
  10 C10           -5.6180     2.8104    -0.5675 C.2     
  11 C11           -4.5816     2.0373    -0.9503 C.2     
  12 C12           -3.3828     3.1252     2.3540 C.3     
  13 C13           -4.4730     1.2862    -2.2523 C.3     
  14 C14           -1.1828    -2.1912     0.0016 C.2     
  15 O15           -2.2286    -2.8090     0.0087 O.2     
  16 O16           -0.0096    -2.8531    -0.0141 O.3     
  17 C17            1.2520     2.1465     0.0016 C.2     
  18 O18            2.4281     1.4898    -0.0131 O.3     
  19 O19            1.2347     3.3611     0.0083 O.2     
  20 H20            0.9438    -0.5327    -0.0105 H       
  21 H21           -3.3429    -0.5759     0.0319 H       
  22 H22           -1.2519     3.1492     0.0371 H       
  23 H23           -5.9361     3.9810     1.2986 H       
  24 H24           -6.5147     3.0048    -1.1372 H       
  25 H25           -2.7559     4.0084     2.2315 H       
  26 H26           -4.1101     3.3029     3.1462 H       
  27 H27           -2.7595     2.2709     2.6181 H       
  28 H28           -3.9984     1.9218    -2.9999 H       
  29 H29           -3.8729     0.3883    -2.1049 H       
  30 H30           -5.4693     1.0053    -2.5939 H       
  31 H31           -0.0507    -3.8192    -0.0192 H       
  32 H32            3.2314     2.0281    -0.0179 H       
@<TRIPOS>BOND
   1    1    2 ar
   2    1   17 1
   3    1    6 ar
   4    2    3 ar
   5    2   20 1
   6    3    4 ar
   7    3   14 1
   8    4    5 ar
   9    4   21 1
  10    5    6 ar
  11    5    7 1
  12    6   22 1
  13    7    8 1
  14    7   11 1
  15    8    9 2
  16    8   12 1
  17    9   10 1
  18    9   23 1
  19   10   11 2
  20   10   24 1
  21   11   13 1
  22   12   25 1
  23   12   26 1
  24   12   27 1
  25   13   28 1
  26   13   29 1
  27   13   30 1
  28   14   15 2
  29   14   16 1
  30   16   31 1
  31   17   18 1
  32   17   19 2
  33   18   32 1

#	End of record

