#	Name: ASD03330048
#	Creating user name:	WinNT
#	Creation time:	15. 06. 2019 20:36

#	Modifying user name:	WinNT
#	Modification time:	15. 06. 2019 20:36

#	Program:	/corina/corina34_cracker 3.40 0067  02.08.2006

@<TRIPOS>MOLECULE
ASD03330048
  49   51    0    0    0
SMALL
NO_CHARGES


@<TRIPOS>ATOM
   1 O1             0.0092     1.2969     0.0323 O.3     
   2 C2             0.0207    -0.0524     0.0457 C.2     
   3 C3             1.3028    -0.5003     0.0513 C.2     
   4 C4             2.1488     0.6927     0.0402 C.ar    
   5 C5             1.2641     1.7874     0.0285 C.ar    
   6 C6             3.5288     0.9074     0.0399 C.ar    
   7 C7             4.0158     2.1852     0.0283 C.ar    
   8 C8             3.1469     3.2688     0.0168 C.ar    
   9 C9             1.7820     3.0771     0.0166 C.ar    
  10 C10           -1.1741    -0.9083     0.0532 C.2     
  11 O11           -1.0551    -2.1189     0.0658 O.2     
  12 N12           -2.4017    -0.3519     0.0461 N.am    
  13 C13            1.7610    -1.9359     0.0660 C.3     
  14 C14            1.9179    -2.4358    -1.3715 C.3     
  15 C15           -3.5926    -1.2050     0.0535 C.3     
  16 C16           -4.8473    -0.3294     0.0431 C.3     
  17 C17           -6.0724    -1.2069     0.0507 C.ar    
  18 C18           -6.6345    -1.5963     1.2526 C.ar    
  19 C19           -7.7573    -2.4004     1.2633 C.ar    
  20 C20           -8.3218    -2.8182     0.0648 C.ar    
  21 C21           -7.7545    -2.4252    -1.1408 C.ar    
  22 C22           -6.6352    -1.6163    -1.1443 C.ar    
  23 N23           -9.4570    -3.6319     0.0719 N.pl3   
  24 C24           -9.9778    -4.1517     1.3387 C.3     
  25 C25          -10.1269    -3.9656    -1.1875 C.3     
  26 Cl26           5.7307     2.4547     0.0286 Cl      
  27 H27            4.2084     0.0680     0.0492 H       
  28 H28            3.5453     4.2726     0.0077 H       
  29 H29            1.1163     3.9275     0.0072 H       
  30 H30           -2.4966     0.6134     0.0360 H       
  31 H31            2.7186    -2.0063     0.5818 H       
  32 H32            1.0230    -2.5475     0.5849 H       
  33 H33            2.6560    -1.8242    -1.8904 H       
  34 H34            2.2493    -3.4742    -1.3609 H       
  35 H35            0.9603    -2.3654    -1.8873 H       
  36 H36           -3.5878    -1.8434    -0.8299 H       
  37 H37           -3.5898    -1.8251     0.9499 H       
  38 H38           -4.8521     0.3091     0.9265 H       
  39 H39           -4.8501     0.2907    -0.8534 H       
  40 H40           -6.1949    -1.2714     2.1841 H       
  41 H41           -8.1956    -2.7045     2.2023 H       
  42 H42           -8.1910    -2.7482    -2.0744 H       
  43 H43           -6.1964    -1.3065    -2.0812 H       
  44 H44          -10.7026    -3.4488     1.7493 H       
  45 H45          -10.4617    -5.1129     1.1656 H       
  46 H46           -9.1565    -4.2801     2.0438 H       
  47 H47           -9.6584    -3.4172    -2.0047 H       
  48 H48          -10.0409    -5.0364    -1.3722 H       
  49 H49          -11.1799    -3.6915    -1.1227 H       
@<TRIPOS>BOND
   1    1    2 1
   2    1    5 1
   3    2    3 2
   4    2   10 1
   5    3    4 1
   6    3   13 1
   7    4    5 ar
   8    4    6 ar
   9    5    9 ar
  10    6    7 ar
  11    6   27 1
  12    7    8 ar
  13    7   26 1
  14    8    9 ar
  15    8   28 1
  16    9   29 1
  17   10   11 2
  18   10   12 am
  19   12   15 1
  20   12   30 1
  21   13   14 1
  22   13   31 1
  23   13   32 1
  24   14   33 1
  25   14   34 1
  26   14   35 1
  27   15   16 1
  28   15   36 1
  29   15   37 1
  30   16   17 1
  31   16   38 1
  32   16   39 1
  33   17   18 ar
  34   17   22 ar
  35   18   19 ar
  36   18   40 1
  37   19   20 ar
  38   19   41 1
  39   20   21 ar
  40   20   23 1
  41   21   22 ar
  42   21   42 1
  43   22   43 1
  44   23   24 1
  45   23   25 1
  46   24   44 1
  47   24   45 1
  48   24   46 1
  49   25   47 1
  50   25   48 1
  51   25   49 1

#	End of record

