#	Name: ASD05430176
#	Creating user name:	WinNT
#	Creation time:	15. 06. 2019 20:59

#	Modifying user name:	WinNT
#	Modification time:	15. 06. 2019 20:59

#	Program:	/corina/corina34_cracker 3.40 0067  02.08.2006

@<TRIPOS>MOLECULE
ASD05430176
  62   67    0    0    0
SMALL
NO_CHARGES


@<TRIPOS>ATOM
   1 C1            -0.0283     1.4184    -0.3029 C.ar    
   2 C2            -0.0004     0.0217    -0.3155 C.ar    
   3 C3            -1.1946    -0.6833    -0.2044 C.ar    
   4 C4            -2.3745     0.0293    -0.0846 C.ar    
   5 C5            -2.3306     1.4249    -0.0789 C.ar    
   6 N6            -1.1698     2.0683    -0.1818 N.ar    
   7 C7            -2.2324     4.3058     0.2655 C.3     
   8 C8            -3.5383     3.5332     0.1564 C.2     
   9 C9            -3.5803     2.1926     0.0480 C.2     
  10 C10           -2.3100     5.5101    -0.6804 C.3     
  11 C11           -3.4931     6.4603    -0.4814 C.3     
  12 N12           -4.7134     5.7068    -0.2270 N.pl3   
  13 C13           -4.7602     4.3704     0.1791 C.2     
  14 N14           -5.9526     4.0470     0.5496 N.2     
  15 C15           -6.5624     6.1060    -1.7774 C.ar    
  16 N16           -5.6954     5.8117    -2.7266 N.ar    
  17 C17           -7.8827     6.3759    -2.0834 C.ar    
  18 C18           -8.2921     6.3346    -3.4072 C.ar    
  19 C19           -7.3520     6.0212    -4.3797 C.ar    
  20 C20           -6.0468     5.7626    -3.9963 C.ar    
  21 N21            1.2171    -0.6617    -0.4392 N.pl3   
  22 F22           -7.7060     5.9689    -5.6824 F       
  23 C23            2.1784    -0.4361    -1.3719 C.2     
  24 C24            1.6651    -1.6799     0.3619 C.2     
  25 C25            2.8738    -2.0428    -0.1079 C.2     
  26 N26            3.1622    -1.2687    -1.1645 N.2     
  27 C27            3.7523    -3.1287     0.4580 C.3     
  28 O28            1.1319     2.1139    -0.4107 O.3     
  29 C29           -0.9840     6.1259    -1.1350 C.3     
  30 C30           -1.8179     5.2990    -2.1154 C.3     
  31 C31           -6.1090     6.1423    -0.3407 C.3     
  32 O32           -6.8239     5.1649     0.4439 O.3     
  33 C33           -6.2866     7.5448     0.2446 C.3     
  34 C34            1.0378     3.5396    -0.3915 C.3     
  35 C35            2.4368     4.1449    -0.5232 C.3     
  36 H36           -1.2005    -1.7633    -0.2118 H       
  37 H37           -3.3185    -0.4879     0.0032 H       
  38 H38           -2.0936     4.6510     1.2901 H       
  39 H39           -1.4000     3.6641    -0.0232 H       
  40 H40           -4.5308     1.6799     0.0542 H       
  41 H41           -3.2908     7.1154     0.3660 H       
  42 H42           -3.6238     7.0659    -1.3782 H       
  43 H43           -8.5871     6.6158    -1.3006 H       
  44 H44           -9.3177     6.5407    -3.6756 H       
  45 H45           -5.3085     5.5184    -4.7458 H       
  46 H46            2.1360     0.3075    -2.1539 H       
  47 H47            1.1480    -2.1084     1.2078 H       
  48 H48            3.5168    -4.0761    -0.0268 H       
  49 H49            4.7984    -2.8796     0.2798 H       
  50 H50            3.5772    -3.2158     1.5303 H       
  51 H51           -0.9554     7.2052    -1.2845 H       
  52 H52           -0.0652     5.6794    -0.7547 H       
  53 H53           -1.4478     4.3084    -2.3800 H       
  54 H54           -2.3381     5.8343    -2.9097 H       
  55 H55           -5.6530     8.2473    -0.2968 H       
  56 H56           -7.3292     7.8486     0.1500 H       
  57 H57           -6.0043     7.5376     1.2973 H       
  58 H58            0.4174     3.8741    -1.2230 H       
  59 H59            0.5897     3.8615     0.5486 H       
  60 H60            3.0571     3.8105     0.3083 H       
  61 H61            2.8849     3.8231    -1.4633 H       
  62 H62            2.3650     5.2325    -0.5085 H       
@<TRIPOS>BOND
   1    1    2 ar
   2    1   28 1
   3    1    6 ar
   4    2    3 ar
   5    2   21 1
   6    3    4 ar
   7    3   36 1
   8    4    5 ar
   9    4   37 1
  10    5    6 ar
  11    5    9 1
  12    7    8 1
  13    7   10 1
  14    7   38 1
  15    7   39 1
  16    8    9 2
  17    8   13 1
  18    9   40 1
  19   10   11 1
  20   10   29 1
  21   10   30 1
  22   11   12 1
  23   11   41 1
  24   11   42 1
  25   12   13 1
  26   12   31 1
  27   13   14 2
  28   14   32 1
  29   15   16 ar
  30   15   17 ar
  31   15   31 1
  32   16   20 ar
  33   17   18 ar
  34   17   43 1
  35   18   19 ar
  36   18   44 1
  37   19   20 ar
  38   19   22 1
  39   20   45 1
  40   21   23 1
  41   21   24 1
  42   23   26 2
  43   23   46 1
  44   24   25 2
  45   24   47 1
  46   25   26 1
  47   25   27 1
  48   27   48 1
  49   27   49 1
  50   27   50 1
  51   28   34 1
  52   29   30 1
  53   29   51 1
  54   29   52 1
  55   30   53 1
  56   30   54 1
  57   31   32 1
  58   31   33 1
  59   33   55 1
  60   33   56 1
  61   33   57 1
  62   34   35 1
  63   34   58 1
  64   34   59 1
  65   35   60 1
  66   35   61 1
  67   35   62 1

#	End of record

