#	Name: ASD00170152
#	Creating user name:	WinNT
#	Creation time:	15. 06. 2019 18:31

#	Modifying user name:	WinNT
#	Modification time:	15. 06. 2019 18:31

#	Program:	/corina/corina34_cracker 3.40 0067  02.08.2006

@<TRIPOS>MOLECULE
ASD00170152
  23   24    0    0    0
SMALL
NO_CHARGES


@<TRIPOS>ATOM
   1 C1             0.0041     1.3223     0.1976 C.2     
   2 C2             0.0143     0.0004     0.1261 C.2     
   3 C3             1.3489    -0.5570     0.0605 C.2     
   4 C4             2.3287     0.4083     0.0864 C.2     
   5 S5             1.6374     1.9628     0.1885 S.3     
   6 N6             3.6841     0.1531     0.0369 N.pl3   
   7 C7             1.6254    -1.9909    -0.0237 C.2     
   8 C8             0.5192    -2.9654     0.0932 C.ar    
   9 O9             2.7665    -2.3822    -0.1900 O.2     
  10 C10            0.5793    -4.1790    -0.5936 C.ar    
  11 C11           -0.4561    -5.0847    -0.4801 C.ar    
  12 C12           -1.5533    -4.7903     0.3139 C.ar    
  13 C13           -1.6174    -3.5874     0.9974 C.ar    
  14 C14           -0.5865    -2.6773     0.8956 C.ar    
  15 Cl15          -2.8524    -5.9336     0.4519 Cl      
  16 Cl16          -0.3842    -6.5946    -1.3338 Cl      
  17 H17           -0.8900     1.9258     0.2497 H       
  18 H18           -0.8824    -0.6015     0.1175 H       
  19 H19            4.0038    -0.7609    -0.0205 H       
  20 H20            4.3171     0.8878     0.0596 H       
  21 H21            1.4338    -4.4087    -1.2128 H       
  22 H22           -2.4750    -3.3633     1.6144 H       
  23 H23           -0.6380    -1.7398     1.4292 H       
@<TRIPOS>BOND
   1    1    2 2
   2    1    5 1
   3    1   17 1
   4    2    3 1
   5    2   18 1
   6    3    4 2
   7    3    7 1
   8    4    5 1
   9    4    6 1
  10    6   19 1
  11    6   20 1
  12    7    8 1
  13    7    9 2
  14    8   10 ar
  15    8   14 ar
  16   10   11 ar
  17   10   21 1
  18   11   12 ar
  19   11   16 1
  20   12   13 ar
  21   12   15 1
  22   13   14 ar
  23   13   22 1
  24   14   23 1

#	End of record

