#	Name: ASD03240308
#	Creating user name:	WinNT
#	Creation time:	15. 06. 2019 20:34

#	Modifying user name:	WinNT
#	Modification time:	15. 06. 2019 20:34

#	Program:	/corina/corina34_cracker 3.40 0067  02.08.2006

@<TRIPOS>MOLECULE
ASD03240308
 104  111    0    0    0
SMALL
NO_CHARGES


@<TRIPOS>ATOM
   1 C1             0.4018     2.6215     1.9817 C.2     
   2 N2             0.6371     1.8753     3.1123 N.pl3   
   3 O3            -3.2561     4.1508     1.4824 O.2     
   4 C4            -2.5200     4.4438     0.5641 C.2     
   5 C5            -1.0916     3.9636     0.5607 C.3     
   6 N6            -0.8409     3.1685     1.7654 N.pl3   
   7 N7             1.3583     2.8146     1.1176 N.2     
   8 N8            -2.9795     5.1989    -0.4533 N.am    
   9 C9            -4.3265     5.5490    -0.5077 C.ar    
  10 C10           -4.7065     6.7947    -1.0273 C.ar    
  11 C11           -6.0504     7.1401    -1.0798 C.ar    
  12 C12           -7.0151     6.2452    -0.6151 C.ar    
  13 C13           -6.6266     5.0053    -0.0987 C.ar    
  14 C14           -5.2936     4.6614    -0.0523 C.ar    
  15 C15           -8.4449     6.6076    -0.6682 C.2     
  16 N16           -9.3763     5.7431    -0.2193 N.am    
  17 O17           -8.7824     7.6862    -1.1170 O.2     
  18 C18          -10.7203     6.1326    -0.1553 C.ar    
  19 C19          -11.7246     5.1762    -0.2279 C.ar    
  20 C20          -11.0483     7.4745    -0.0134 C.ar    
  21 C21          -12.3729     7.8585     0.0497 C.ar    
  22 C22          -13.3775     6.9026    -0.0286 C.ar    
  23 C23          -13.0493     5.5599    -0.1648 C.ar    
  24 N24          -14.7198     7.2916     0.0358 N.pl3   
  25 C25          -15.7794     6.2832    -0.0468 C.3     
  26 C26          -15.0658     8.7072     0.1859 C.3     
  27 C27           -3.6759     7.7408    -1.5188 C.ar    
  28 C28           -2.5682     8.0450    -0.7112 C.ar    
  29 C29           -1.6108     8.9087    -1.1380 C.ar    
  30 C30           -1.7213     9.5108    -2.4040 C.ar    
  31 C31           -2.8354     9.2106    -3.2283 C.ar    
  32 C32           -3.8109     8.3118    -2.7709 C.ar    
  33 C33          -15.2108     9.3360    -1.1760 C.ar    
  34 C34          -16.1164     5.7941     1.3381 C.ar    
  35 C35          -16.4422     9.3394    -1.8058 C.ar    
  36 C36          -16.5806     9.9139    -3.0531 C.ar    
  37 C37          -15.4770    10.4912    -3.6778 C.ar    
  38 C38          -14.2388    10.4849    -3.0387 C.ar    
  39 C39          -14.1130     9.9126    -1.7890 C.ar    
  40 C40          -17.0985     6.4320     2.0742 C.ar    
  41 C41          -17.4112     5.9883     3.3431 C.ar    
  42 C42          -16.7356     4.8955     3.8824 C.ar    
  43 C43          -15.7472     4.2566     3.1365 C.ar    
  44 C44          -15.4465     4.7053     1.8664 C.ar    
  45 C45          -15.6196    11.1099    -5.0190 C.ar    
  46 C46          -17.0672     4.4141     5.2464 C.ar    
  47 C47          -14.5159    11.6871    -5.6436 C.ar    
  48 C48          -14.6542    12.2613    -6.8911 C.ar    
  49 C49          -15.8857    12.2648    -7.5209 C.ar    
  50 C50          -16.9847    11.6936    -6.9052 C.ar    
  51 C51          -16.8563    11.1108    -5.6607 C.ar    
  52 C52          -16.3916     3.3213     5.7857 C.ar    
  53 C53          -16.7040     2.8778     7.0547 C.ar    
  54 C54          -17.6861     3.5157     7.7908 C.ar    
  55 C55          -18.3603     4.6007     7.2602 C.ar    
  56 C56          -18.0513     5.0568     5.9947 C.ar    
  57 C57           -0.7446    10.4080    -2.8683 C.ar    
  58 C58           -0.8797    10.9751    -4.0983 C.ar    
  59 C59           -1.9746    10.6802    -4.9087 C.ar    
  60 C60           -2.9405     9.8163    -4.4933 C.ar    
  61 H61            1.5149     1.4927     3.2668 H       
  62 H62           -0.0747     1.7316     3.7553 H       
  63 H63           -0.9168     3.3495    -0.3227 H       
  64 H64           -0.4198     4.8218     0.5454 H       
  65 H65           -1.5516     3.0281     2.4105 H       
  66 H66            1.1922     3.3410     0.3200 H       
  67 H67           -2.3721     5.4985    -1.1477 H       
  68 H68           -6.3481     8.0985    -1.4788 H       
  69 H69           -7.3741     4.3137     0.2610 H       
  70 H70           -4.9987     3.7025     0.3475 H       
  71 H71           -9.1160     4.8512     0.0594 H       
  72 H72          -11.4693     4.1322    -0.3341 H       
  73 H73          -10.2671     8.2178     0.0479 H       
  74 H74          -12.6280     8.9021     0.1604 H       
  75 H75          -13.8303     4.8166    -0.2261 H       
  76 H76          -16.6660     6.7244    -0.5022 H       
  77 H77          -15.4373     5.4457    -0.6547 H       
  78 H78          -16.0068     8.7956     0.7289 H       
  79 H79          -14.2775     9.2172     0.7396 H       
  80 H80           -2.4765     7.5864     0.2623 H       
  81 H81           -0.7649     9.1333    -0.5051 H       
  82 H82           -4.6644     8.0739    -3.3885 H       
  83 H83          -17.2969     8.8914    -1.3209 H       
  84 H84          -17.5425     9.9158    -3.5442 H       
  85 H85          -13.3801    10.9309    -3.5184 H       
  86 H86          -13.1538     9.9071    -1.2927 H       
  87 H87          -17.6213     7.2792     1.6554 H       
  88 H88          -18.1780     6.4873     3.9171 H       
  89 H89          -15.2205     3.4091     3.5497 H       
  90 H90          -14.6806     4.2109     1.2873 H       
  91 H91          -13.5541    11.6856    -5.1524 H       
  92 H92          -13.7994    12.7090    -7.3762 H       
  93 H93          -15.9896    12.7155    -8.4969 H       
  94 H94          -17.9440    11.6994    -7.4013 H       
  95 H95          -17.7150    10.6648    -5.1810 H       
  96 H96          -15.6251     2.8220     5.2115 H       
  97 H97          -16.1810     2.0308     7.4737 H       
  98 H98          -17.9277     3.1651     8.7833 H       
  99 H99          -19.1265     5.0949     7.8391 H       
 100 H100         -18.5780     5.9042     5.5814 H       
 101 H101           0.1094    10.6469    -2.2518 H       
 102 H102          -0.1271    11.6645    -4.4515 H       
 103 H103          -2.0576    11.1440    -5.8805 H       
 104 H104          -3.7834     9.5966    -5.1318 H       
@<TRIPOS>BOND
   1    1    2 1
   2    1    7 2
   3    1    6 1
   4    2   61 1
   5    2   62 1
   6    3    4 2
   7    4    5 1
   8    4    8 am
   9    5    6 1
  10    5   63 1
  11    5   64 1
  12    6   65 1
  13    7   66 1
  14    8    9 1
  15    8   67 1
  16    9   10 ar
  17    9   14 ar
  18   10   11 ar
  19   10   27 1
  20   11   12 ar
  21   11   68 1
  22   12   13 ar
  23   12   15 1
  24   13   14 ar
  25   13   69 1
  26   14   70 1
  27   15   16 am
  28   15   17 2
  29   16   18 1
  30   16   71 1
  31   18   19 ar
  32   18   20 ar
  33   19   23 ar
  34   19   72 1
  35   20   21 ar
  36   20   73 1
  37   21   22 ar
  38   21   74 1
  39   22   23 ar
  40   22   24 1
  41   23   75 1
  42   24   25 1
  43   24   26 1
  44   25   34 1
  45   25   76 1
  46   25   77 1
  47   26   33 1
  48   26   78 1
  49   26   79 1
  50   27   28 ar
  51   27   32 ar
  52   28   29 ar
  53   28   80 1
  54   29   30 ar
  55   29   81 1
  56   30   31 ar
  57   30   57 ar
  58   31   32 ar
  59   31   60 ar
  60   32   82 1
  61   33   35 ar
  62   33   39 ar
  63   34   40 ar
  64   34   44 ar
  65   35   36 ar
  66   35   83 1
  67   36   37 ar
  68   36   84 1
  69   37   38 ar
  70   37   45 1
  71   38   39 ar
  72   38   85 1
  73   39   86 1
  74   40   41 ar
  75   40   87 1
  76   41   42 ar
  77   41   88 1
  78   42   43 ar
  79   42   46 1
  80   43   44 ar
  81   43   89 1
  82   44   90 1
  83   45   47 ar
  84   45   51 ar
  85   46   52 ar
  86   46   56 ar
  87   47   48 ar
  88   47   91 1
  89   48   49 ar
  90   48   92 1
  91   49   50 ar
  92   49   93 1
  93   50   51 ar
  94   50   94 1
  95   51   95 1
  96   52   53 ar
  97   52   96 1
  98   53   54 ar
  99   53   97 1
 100   54   55 ar
 101   54   98 1
 102   55   56 ar
 103   55   99 1
 104   56  100 1
 105   57   58 ar
 106   57  101 1
 107   58   59 ar
 108   58  102 1
 109   59   60 ar
 110   59  103 1
 111   60  104 1

#	End of record

