#	Name: ASD01814101
#	Creating user name:	WinNT
#	Creation time:	15. 06. 2019 19:31

#	Modifying user name:	WinNT
#	Modification time:	15. 06. 2019 19:31

#	Program:	/corina/corina34_cracker 3.40 0067  02.08.2006

@<TRIPOS>MOLECULE
ASD01814101
  41   44    0    0    0
SMALL
NO_CHARGES


@<TRIPOS>ATOM
   1 C1             0.1039     1.4768     0.3861 C.ar    
   2 C2             0.0848     0.0905     0.3778 C.ar    
   3 C3             1.2533    -0.6303     0.2377 C.ar    
   4 C4             2.4704     0.0350     0.1021 C.ar    
   5 C5             2.4882     1.4402     0.1102 C.ar    
   6 C6             1.2977     2.1573     0.2532 C.ar    
   7 N7             3.6447    -0.6745    -0.0376 N.pl3   
   8 C8             4.8383    -0.0824    -0.1700 C.2     
   9 C9             4.9816     1.2904    -0.1761 C.2     
  10 C10            3.7816     2.1314    -0.0341 C.2     
  11 O11            3.8551     3.3478    -0.0340 O.2     
  12 C12            6.3096     1.9023    -0.3228 C.2     
  13 O13            6.4366     3.2444    -0.3273 O.3     
  14 O14            7.2937     1.1983    -0.4402 O.2     
  15 C15            3.5837    -2.1382    -0.0406 C.3     
  16 C16            3.4403    -2.6321    -1.4571 C.ar    
  17 C17            4.5589    -2.7764    -2.2539 C.ar    
  18 C18            4.4259    -3.2315    -3.5590 C.ar    
  19 C19            3.1682    -3.5401    -4.0588 C.ar    
  20 C20            2.0529    -3.3937    -3.2569 C.ar    
  21 C21            2.1890    -2.9457    -1.9560 C.ar    
  22 F22            1.2174    -1.9808     0.2325 F       
  23 F23            1.3145     3.5082     0.2606 F       
  24 N24            5.5595    -3.3786    -4.3705 N.pl3   
  25 C25            5.5704    -3.8097    -5.6521 C.2     
  26 C26            6.8555    -3.8091    -6.0758 C.2     
  27 C27            7.6573    -3.3632    -5.0193 C.2     
  28 N28            6.8811    -3.0992    -3.9991 N.2     
  29 H29           -0.8195     2.0267     0.4924 H       
  30 H30           -0.8550    -0.4311     0.4824 H       
  31 H31            5.7183    -0.6996    -0.2753 H       
  32 H32            7.3302     3.6005    -0.4265 H       
  33 H33            4.4987    -2.5409     0.3937 H       
  34 H34            2.7269    -2.4673     0.5474 H       
  35 H35            5.5361    -2.5352    -1.8624 H       
  36 H36            3.0616    -3.8939    -5.0736 H       
  37 H37            1.0740    -3.6336    -3.6452 H       
  38 H38            1.3157    -2.8323    -1.3309 H       
  39 H39            4.7082    -4.1023    -6.2331 H       
  40 H40            7.2014    -4.1017    -7.0562 H       
  41 H41            8.7312    -3.2513    -5.0432 H       
@<TRIPOS>BOND
   1    1    2 ar
   2    1    6 ar
   3    1   29 1
   4    2    3 ar
   5    2   30 1
   6    3    4 ar
   7    3   22 1
   8    4    5 ar
   9    4    7 1
  10    5    6 ar
  11    5   10 1
  12    6   23 1
  13    7    8 1
  14    7   15 1
  15    8    9 2
  16    8   31 1
  17    9   10 1
  18    9   12 1
  19   10   11 2
  20   12   13 1
  21   12   14 2
  22   13   32 1
  23   15   16 1
  24   15   33 1
  25   15   34 1
  26   16   17 ar
  27   16   21 ar
  28   17   18 ar
  29   17   35 1
  30   18   19 ar
  31   18   24 1
  32   19   20 ar
  33   19   36 1
  34   20   21 ar
  35   20   37 1
  36   21   38 1
  37   24   25 1
  38   24   28 1
  39   25   26 2
  40   25   39 1
  41   26   27 1
  42   26   40 1
  43   27   28 2
  44   27   41 1

#	End of record

