#	Name: ASD03320039
#	Creating user name:	WinNT
#	Creation time:	15. 06. 2019 20:36

#	Modifying user name:	WinNT
#	Modification time:	15. 06. 2019 20:36

#	Program:	/corina/corina34_cracker 3.40 0067  02.08.2006

@<TRIPOS>MOLECULE
ASD03320039
  69   73    0    0    0
SMALL
NO_CHARGES


@<TRIPOS>ATOM
   1 C1            -0.0860     0.3424     0.8176 C.ar    
   2 C2            -0.0287    -1.0393     0.6362 C.ar    
   3 C3             1.0712     1.0889     0.7955 C.ar    
   4 C4             2.3022     0.4620     0.5914 C.ar    
   5 C5             2.3586    -0.9215     0.4098 C.ar    
   6 C6             1.2003    -1.6663     0.4323 C.ar    
   7 C7             3.5449     1.2623     0.5670 C.2     
   8 N8             3.5739     2.4421    -0.0840 N.am    
   9 O9             4.5405     0.8565     1.1341 O.2     
  10 C10           -1.2755    -1.8423     0.6607 C.ar    
  11 C11           -1.2311    -3.2224     0.4808 C.ar    
  12 C12           -2.4325    -3.9307     0.5133 C.ar    
  13 N13           -3.5676    -3.2667     0.7133 N.ar    
  14 C14           -3.5673    -1.9591     0.8794 C.ar    
  15 N15           -2.4559    -1.2544     0.8609 N.ar    
  16 N16           -2.4432    -5.3064     0.3391 N.pl3   
  17 C17           -3.6354    -6.0205     0.4891 C.ar    
  18 C18           -3.8524    -7.1758    -0.2506 C.ar    
  19 C19           -5.0314    -7.8794    -0.0997 C.ar    
  20 C20           -5.9950    -7.4348     0.7865 C.ar    
  21 C21           -5.7824    -6.2844     1.5244 C.ar    
  22 C22           -4.6036    -5.5794     1.3825 C.ar    
  23 C23            4.7644     3.3016    -0.0219 C.3     
  24 C24            5.2285     3.6000    -1.4530 C.3     
  25 N25            4.0704     4.0498    -2.2380 N.am    
  26 C26            2.8799     3.1904    -2.3001 C.3     
  27 C27            2.4179     2.8893    -0.8737 C.3     
  28 C28            4.0994     5.2296    -2.8891 C.2     
  29 C29            5.3424     6.0267    -2.9179 C.ar    
  30 O30            3.1025     5.6375    -3.4526 O.2     
  31 C31            5.3180     7.3793    -2.5646 C.ar    
  32 C32            6.4870     8.1183    -2.5940 C.ar    
  33 C33            7.6752     7.5217    -2.9712 C.ar    
  34 C34            7.7049     6.1826    -3.3220 C.ar    
  35 C35            6.5492     5.4318    -3.2926 C.ar    
  36 F36            4.1565     7.9627    -2.1962 F       
  37 C37           -5.2679    -9.1328    -0.9022 C.3     
  38 C38           -5.4711   -10.3154     0.0470 C.3     
  39 C39           -6.5155    -8.9550    -1.7699 C.3     
  40 H40           -1.0386     0.8276     0.9709 H       
  41 H41            1.0266     2.1588     0.9356 H       
  42 H42            3.3101    -1.4073     0.2515 H       
  43 H43            1.2437    -2.7363     0.2919 H       
  44 H44           -0.2918    -3.7307     0.3202 H       
  45 H45           -4.5069    -1.4513     1.0396 H       
  46 H46           -1.6234    -5.7731     0.1133 H       
  47 H47           -3.1003    -7.5235    -0.9433 H       
  48 H48           -6.9160    -7.9868     0.9027 H       
  49 H49           -6.5374    -5.9394     2.2152 H       
  50 H50           -4.4380    -4.6814     1.9592 H       
  51 H51            4.5161     4.2344     0.4842 H       
  52 H52            5.5583     2.7882     0.5205 H       
  53 H53            5.9857     4.3840    -1.4360 H       
  54 H54            5.6440     2.6963    -1.8988 H       
  55 H55            2.0860     3.7037    -2.8426 H       
  56 H56            3.1282     2.2575    -2.8063 H       
  57 H57            1.6608     2.1053    -0.8921 H       
  58 H58            2.0025     3.7919    -0.4255 H       
  59 H59            6.4710     9.1633    -2.3219 H       
  60 H60            8.5851     8.1031    -2.9928 H       
  61 H61            8.6375     5.7238    -3.6156 H       
  62 H62            6.5753     4.3875    -3.5667 H       
  63 H63           -4.4054    -9.3235    -1.5408 H       
  64 H64           -6.3336   -10.1247     0.6856 H       
  65 H65           -5.6422   -11.2220    -0.5335 H       
  66 H66           -4.5823   -10.4421     0.6651 H       
  67 H67           -7.3780    -8.7643    -1.1313 H       
  68 H68           -6.3708    -8.1125    -2.4461 H       
  69 H69           -6.6866    -9.8616    -2.3504 H       
@<TRIPOS>BOND
   1    1    2 ar
   2    1    3 ar
   3    1   40 1
   4    2   10 1
   5    2    6 ar
   6    3    4 ar
   7    3   41 1
   8    4    5 ar
   9    4    7 1
  10    5    6 ar
  11    5   42 1
  12    6   43 1
  13    7    8 am
  14    7    9 2
  15    8   23 1
  16    8   27 1
  17   10   11 ar
  18   10   15 ar
  19   11   12 ar
  20   11   44 1
  21   12   13 ar
  22   12   16 1
  23   13   14 ar
  24   14   15 ar
  25   14   45 1
  26   16   17 1
  27   16   46 1
  28   17   18 ar
  29   17   22 ar
  30   18   19 ar
  31   18   47 1
  32   19   20 ar
  33   19   37 1
  34   20   21 ar
  35   20   48 1
  36   21   22 ar
  37   21   49 1
  38   22   50 1
  39   23   24 1
  40   23   51 1
  41   23   52 1
  42   24   25 1
  43   24   53 1
  44   24   54 1
  45   25   26 1
  46   25   28 am
  47   26   27 1
  48   26   55 1
  49   26   56 1
  50   27   57 1
  51   27   58 1
  52   28   29 1
  53   28   30 2
  54   29   31 ar
  55   29   35 ar
  56   31   32 ar
  57   31   36 1
  58   32   33 ar
  59   32   59 1
  60   33   34 ar
  61   33   60 1
  62   34   35 ar
  63   34   61 1
  64   35   62 1
  65   37   38 1
  66   37   39 1
  67   37   63 1
  68   38   64 1
  69   38   65 1
  70   38   66 1
  71   39   67 1
  72   39   68 1
  73   39   69 1

#	End of record

