#	Name: ASD00841088
#	Creating user name:	WinNT
#	Creation time:	15. 06. 2019 18:41

#	Modifying user name:	WinNT
#	Modification time:	15. 06. 2019 18:41

#	Program:	/corina/corina34_cracker 3.40 0067  02.08.2006

@<TRIPOS>MOLECULE
ASD00841088
  79   84    0    0    0
SMALL
NO_CHARGES


@<TRIPOS>ATOM
   1 N1            -0.0159     1.3183     0.0093 N.ar    
   2 C2             0.0021    -0.0041     0.0020 C.ar    
   3 C3             1.2069    -0.6955    -0.0132 C.ar    
   4 C4             2.3925     0.0180    -0.0207 C.ar    
   5 C5             2.3308     1.4049    -0.0127 C.ar    
   6 C6             1.0980     2.0259     0.0025 C.ar    
   7 C7             1.2224    -2.2024    -0.0209 C.3     
   8 C8             0.4764    -2.7346    -1.2259 C.2     
   9 O9             2.5879    -2.6961    -0.0089 O.3     
  10 C10            3.3819    -2.3225    -1.0300 C.2     
  11 N11            4.6605    -2.7459    -1.0791 N.am    
  12 O12            2.9459    -1.6036    -1.9072 O.2     
  13 C13            5.5450    -2.3497    -2.1855 C.3     
  14 C14            6.8416    -1.7863    -1.5942 C.3     
  15 N15            7.4154    -2.7640    -0.6600 N.3     
  16 C16            6.5183    -3.0033     0.4784 C.3     
  17 C17            5.2101    -3.6115    -0.0246 C.3     
  18 C18            8.7445    -2.3376    -0.2023 C.3     
  19 C19            9.2568    -3.3130     0.8610 C.3     
  20 C20           10.6663    -2.8987     1.2897 C.3     
  21 N21           11.5568    -2.9074     0.1221 N.3     
  22 C22           11.1114    -1.9438    -0.8926 C.3     
  23 C23            9.7153    -2.3297    -1.3864 C.3     
  24 H24           12.5120    -2.7300     0.3945 H       
  25 O25            0.7568    -2.5406    -2.3898 O.2     
  26 N26           -0.5539    -3.4626    -0.7644 N.am    
  27 C27            0.4487    -2.7464     1.1585 C.ar    
  28 C28           -0.6011    -3.4915     0.6265 C.ar    
  29 C29            0.6132    -2.6250     2.5150 C.ar    
  30 C30           -0.2835    -3.2566     3.3842 C.ar    
  31 C31           -1.3412    -4.0072     2.8566 C.ar    
  32 C32           -1.4949    -4.1227     1.4917 C.ar    
  33 F33           -2.2122    -4.6208     3.6873 F       
  34 C34           -1.0164    -5.8557    -2.0426 C.ar    
  35 C35           -1.3471    -6.8956    -1.1940 C.ar    
  36 C36           -0.1973    -6.0864    -3.1320 C.ar    
  37 C37            0.2911    -7.3570    -3.3727 C.ar    
  38 C38           -0.0392    -8.3968    -2.5239 C.ar    
  39 C39           -0.8583    -8.1661    -1.4344 C.ar    
  40 H40            0.3424    -9.3894    -2.7119 H       
  41 H41           -1.9870    -6.7153    -0.3428 H       
  42 C42           -0.1204    -3.1366     4.8018 C.1     
  43 N43            0.0090    -3.0413     5.9263 N.1     
  44 O44           -1.1673    -0.6919     0.0099 O.3     
  45 C45           -3.5777    -0.8652     0.0330 C.3     
  46 C46           -2.3720     0.0766     0.0260 C.3     
  47 S47           -1.6449    -4.2377    -1.7399 S.o2    
  48 O48           -2.8262    -4.4040    -0.9678 O.2     
  49 O49           -1.6212    -3.5580    -2.9876 O.2     
  50 H50            3.3442    -0.4925    -0.0322 H       
  51 H51            3.2375     1.9916    -0.0178 H       
  52 H52            1.0444     3.1046     0.0084 H       
  53 H53            5.7714    -3.2192    -2.8026 H       
  54 H54            5.0558    -1.5857    -2.7897 H       
  55 H55            7.5522    -1.5900    -2.3971 H       
  56 H56            6.6265    -0.8589    -1.0635 H       
  57 H57            6.9944    -3.6895     1.1788 H       
  58 H58            6.3077    -2.0589     0.9803 H       
  59 H59            4.4997    -3.6844     0.7988 H       
  60 H60            5.4015    -4.6028    -0.4356 H       
  61 H61            8.6793    -1.3362     0.2232 H       
  62 H62            8.5926    -3.2914     1.7250 H       
  63 H63            9.2839    -4.3211     0.4473 H       
  64 H64           10.6362    -1.8959     1.7160 H       
  65 H65           11.0396    -3.5995     2.0364 H       
  66 H66           11.0792    -0.9455    -0.4561 H       
  67 H67           11.8080    -1.9511    -1.7309 H       
  68 H68            9.7496    -3.3222    -1.8355 H       
  69 H69            9.3785    -1.6054    -2.1281 H       
  70 H70            1.4328    -2.0439     2.9111 H       
  71 H71           -2.3125    -4.7030     1.0901 H       
  72 H72            0.0607    -5.2740    -3.7952 H       
  73 H73            0.9305    -7.5373    -4.2243 H       
  74 H74           -1.1166    -8.9785    -0.7714 H       
  75 H75           -4.4966    -0.2790     0.0452 H       
  76 H76           -3.5566    -1.4891    -0.8606 H       
  77 H77           -3.5390    -1.4986     0.9192 H       
  78 H78           -2.3931     0.7004     0.9196 H       
  79 H79           -2.4108     0.7099    -0.8602 H       
@<TRIPOS>BOND
   1    1    2 ar
   2    1    6 ar
   3    2    3 ar
   4    2   44 1
   5    3    4 ar
   6    3    7 1
   7    4    5 ar
   8    4   50 1
   9    5    6 ar
  10    5   51 1
  11    6   52 1
  12    7    8 1
  13    7    9 1
  14    7   27 1
  15    8   25 2
  16    8   26 am
  17    9   10 1
  18   10   11 am
  19   10   12 2
  20   11   13 1
  21   11   17 1
  22   13   14 1
  23   13   53 1
  24   13   54 1
  25   14   15 1
  26   14   55 1
  27   14   56 1
  28   15   16 1
  29   15   18 1
  30   16   17 1
  31   16   57 1
  32   16   58 1
  33   17   59 1
  34   17   60 1
  35   18   19 1
  36   18   23 1
  37   18   61 1
  38   19   20 1
  39   19   62 1
  40   19   63 1
  41   20   21 1
  42   20   64 1
  43   20   65 1
  44   21   22 1
  45   21   24 1
  46   22   23 1
  47   22   66 1
  48   22   67 1
  49   23   68 1
  50   23   69 1
  51   26   47 am
  52   26   28 1
  53   27   28 ar
  54   27   29 ar
  55   28   32 ar
  56   29   30 ar
  57   29   70 1
  58   30   31 ar
  59   30   42 1
  60   31   32 ar
  61   31   33 1
  62   32   71 1
  63   34   35 ar
  64   34   36 ar
  65   34   47 1
  66   35   41 1
  67   35   39 ar
  68   36   37 ar
  69   36   72 1
  70   37   38 ar
  71   37   73 1
  72   38   39 ar
  73   38   40 1
  74   39   74 1
  75   42   43 3
  76   44   46 1
  77   45   46 1
  78   45   75 1
  79   45   76 1
  80   45   77 1
  81   46   78 1
  82   46   79 1
  83   47   48 2
  84   47   49 2

#	End of record

