#	Name: ASD08070185
#	Creating user name:	WinNT
#	Creation time:	15. 06. 2019 21:14

#	Modifying user name:	WinNT
#	Modification time:	15. 06. 2019 21:14

#	Program:	/corina/corina34_cracker 3.40 0067  02.08.2006

@<TRIPOS>MOLECULE
ASD08070185
  41   42    0    0    0
SMALL
NO_CHARGES


@<TRIPOS>ATOM
   1 C1            -0.0167     1.3805     0.0096 C.ar    
   2 C2             0.0021    -0.0041     0.0020 C.ar    
   3 C3            -1.1849    -0.7157     0.0100 C.ar    
   4 C4            -2.4055    -0.0329     0.0258 C.ar    
   5 C5            -2.4163     1.3658     0.0334 C.ar    
   6 C6            -1.2211     2.0635     0.0306 C.ar    
   7 C7            -3.6754    -0.7843     0.0339 C.2     
   8 N8            -4.2667    -1.1208    -1.1296 N.am    
   9 F9            -3.5905     2.0338     0.0486 F       
  10 O10           -4.1883    -1.0998     1.0901 O.2     
  11 C11           -6.6969    -0.8904    -0.9788 C.3     
  12 C12           -5.5275    -1.8668    -1.1215 C.3     
  13 C13           -6.9855    -3.4228    -2.4236 C.3     
  14 C14           -5.6688    -2.6437    -2.4320 C.3     
  15 F15           -1.2295     3.4145     0.0379 F       
  16 C16            1.2803     2.1479     0.0014 C.3     
  17 F17            1.1820    -0.6619    -0.0137 F       
  18 F18           -1.1646    -2.0666     0.0021 F       
  19 C19           -5.6626    -1.6652    -3.6082 C.3     
  20 C20           -8.0136    -1.6695    -0.9704 C.3     
  21 C21           -8.1549    -2.4465    -2.2809 C.3     
  22 C22           -7.1268    -4.1997    -3.7341 C.3     
  23 H23           -3.8575    -0.8690    -1.9722 H       
  24 H24           -6.5962    -0.3370    -0.0452 H       
  25 H25           -6.6925    -0.1934    -1.8168 H       
  26 H26           -5.5319    -2.5639    -0.2836 H       
  27 H27           -6.9899    -4.1199    -1.5857 H       
  28 H28           -4.8357    -3.3392    -2.5337 H       
  29 H29            1.5831     2.3384    -1.0282 H       
  30 H30            1.1447     3.0961     0.5216 H       
  31 H31            2.0510     1.5642     0.5047 H       
  32 H32           -6.4957    -0.9696    -3.5065 H       
  33 H33           -4.7246    -1.1101    -3.6142 H       
  34 H34           -5.7633    -2.2186    -4.5418 H       
  35 H35           -8.0180    -2.3666    -0.1325 H       
  36 H36           -8.8467    -0.9740    -0.8688 H       
  37 H37           -8.1505    -1.7494    -3.1189 H       
  38 H38           -9.0930    -3.0015    -2.2749 H       
  39 H39           -6.2937    -4.8952    -3.8357 H       
  40 H40           -8.0649    -4.7547    -3.7281 H       
  41 H41           -7.1224    -3.5026    -4.5720 H       
@<TRIPOS>BOND
   1    1    2 ar
   2    1   16 1
   3    1    6 ar
   4    2    3 ar
   5    2   17 1
   6    3    4 ar
   7    3   18 1
   8    4    5 ar
   9    4    7 1
  10    5    6 ar
  11    5    9 1
  12    6   15 1
  13    7    8 am
  14    7   10 2
  15    8   12 1
  16    8   23 1
  17   11   12 1
  18   11   20 1
  19   11   24 1
  20   11   25 1
  21   12   14 1
  22   12   26 1
  23   13   14 1
  24   13   22 1
  25   13   21 1
  26   13   27 1
  27   14   19 1
  28   14   28 1
  29   16   29 1
  30   16   30 1
  31   16   31 1
  32   19   32 1
  33   19   33 1
  34   19   34 1
  35   20   21 1
  36   20   35 1
  37   20   36 1
  38   21   37 1
  39   21   38 1
  40   22   39 1
  41   22   40 1
  42   22   41 1

#	End of record

