#	Name: ASD01882612
#	Creating user name:	WinNT
#	Creation time:	15. 06. 2019 19:44

#	Modifying user name:	WinNT
#	Modification time:	15. 06. 2019 19:44

#	Program:	/corina/corina34_cracker 3.40 0067  02.08.2006

@<TRIPOS>MOLECULE
ASD01882612
  36   38    0    0    0
SMALL
NO_CHARGES


@<TRIPOS>ATOM
   1 C1            -0.0172     1.3823     0.0088 C.ar    
   2 C2             0.5308     0.9650    -1.1954 C.ar    
   3 C3             1.7361     0.2901    -1.2075 C.ar    
   4 C4             2.3962     0.0303    -0.0207 C.ar    
   5 C5             1.8521     0.4451     1.1809 C.ar    
   6 C6             0.6471     1.1204     1.1983 C.ar    
   7 O7            -1.2000     2.0514     0.0228 O.3     
   8 C8             4.4640    -0.4380    -1.3355 C.3     
   9 C9             5.7115    -1.3180    -1.3701 C.3     
  10 C10            6.6130    -1.0813    -0.1667 C.3     
  11 C11            5.8571    -1.1187     1.1533 C.3     
  12 C12            4.5900    -0.2714     1.1310 C.3     
  13 C13            4.9100     1.2139     1.0449 C.3     
  14 C14            5.5509     1.5993    -0.2798 C.3     
  15 C15            4.8114     1.0334    -1.4818 C.3     
  16 C16            3.7059    -0.7040    -0.0366 C.3     
  17 H17            0.0154     1.1674    -2.1227 H       
  18 H18            2.1629    -0.0353    -2.1447 H       
  19 H19            2.3694     0.2407     2.1066 H       
  20 H20            0.2227     1.4446     2.1370 H       
  21 H21           -1.9753     1.4781     0.0956 H       
  22 H22            3.8155    -0.7314    -2.1759 H       
  23 H23            5.4062    -2.3694    -1.3927 H       
  24 H24            6.2707    -1.1075    -2.2879 H       
  25 H25            7.3619    -1.8984    -0.1453 H       
  26 H26            7.1794    -0.1641    -0.2726 H       
  27 H27            5.5877    -2.1562     1.3841 H       
  28 H28            6.5127    -0.7599     1.9553 H       
  29 H29            4.0362    -0.4542     2.0653 H       
  30 H30            4.0054     1.8061     1.2039 H       
  31 H31            5.6070     1.4691     1.8583 H       
  32 H32            5.5151     2.7053    -0.3573 H       
  33 H33            6.6025     1.3381    -0.3011 H       
  34 H34            5.4451     1.1584    -2.3741 H       
  35 H35            3.9021     1.6173    -1.6595 H       
  36 H36            3.5121    -1.7796     0.0459 H       
@<TRIPOS>BOND
   1    1    2 ar
   2    1    6 ar
   3    1    7 1
   4    2    3 ar
   5    2   17 1
   6    3    4 ar
   7    3   18 1
   8    4    5 ar
   9    4   16 1
  10    5    6 ar
  11    5   19 1
  12    6   20 1
  13    7   21 1
  14    8    9 1
  15    8   15 1
  16    8   16 1
  17    8   22 1
  18    9   10 1
  19    9   23 1
  20    9   24 1
  21   10   11 1
  22   10   25 1
  23   10   26 1
  24   11   12 1
  25   11   27 1
  26   11   28 1
  27   12   13 1
  28   12   16 1
  29   12   29 1
  30   13   14 1
  31   13   30 1
  32   13   31 1
  33   14   15 1
  34   14   32 1
  35   14   33 1
  36   15   34 1
  37   15   35 1
  38   16   36 1

#	End of record

