#	Name: ASD01910095
#	Creating user name:	WinNT
#	Creation time:	15. 06. 2019 19:55

#	Modifying user name:	WinNT
#	Modification time:	15. 06. 2019 19:55

#	Program:	/corina/corina34_cracker 3.40 0067  02.08.2006

@<TRIPOS>MOLECULE
ASD01910095
  31   32    0    0    0
SMALL
NO_CHARGES


@<TRIPOS>ATOM
   1 N1            -0.0160     1.3251     0.0093 N.ar    
   2 C2             0.0021    -0.0041     0.0020 C.ar    
   3 C3            -1.2305    -0.7330     0.0099 C.1     
   4 C4            -2.2410    -1.3307     0.0163 C.1     
   5 C5            -3.4735    -2.0596     0.0242 C.ar    
   6 C6            -3.4626    -3.4574     0.0166 C.ar    
   7 C7            -4.6923    -1.3771     0.0453 C.ar    
   8 C8            -5.8773    -2.0875     0.0533 C.ar    
   9 C9            -5.8573    -3.4731     0.0403 C.ar    
  10 C10           -4.6527    -4.1539     0.0247 C.ar    
  11 F11           -7.0574    -1.4302     0.0741 F       
  12 C12            1.2232    -0.6972    -0.0138 C.ar    
  13 C13            2.4084     0.0302    -0.0212 C.ar    
  14 C14            2.3343     1.4148    -0.0126 C.ar    
  15 C15            1.0955     2.0313     0.0025 C.ar    
  16 C16            3.7426    -0.6702    -0.0377 C.3     
  17 C17            1.0171     3.5363     0.0118 C.3     
  18 N18            1.2470    -2.0906    -0.0215 N.pl3   
  19 H19           -2.5237    -3.9910     0.0040 H       
  20 H20           -4.7082    -0.2972     0.0558 H       
  21 H21           -6.7861    -4.0242     0.0469 H       
  22 H22           -4.6447    -5.2338     0.0146 H       
  23 H23            3.2369     2.0078    -0.0177 H       
  24 H24            4.0544    -0.8336    -1.0693 H       
  25 H25            4.4829    -0.0539     0.4724 H       
  26 H26            3.6555    -1.6298     0.4718 H       
  27 H27            0.9885     3.9050    -1.0135 H       
  28 H28            0.1142     3.8498     0.5360 H       
  29 H29            1.8917     3.9425     0.5198 H       
  30 H30            0.4154    -2.5899    -0.0160 H       
  31 H31            2.0951    -2.5611    -0.0325 H       
@<TRIPOS>BOND
   1    1    2 ar
   2    1   15 ar
   3    2    3 1
   4    2   12 ar
   5    3    4 3
   6    4    5 1
   7    5    6 ar
   8    5    7 ar
   9    6   10 ar
  10    6   19 1
  11    7    8 ar
  12    7   20 1
  13    8    9 ar
  14    8   11 1
  15    9   10 ar
  16    9   21 1
  17   10   22 1
  18   12   13 ar
  19   12   18 1
  20   13   14 ar
  21   13   16 1
  22   14   15 ar
  23   14   23 1
  24   15   17 1
  25   16   24 1
  26   16   25 1
  27   16   26 1
  28   17   27 1
  29   17   28 1
  30   17   29 1
  31   18   30 1
  32   18   31 1

#	End of record

