#	Name: ASD05250096
#	Creating user name:	WinNT
#	Creation time:	15. 06. 2019 20:58

#	Modifying user name:	WinNT
#	Modification time:	15. 06. 2019 20:58

#	Program:	/corina/corina34_cracker 3.40 0067  02.08.2006

@<TRIPOS>MOLECULE
ASD05250096
  46   47    0    0    0
SMALL
NO_CHARGES


@<TRIPOS>ATOM
   1 C1             1.0735    -0.4433     0.7553 C.ar    
   2 C2             0.0097    -0.0168    -0.0164 C.ar    
   3 C3             0.1284     1.1269    -0.7938 C.ar    
   4 C4             1.3155     1.8420    -0.7960 C.ar    
   5 C5             2.3831     1.4121    -0.0202 C.ar    
   6 C6             2.2586     0.2670     0.7558 C.ar    
   7 O7            -0.9186     1.5450    -1.5527 O.3     
   8 C8            -2.1110     0.7591    -1.5022 C.3     
   9 N9             3.5834     2.1312    -0.0202 N.am    
  10 C10            3.5636     3.4755    -0.1145 C.2     
  11 O11            2.5123     4.0561    -0.2843 O.2     
  12 C12            4.8476     4.2573    -0.0089 C.3     
  13 O13            4.5678     5.6526    -0.1389 O.3     
  14 C14            5.6252     6.5033    -0.0662 C.ar    
  15 C15            5.4259     7.8711    -0.1843 C.ar    
  16 C16            6.5024     8.7337    -0.1100 C.ar    
  17 C17            7.7775     8.2349     0.0819 C.ar    
  18 C18            7.9788     6.8720     0.1995 C.ar    
  19 C19            6.9049     6.0057     0.1321 C.ar    
  20 C20            8.9500     9.1782     0.1626 C.3     
  21 C21            8.7493    10.1423     1.3335 C.3     
  22 C22           10.2356     8.3767     0.3765 C.3     
  23 C23            9.0555     9.9732    -1.1404 C.3     
  24 H24            0.9769    -1.3311     1.3627 H       
  25 H25           -0.9153    -0.5743    -0.0150 H       
  26 H26            1.4099     2.7320    -1.4006 H       
  27 H27            3.0886    -0.0685     1.3598 H       
  28 H28           -2.8659     1.2021    -2.1519 H       
  29 H29           -1.8925    -0.2547    -1.8376 H       
  30 H30           -2.4843     0.7306    -0.4785 H       
  31 H31            4.4298     1.6622     0.0477 H       
  32 H32            5.3096     4.0681     0.9600 H       
  33 H33            5.5278     3.9476    -0.8024 H       
  34 H34            4.4301     8.2612    -0.3346 H       
  35 H35            6.3478     9.7986    -0.2023 H       
  36 H36            8.9759     6.4848     0.3487 H       
  37 H37            7.0627     4.9412     0.2240 H       
  38 H38            8.6741     9.5759     2.2617 H       
  39 H39            9.5974    10.8246     1.3918 H       
  40 H40            7.8334    10.7133     1.1811 H       
  41 H41           10.3786     7.6899    -0.4577 H       
  42 H42           11.0837     9.0590     0.4348 H       
  43 H43           10.1605     7.8103     1.3047 H       
  44 H44            8.1396    10.5442    -1.2928 H       
  45 H45            9.9036    10.6555    -1.0820 H       
  46 H46            9.1985     9.2864    -1.9746 H       
@<TRIPOS>BOND
   1    1    2 ar
   2    1    6 ar
   3    1   24 1
   4    2    3 ar
   5    2   25 1
   6    3    4 ar
   7    3    7 1
   8    4    5 ar
   9    4   26 1
  10    5    6 ar
  11    5    9 1
  12    6   27 1
  13    7    8 1
  14    8   28 1
  15    8   29 1
  16    8   30 1
  17    9   10 am
  18    9   31 1
  19   10   11 2
  20   10   12 1
  21   12   13 1
  22   12   32 1
  23   12   33 1
  24   13   14 1
  25   14   15 ar
  26   14   19 ar
  27   15   16 ar
  28   15   34 1
  29   16   17 ar
  30   16   35 1
  31   17   18 ar
  32   17   20 1
  33   18   19 ar
  34   18   36 1
  35   19   37 1
  36   20   21 1
  37   20   22 1
  38   20   23 1
  39   21   38 1
  40   21   39 1
  41   21   40 1
  42   22   41 1
  43   22   42 1
  44   22   43 1
  45   23   44 1
  46   23   45 1
  47   23   46 1

#	End of record

