#	Name: ASD08178045
#	Creating user name:	WinNT
#	Creation time:	15. 06. 2019 21:18

#	Modifying user name:	WinNT
#	Modification time:	15. 06. 2019 21:18

#	Program:	/corina/corina34_cracker 3.40 0067  02.08.2006

@<TRIPOS>MOLECULE
ASD08178045
  65   70    0    0    0
SMALL
NO_CHARGES


@<TRIPOS>ATOM
   1 N1            -0.0155     1.2947     0.0092 N.2     
   2 C2             0.0021    -0.0041     0.0020 C.2     
   3 N3            -1.1168    -0.8300     0.0076 N.am    
   4 N4             1.0945     1.8960     0.0018 N.2     
   5 C5             2.1557     1.1534    -0.0123 C.2     
   6 S6             1.6320    -0.5310    -0.0164 S.3     
   7 C7             3.5816     1.6410    -0.0241 C.3     
   8 C8             4.0787     1.7984     1.4143 C.3     
   9 C9             6.1989     2.5079     3.1644 C.3     
  10 C10            7.6391     2.9988     3.3250 C.3     
  11 C11            7.9746     3.1008     4.7906 C.2     
  12 N12            8.4834     2.1629     5.5249 N.2     
  13 N13            8.6933     2.4459     6.7372 N.2     
  14 C14            8.3839     3.6414     7.1397 C.2     
  15 S15            7.7520     4.5212     5.8126 S.3     
  16 N16            8.5433     4.1281     8.4328 N.am    
  17 C17            9.0592     3.3348     9.3925 C.2     
  18 O18            9.3844     2.1966     9.1285 O.2     
  19 C19            9.2319     3.8621    10.7936 C.3     
  20 C20           -2.3521    -0.2911     0.0220 C.2     
  21 O21           -2.4879     0.9140     0.0301 O.2     
  22 C22           -3.5646    -1.1861     0.0280 C.3     
  23 S23            5.7950     2.3852     1.4002 S.3     
  24 O24            9.6839     2.8100    11.6532 O.3     
  25 C25           10.1684     3.1800    12.8701 C.ar    
  26 C26           10.5466     4.4946    13.1154 C.ar    
  27 O27           10.4363     5.4436    12.1460 O.3     
  28 C28           10.2881     4.9755    10.8011 C.3     
  29 C29           10.2846     2.2301    13.8742 C.ar    
  30 C30           10.7767     2.5901    15.1143 C.ar    
  31 C31           11.1547     3.8975    15.3577 C.ar    
  32 C32           11.0413     4.8489    14.3618 C.ar    
  33 C33           -3.6064    -1.9922     1.3333 C.3     
  34 O34           -4.7745    -2.8199     1.3115 O.3     
  35 C35           -5.9373    -2.2269     0.9258 C.ar    
  36 C36           -5.9262    -1.0149     0.2459 C.ar    
  37 O37           -4.7525    -0.3903    -0.0454 O.3     
  38 C38           -7.1452    -2.8436     1.2166 C.ar    
  39 C39           -8.3340    -2.2547     0.8297 C.ar    
  40 C40           -8.3229    -1.0503     0.1510 C.ar    
  41 C41           -7.1229    -0.4300    -0.1408 C.ar    
  42 H42           -1.0082    -1.7939     0.0010 H       
  43 H43            4.2081     0.9191    -0.5480 H       
  44 H44            3.6324     2.6033    -0.5334 H       
  45 H45            3.4522     2.5202     1.9383 H       
  46 H46            4.0279     0.8360     1.9237 H       
  47 H47            6.0951     1.5278     3.6299 H       
  48 H48            5.5194     3.2120     3.6446 H       
  49 H49            8.3186     2.2947     2.8448 H       
  50 H50            7.7429     3.9790     2.8595 H       
  51 H51            8.2832     5.0384     8.6439 H       
  52 H52            8.2823     4.2529    11.1590 H       
  53 H53           -3.5237    -1.8661    -0.8229 H       
  54 H54           11.2392     4.5824    10.4418 H       
  55 H55            9.9629     5.7951    10.1603 H       
  56 H56            9.9899     1.2082    13.6866 H       
  57 H57           10.8658     1.8490    15.8948 H       
  58 H58           11.5390     4.1758    16.3279 H       
  59 H59           11.3374     5.8695    14.5545 H       
  60 H60           -2.7155    -2.6156     1.4091 H       
  61 H61           -3.6534    -1.3123     2.1839 H       
  62 H62           -7.1566    -3.7847     1.7462 H       
  63 H63           -9.2734    -2.7364     1.0576 H       
  64 H64           -9.2535    -0.5933    -0.1514 H       
  65 H65           -7.1170     0.5109    -0.6709 H       
@<TRIPOS>BOND
   1    1    2 2
   2    1    4 1
   3    2    3 1
   4    2    6 1
   5    3   20 am
   6    3   42 1
   7    4    5 2
   8    5    6 1
   9    5    7 1
  10    7    8 1
  11    7   43 1
  12    7   44 1
  13    8   23 1
  14    8   45 1
  15    8   46 1
  16    9   10 1
  17    9   23 1
  18    9   47 1
  19    9   48 1
  20   10   11 1
  21   10   49 1
  22   10   50 1
  23   11   12 2
  24   11   15 1
  25   12   13 1
  26   13   14 2
  27   14   15 1
  28   14   16 1
  29   16   17 am
  30   16   51 1
  31   17   18 2
  32   17   19 1
  33   19   24 1
  34   19   28 1
  35   19   52 1
  36   20   21 2
  37   20   22 1
  38   22   33 1
  39   22   37 1
  40   22   53 1
  41   24   25 1
  42   25   26 ar
  43   25   29 ar
  44   26   27 1
  45   26   32 ar
  46   27   28 1
  47   28   54 1
  48   28   55 1
  49   29   30 ar
  50   29   56 1
  51   30   31 ar
  52   30   57 1
  53   31   32 ar
  54   31   58 1
  55   32   59 1
  56   33   34 1
  57   33   60 1
  58   33   61 1
  59   34   35 1
  60   35   36 ar
  61   35   38 ar
  62   36   37 1
  63   36   41 ar
  64   38   39 ar
  65   38   62 1
  66   39   40 ar
  67   39   63 1
  68   40   41 ar
  69   40   64 1
  70   41   65 1

#	End of record

