#	Name: ASD04881177
#	Creating user name:	WinNT
#	Creation time:	15. 06. 2019 20:53

#	Modifying user name:	WinNT
#	Modification time:	15. 06. 2019 20:53

#	Program:	/corina/corina34_cracker 3.40 0067  02.08.2006

@<TRIPOS>MOLECULE
ASD04881177
  77   81    0    0    0
SMALL
NO_CHARGES


@<TRIPOS>ATOM
   1 C1             0.4757     1.0525    -0.4791 C.2     
   2 C2             1.7500     1.6153    -0.7280 C.2     
   3 C3             2.1739     2.9978    -0.4281 C.2     
   4 O4             1.3924     3.7758     0.0841 O.2     
   5 N5             2.4866     0.6708    -1.2784 N.2     
   6 N6             1.8027    -0.4105    -1.3943 N.pl3   
   7 C7             0.5537    -0.2267    -0.9149 C.2     
   8 C8             2.3052    -1.6626    -1.9651 C.3     
   9 N9             3.4271     3.3972    -0.7222 N.am    
  10 C10            3.7968     4.7362    -0.5394 C.ar    
  11 C11            5.1042     5.0557    -0.1611 C.ar    
  12 C12            5.4722     6.3835     0.0206 C.ar    
  13 C13            4.5506     7.3893    -0.1711 C.ar    
  14 C14            3.2422     7.0770    -0.5492 C.ar    
  15 C15            2.8709     5.7424    -0.7382 C.ar    
  16 C16            2.2555     8.1543    -0.7544 C.2     
  17 O17            1.1171     7.8816    -1.0834 O.2     
  18 N18            2.6158     9.4409    -0.5772 N.am    
  19 C19            1.6359    10.5107    -0.7809 C.3     
  20 C20            2.2972    11.8650    -0.5171 C.3     
  21 N21            6.0388     4.0422     0.0342 N.3     
  22 C22            5.6823     3.2134     1.1942 C.3     
  23 C23            6.6873     2.0668     1.3268 C.3     
  24 N24            8.0408     2.6198     1.4744 N.3     
  25 C25            8.3974     3.4486     0.3144 C.3     
  26 C26            7.3923     4.5952     0.1818 C.3     
  27 C27            8.9783     1.6032     1.6703 C.ar    
  28 C28            8.9526     0.8476     2.8359 C.ar    
  29 C29            9.8806    -0.1570     3.0262 C.ar    
  30 C30           10.8353    -0.4112     2.0582 C.ar    
  31 C31           10.8637     0.3389     0.8971 C.ar    
  32 C32            9.9348     1.3415     0.6978 C.ar    
  33 C33            7.9134     1.1244     3.8916 C.3     
  34 C34            1.2739    12.9823    -0.7299 C.3     
  35 N35            1.9070    14.2790    -0.4772 N.am    
  36 C36            2.5850    15.0830    -1.5008 C.3     
  37 C37            3.4469    16.1009    -0.7214 C.3     
  38 C38            2.6824    16.2004     0.6189 C.3     
  39 C39            1.9366    14.8880     0.7208 C.2     
  40 O40            1.4400    14.4481     1.7361 O.2     
  41 H41           -0.3780     1.5397    -0.0315 H       
  42 H42           -0.2358    -0.9630    -0.8849 H       
  43 H43            2.7437    -2.2720    -1.1749 H       
  44 H44            1.4823    -2.2064    -2.4291 H       
  45 H45            3.0634    -1.4410    -2.7162 H       
  46 H46            4.0732     2.7575    -1.0604 H       
  47 H47            6.4828     6.6273     0.3132 H       
  48 H48            4.8396     8.4202    -0.0287 H       
  49 H49            1.8616     5.4982    -1.0348 H       
  50 H50            3.5239     9.6585    -0.3147 H       
  51 H51            1.2710    10.4785    -1.8075 H       
  52 H52            0.8008    10.3742    -0.0940 H       
  53 H53            2.6621    11.8972     0.5095 H       
  54 H54            3.1324    12.0015    -1.2040 H       
  55 H55            5.7049     3.8231     2.0975 H       
  56 H56            4.6811     2.8052     1.0556 H       
  57 H57            6.4418     1.4675     2.2036 H       
  58 H58            6.6453     1.4414     0.4351 H       
  59 H59            9.3985     3.8568     0.4530 H       
  60 H60            8.3747     2.8389    -0.5889 H       
  61 H61            7.6379     5.1945    -0.6950 H       
  62 H62            7.4344     5.2206     1.0735 H       
  63 H63            9.8612    -0.7448     3.9321 H       
  64 H64           11.5604    -1.1971     2.2099 H       
  65 H65           11.6105     0.1379     0.1432 H       
  66 H66            9.9548     1.9241    -0.2114 H       
  67 H67            7.0578     0.4662     3.7406 H       
  68 H68            8.3407     0.9444     4.8781 H       
  69 H69            7.5901     2.1629     3.8197 H       
  70 H70            0.9089    12.9501    -1.7565 H       
  71 H71            0.4387    12.8458    -0.0429 H       
  72 H72            3.2187    14.4484    -2.1203 H       
  73 H73            1.8526    15.6033    -2.1181 H       
  74 H74            4.4565    15.7201    -0.5673 H       
  75 H75            3.4685    17.0645    -1.2306 H       
  76 H76            3.3803    16.3112     1.4489 H       
  77 H77            1.9796    17.0333     0.5964 H       
@<TRIPOS>BOND
   1    1    7 2
   2    1    2 1
   3    1   41 1
   4    2    3 1
   5    2    5 2
   6    3    4 2
   7    3    9 am
   8    5    6 1
   9    6    7 1
  10    6    8 1
  11    7   42 1
  12    8   43 1
  13    8   44 1
  14    8   45 1
  15    9   10 1
  16    9   46 1
  17   10   11 ar
  18   10   15 ar
  19   11   12 ar
  20   11   21 1
  21   12   13 ar
  22   12   47 1
  23   13   14 ar
  24   13   48 1
  25   14   15 ar
  26   14   16 1
  27   15   49 1
  28   16   17 2
  29   16   18 am
  30   18   19 1
  31   18   50 1
  32   19   20 1
  33   19   51 1
  34   19   52 1
  35   20   34 1
  36   20   53 1
  37   20   54 1
  38   21   22 1
  39   21   26 1
  40   22   23 1
  41   22   55 1
  42   22   56 1
  43   23   24 1
  44   23   57 1
  45   23   58 1
  46   24   25 1
  47   24   27 1
  48   25   26 1
  49   25   59 1
  50   25   60 1
  51   26   61 1
  52   26   62 1
  53   27   28 ar
  54   27   32 ar
  55   28   29 ar
  56   28   33 1
  57   29   30 ar
  58   29   63 1
  59   30   31 ar
  60   30   64 1
  61   31   32 ar
  62   31   65 1
  63   32   66 1
  64   33   67 1
  65   33   68 1
  66   33   69 1
  67   34   35 1
  68   34   70 1
  69   34   71 1
  70   35   36 1
  71   35   39 am
  72   36   37 1
  73   36   72 1
  74   36   73 1
  75   37   38 1
  76   37   74 1
  77   37   75 1
  78   38   39 1
  79   38   76 1
  80   38   77 1
  81   39   40 2

#	End of record

