#	Name: ASD01903252
#	Creating user name:	WinNT
#	Creation time:	15. 06. 2019 19:54

#	Modifying user name:	WinNT
#	Modification time:	15. 06. 2019 19:54

#	Program:	/corina/corina34_cracker 3.40 0067  02.08.2006

@<TRIPOS>MOLECULE
ASD01903252
  40   43    0    0    0
SMALL
NO_CHARGES


@<TRIPOS>ATOM
   1 S1            -0.0211     1.7049     0.0114 S.3     
   2 C2             0.0021    -0.0041     0.0020 C.2     
   3 N3             1.2222    -0.4388    -0.0120 N.2     
   4 C4             2.1846     0.4750    -0.0162 C.2     
   5 C5             1.7398     1.7440    -0.0052 C.2     
   6 N6            -1.1265    -0.8116     0.0089 N.pl3   
   7 C7            -2.3885    -0.2387     0.0239 C.ar    
   8 C8             3.6281     0.1262    -0.0319 C.2     
   9 C9             4.1723    -1.1782    -0.0446 C.2     
  10 N10            5.4789    -1.0714    -0.0568 N.2     
  11 N11            5.8131     0.2882    -0.0524 N.pl3   
  12 C12            4.6695     1.0058    -0.0426 C.2     
  13 N13           -3.4551    -1.0243     0.0303 N.ar    
  14 C14           -4.6738    -0.5098     0.0447 C.ar    
  15 C15           -4.8260     0.8677     0.0531 C.ar    
  16 C16           -3.6885     1.6602     0.0460 C.ar    
  17 N17           -2.4992     1.0816     0.0371 N.ar    
  18 N18            3.4448    -2.3729    -0.0435 N.3     
  19 C19           -5.8818    -1.4107     0.0513 C.3     
  20 C20            4.3456    -3.5401    -0.0592 C.3     
  21 C21            3.9978    -4.4025     1.1724 C.3     
  22 C22            2.5440    -3.9722     1.5011 C.3     
  23 C23            2.5772    -2.4638     1.1501 C.3     
  24 H24            2.3548     2.6318    -0.0066 H       
  25 H25           -1.0321    -1.7770     0.0031 H       
  26 H26            6.7121     0.6522    -0.0592 H       
  27 H27            4.5935     2.0831    -0.0372 H       
  28 H28           -5.8094     1.3141     0.0645 H       
  29 H29           -3.7724     2.7369     0.0519 H       
  30 H30           -6.1633    -1.6334     1.0805 H       
  31 H31           -6.7100    -0.9117    -0.4520 H       
  32 H32           -5.6460    -2.3386    -0.4697 H       
  33 H33            4.1900    -4.1163    -0.9712 H       
  34 H34            5.3824    -3.2091     0.0007 H       
  35 H35            4.0390    -5.4631     0.9242 H       
  36 H36            4.6647    -4.1739     2.0037 H       
  37 H37            1.8282    -4.5034     0.8737 H       
  38 H38            2.3217    -4.1224     2.5576 H       
  39 H39            3.0040    -1.8918     1.9740 H       
  40 H40            1.5740    -2.1059     0.9183 H       
@<TRIPOS>BOND
   1    1    2 1
   2    1    5 1
   3    2    3 2
   4    2    6 1
   5    3    4 1
   6    4    5 2
   7    4    8 1
   8    5   24 1
   9    6    7 1
  10    6   25 1
  11    7   13 ar
  12    7   17 ar
  13    8    9 1
  14    8   12 2
  15    9   10 2
  16    9   18 1
  17   10   11 1
  18   11   12 1
  19   11   26 1
  20   12   27 1
  21   13   14 ar
  22   14   15 ar
  23   14   19 1
  24   15   16 ar
  25   15   28 1
  26   16   17 ar
  27   16   29 1
  28   18   20 1
  29   18   23 1
  30   19   30 1
  31   19   31 1
  32   19   32 1
  33   20   21 1
  34   20   33 1
  35   20   34 1
  36   21   22 1
  37   21   35 1
  38   21   36 1
  39   22   23 1
  40   22   37 1
  41   22   38 1
  42   23   39 1
  43   23   40 1

#	End of record

