#	Name: ASD01914195
#	Creating user name:	WinNT
#	Creation time:	15. 06. 2019 20:03

#	Modifying user name:	WinNT
#	Modification time:	15. 06. 2019 20:03

#	Program:	/corina/corina34_cracker 3.40 0067  02.08.2006

@<TRIPOS>MOLECULE
ASD01914195
  37   38    0    0    0
SMALL
NO_CHARGES


@<TRIPOS>ATOM
   1 C1            -0.0167     1.3782     0.0096 C.ar    
   2 C2             0.0021    -0.0041     0.0020 C.ar    
   3 C3             1.2078    -0.6792    -0.0131 C.ar    
   4 C4             2.3973     0.0293    -0.0206 C.ar    
   5 C5             2.3773     1.4137    -0.0130 C.ar    
   6 C6             1.1704     2.0867     0.0021 C.ar    
   7 S7            -1.5548     2.2377     0.0216 S.o2    
   8 O8            -1.2980     3.5273    -0.5171 O.2     
   9 O9            -2.5173     1.3454    -0.5232 O.2     
  10 N10           -1.9752     2.4682     1.6066 N.am    
  11 C11           -1.5423     3.6777     2.3108 C.3     
  12 C12           -2.6501     4.7309     2.2440 C.3     
  13 C13           -2.2151     5.9462     2.9516 C.1     
  14 C14           -1.8682     6.9154     3.5159 C.1     
  15 C15           -1.4450     8.0977     4.2043 C.ar    
  16 C16           -2.2974     9.2002     4.2751 C.ar    
  17 C17           -1.8740    10.3349     4.9437 C.ar    
  18 C18           -0.6115    10.3321     5.5207 C.ar    
  19 C19            0.1818     9.2048     5.4125 C.ar    
  20 N20           -0.2465     8.1344     4.7750 N.ar    
  21 C21           -2.7801     1.4626     2.3046 C.3     
  22 F22            3.5766    -0.6297    -0.0350 F       
  23 H23           -0.9259    -0.5565     0.0083 H       
  24 H24            1.2222    -1.7591    -0.0187 H       
  25 H25            3.3046     1.9675    -0.0189 H       
  26 H26            1.1545     3.1666     0.0080 H       
  27 H27           -1.3330     3.4361     3.3529 H       
  28 H28           -0.6402     4.0689     1.8403 H       
  29 H29           -2.8594     4.9725     1.2019 H       
  30 H30           -3.5522     4.3397     2.7145 H       
  31 H31           -3.2736     9.1682     3.8142 H       
  32 H32           -2.5114    11.2039     5.0148 H       
  33 H33           -0.2519    11.2027     6.0491 H       
  34 H34            1.1646     9.2003     5.8603 H       
  35 H35           -2.1214     0.7328     2.7753 H       
  36 H36           -3.3875     1.9492     3.0678 H       
  37 H37           -3.4303     0.9577     1.5902 H       
@<TRIPOS>BOND
   1    1    2 ar
   2    1    6 ar
   3    1    7 1
   4    2    3 ar
   5    2   23 1
   6    3    4 ar
   7    3   24 1
   8    4    5 ar
   9    4   22 1
  10    5    6 ar
  11    5   25 1
  12    6   26 1
  13    7    8 2
  14    7    9 2
  15    7   10 am
  16   10   11 1
  17   10   21 1
  18   11   12 1
  19   11   27 1
  20   11   28 1
  21   12   13 1
  22   12   29 1
  23   12   30 1
  24   13   14 3
  25   14   15 1
  26   15   16 ar
  27   15   20 ar
  28   16   17 ar
  29   16   31 1
  30   17   18 ar
  31   17   32 1
  32   18   19 ar
  33   18   33 1
  34   19   20 ar
  35   19   34 1
  36   21   35 1
  37   21   36 1
  38   21   37 1

#	End of record

