#	Name: ASD01911793
#	Creating user name:	WinNT
#	Creation time:	15. 06. 2019 19:58

#	Modifying user name:	WinNT
#	Modification time:	15. 06. 2019 19:58

#	Program:	/corina/corina34_cracker 3.40 0067  02.08.2006

@<TRIPOS>MOLECULE
ASD01911793
  49   52    0    0    0
SMALL
NO_CHARGES


@<TRIPOS>ATOM
   1 C1            -0.3426     1.5353     0.0180 C.2     
   2 N2            -0.2676     0.1866     0.3450 N.pl3   
   3 C3             0.7222     2.3853     0.4104 C.2     
   4 C4             1.7655     1.8448     1.0868 C.2     
   5 N5             1.7877     0.5357     1.3770 N.2     
   6 C6             0.8277    -0.2700     1.0316 C.2     
   7 C7            -1.3815    -0.4377    -0.1223 C.2     
   8 C8            -2.1785     0.5110    -0.7533 C.2     
   9 C9            -1.5032     1.7545    -0.6595 C.2     
  10 N10           -1.6717    -1.7859     0.0072 N.pl3   
  11 C11           -0.9250    -2.7324    -0.6997 C.ar    
  12 C12           -1.2554    -4.0809    -0.6211 C.ar    
  13 C13            0.1453    -2.3279    -1.4868 C.ar    
  14 C14            0.8814    -3.2661    -2.1843 C.ar    
  15 C15            0.5540    -4.6067    -2.0998 C.ar    
  16 C16           -0.5147    -5.0135    -1.3215 C.ar    
  17 Cl17          -2.5963    -4.5919     0.3559 Cl      
  18 C18            1.3597    -5.6267    -2.8623 C.3     
  19 C19           -3.4741     0.2694    -1.4006 C.2     
  20 N20           -4.1405     1.2897    -1.9763 N.am    
  21 O21           -3.9462    -0.8520    -1.4173 O.2     
  22 O22           -5.3899     1.0567    -2.6006 O.3     
  23 C23           -5.9830     2.2263    -3.1685 C.3     
  24 C24           -7.3213     1.8582    -3.8121 C.3     
  25 O25           -8.2331     1.4250    -2.8006 O.3     
  26 C26           -7.8970     3.0821    -4.5273 C.3     
  27 C27            2.0648    -6.7178    -2.0540 C.3     
  28 C28            0.8332    -7.0629    -2.8937 C.3     
  29 H29            0.7027     3.4392     0.1755 H       
  30 H30            2.5870     2.4748     1.3946 H       
  31 H31            0.8941    -1.3166     1.2898 H       
  32 H32           -1.8485     2.7012    -1.0479 H       
  33 H33           -2.3931    -2.0731     0.5885 H       
  34 H34            0.4017    -1.2810    -1.5539 H       
  35 H35            1.7135    -2.9518    -2.7968 H       
  36 H36           -0.7677    -6.0615    -1.2577 H       
  37 H37            1.8644    -5.2557    -3.7544 H       
  38 H38           -3.7642     2.1836    -1.9630 H       
  39 H39           -6.1476     2.9667    -2.3857 H       
  40 H40           -5.3172     2.6401    -3.9258 H       
  41 H41           -7.1692     1.0545    -4.5325 H       
  42 H42           -8.4156     2.0914    -2.1240 H       
  43 H43           -7.2015     3.4126    -5.2988 H       
  44 H44           -8.8504     2.8199    -4.9859 H       
  45 H45           -8.0491     3.8858    -3.8069 H       
  46 H46            3.0331    -7.0650    -2.4145 H       
  47 H47            1.9458    -6.6979    -0.9707 H       
  48 H48           -0.0960    -7.2700    -2.3628 H       
  49 H49            0.9913    -7.6371    -3.8066 H       
@<TRIPOS>BOND
   1    1    2 1
   2    1    3 1
   3    1    9 2
   4    2    7 1
   5    2    6 1
   6    3    4 2
   7    3   29 1
   8    4    5 1
   9    4   30 1
  10    5    6 2
  11    6   31 1
  12    7    8 2
  13    7   10 1
  14    8    9 1
  15    8   19 1
  16    9   32 1
  17   10   11 1
  18   10   33 1
  19   11   12 ar
  20   11   13 ar
  21   12   17 1
  22   12   16 ar
  23   13   14 ar
  24   13   34 1
  25   14   15 ar
  26   14   35 1
  27   15   16 ar
  28   15   18 1
  29   16   36 1
  30   18   27 1
  31   18   28 1
  32   18   37 1
  33   19   20 am
  34   19   21 2
  35   20   22 1
  36   20   38 1
  37   22   23 1
  38   23   24 1
  39   23   39 1
  40   23   40 1
  41   24   25 1
  42   24   26 1
  43   24   41 1
  44   25   42 1
  45   26   43 1
  46   26   44 1
  47   26   45 1
  48   27   28 1
  49   27   46 1
  50   27   47 1
  51   28   48 1
  52   28   49 1

#	End of record

