#	Name: ASD01850018
#	Creating user name:	WinNT
#	Creation time:	15. 06. 2019 19:38

#	Modifying user name:	WinNT
#	Modification time:	15. 06. 2019 19:38

#	Program:	/corina/corina34_cracker 3.40 0067  02.08.2006

@<TRIPOS>MOLECULE
ASD01850018
  49   53    0    0    0
SMALL
NO_CHARGES


@<TRIPOS>ATOM
   1 F1             0.2211     0.3934     1.0655 F       
   2 C2             0.1122     1.7163     0.8138 C.ar    
   3 C3             1.2453     2.5113     0.7829 C.ar    
   4 C4             1.1327     3.8643     0.5248 C.ar    
   5 C5            -0.1108     4.4240     0.2977 C.ar    
   6 C6            -1.2429     3.6313     0.3287 C.ar    
   7 C7            -1.1322     2.2771     0.5809 C.ar    
   8 C8            -0.2322     5.8996     0.0164 C.3     
   9 N9             0.9608     6.4003    -0.6765 N.am    
  10 C10            1.8740     6.9025     0.3724 C.3     
  11 C11            1.1100     6.7235     1.7067 C.3     
  12 N12           -0.2989     6.6773     1.2783 N.am    
  13 C13           -1.5714     7.0250     1.4718 C.2     
  14 O14           -2.0449     7.3921     2.5294 O.2     
  15 C15           -2.3184     6.8955     0.2020 C.ar    
  16 C16           -1.5025     6.2004    -0.7265 C.ar    
  17 C17           -1.9580     5.9611    -2.0024 C.ar    
  18 C18           -3.2197     6.3887    -2.3797 C.ar    
  19 C19           -4.0274     7.0577    -1.4768 C.ar    
  20 C20           -3.5935     7.3068    -0.1856 C.ar    
  21 C21            1.1808     6.4013    -2.0062 C.2     
  22 O22            0.3870     5.8640    -2.7542 O.2     
  23 C23            2.3855     7.0547    -2.5544 C.ar    
  24 C24            2.5312     7.2098    -3.9354 C.ar    
  25 C25            3.6566     7.8199    -4.4429 C.ar    
  26 C26            4.6468     8.2811    -3.5834 C.ar    
  27 C27            4.5058     8.1283    -2.2091 C.ar    
  28 C28            3.3806     7.5249    -1.6934 C.ar    
  29 O29            5.7545     8.8818    -4.0875 O.3     
  30 C30            6.7326     9.3321    -3.1480 C.3     
  31 F31            7.2008     8.2436    -2.4044 F       
  32 F32            7.8000     9.9226    -3.8331 F       
  33 F33            6.1546    10.2711    -2.2870 F       
  34 H34            2.2168     2.0743     0.9607 H       
  35 H35            2.0164     4.4847     0.5010 H       
  36 H36           -2.2139     4.0698     0.1518 H       
  37 H37           -2.0168     1.6580     0.6051 H       
  38 H38            2.7938     6.3178     0.3831 H       
  39 H39            2.0980     7.9560     0.2045 H       
  40 H40            1.3960     5.7906     2.1925 H       
  41 H41            1.2843     7.5726     2.3676 H       
  42 H42           -1.3309     5.4397    -2.7104 H       
  43 H43           -3.5746     6.1999    -3.3821 H       
  44 H44           -5.0123     7.3847    -1.7758 H       
  45 H45           -4.2339     7.8298     0.5091 H       
  46 H46            1.7624     6.8514    -4.6039 H       
  47 H47            3.7701     7.9399    -5.5102 H       
  48 H48            5.2776     8.4876    -1.5446 H       
  49 H49            3.2716     7.4068    -0.6254 H       
@<TRIPOS>BOND
   1    1    2 1
   2    2    3 ar
   3    2    7 ar
   4    3    4 ar
   5    3   34 1
   6    4    5 ar
   7    4   35 1
   8    5    6 ar
   9    5    8 1
  10    6    7 ar
  11    6   36 1
  12    7   37 1
  13    8    9 1
  14    8   12 1
  15    8   16 1
  16    9   10 1
  17    9   21 am
  18   10   11 1
  19   10   38 1
  20   10   39 1
  21   11   12 1
  22   11   40 1
  23   11   41 1
  24   12   13 am
  25   13   14 2
  26   13   15 1
  27   15   16 ar
  28   15   20 ar
  29   16   17 ar
  30   17   18 ar
  31   17   42 1
  32   18   19 ar
  33   18   43 1
  34   19   20 ar
  35   19   44 1
  36   20   45 1
  37   21   22 2
  38   21   23 1
  39   23   24 ar
  40   23   28 ar
  41   24   25 ar
  42   24   46 1
  43   25   26 ar
  44   25   47 1
  45   26   27 ar
  46   26   29 1
  47   27   28 ar
  48   27   48 1
  49   28   49 1
  50   29   30 1
  51   30   31 1
  52   30   32 1
  53   30   33 1

#	End of record

