#	Name: ASD03731340
#	Creating user name:	WinNT
#	Creation time:	15. 06. 2019 20:45

#	Modifying user name:	WinNT
#	Modification time:	15. 06. 2019 20:45

#	Program:	/corina/corina34_cracker 3.40 0067  02.08.2006

@<TRIPOS>MOLECULE
ASD03731340
  62   69    0    0    0
SMALL
NO_CHARGES


@<TRIPOS>ATOM
   1 C1            -0.0181     1.4736     0.0142 C.2     
   2 C2             0.0015    -0.0044     0.0109 C.ar    
   3 C3             1.2178    -0.6893    -0.0003 C.ar    
   4 C4             1.2291    -2.0688    -0.0028 C.ar    
   5 C5             0.0384    -2.7734     0.0052 C.ar    
   6 C6            -1.1706    -2.1008     0.0163 C.ar    
   7 C7            -1.1960    -0.7215     0.0247 C.ar    
   8 O8             1.0265     2.0954     0.0072 O.2     
   9 N9            -1.1942     2.1319     0.0193 N.am    
  10 C10            0.0585    -4.2803     0.0014 C.3     
  11 O11           -2.0672    -1.5143     6.2880 O.3     
  12 C12           -2.2968    -1.5950     7.7071 C.3     
  13 O13           -2.7956    -2.9322     7.8976 O.3     
  14 C14           -2.2687    -3.6682     6.8751 C.ar    
  15 C15           -1.8219    -2.7958     5.8853 C.ar    
  16 C16           -2.1310    -5.0344     6.7066 C.ar    
  17 C17           -1.5492    -5.5472     5.5512 C.ar    
  18 C18           -1.1142    -4.6661     4.5658 C.ar    
  19 C19           -1.2445    -3.3032     4.7335 C.ar    
  20 O20           -1.3060    -6.8420     5.1983 O.3     
  21 C21           -0.5668    -5.5107     3.4465 C.3     
  22 C22           -1.0924    -6.9146     3.7754 C.3     
  23 N23            0.0762    -4.7719     1.3813 N.am    
  24 C24           -1.0329    -5.0398     2.0990 C.2     
  25 C25            0.9314    -5.4745     3.3842 C.ar    
  26 C26            1.9288    -5.7835     4.2820 C.ar    
  27 C27            3.2563    -5.6434     3.9184 C.ar    
  28 C28            3.5789    -5.1918     2.6516 C.ar    
  29 C29            2.5836    -4.8801     1.7491 C.ar    
  30 C30            1.2446    -5.0185     2.1063 C.ar    
  31 O31           -2.1820    -4.9237     1.7288 O.2     
  32 O32           -1.0676     7.6162     0.6218 O.3     
  33 C33            0.2749     7.7129     1.1330 C.3     
  34 O34            0.5136     6.4179     1.7153 O.3     
  35 C35           -0.2878     5.5545     1.0255 C.ar    
  36 C36           -1.2606     6.2909     0.3527 C.ar    
  37 C37           -0.2671     4.1747     0.9142 C.ar    
  38 C38           -1.2149     3.5273     0.1327 C.ar    
  39 C39           -2.1828     4.2639    -0.5366 C.ar    
  40 C40           -2.2039     5.6414    -0.4264 C.ar    
  41 H41            2.1479    -0.1404    -0.0072 H       
  42 H42            2.1695    -2.5999    -0.0114 H       
  43 H43           -2.0965    -2.6567     0.0221 H       
  44 H44           -2.1404    -0.1976     0.0379 H       
  45 H45           -2.0262     1.6389    -0.0555 H       
  46 H46           -0.8308    -4.6542    -0.5061 H       
  47 H47            0.9490    -4.6305    -0.5206 H       
  48 H48           -1.3651    -1.4523     8.2546 H       
  49 H49           -3.0406    -0.8610     8.0171 H       
  50 H50           -2.4774    -5.7074     7.4770 H       
  51 H51           -0.8956    -2.6301     3.9644 H       
  52 H52           -0.3478    -7.6732     3.5340 H       
  53 H53           -2.0289    -7.1096     3.2528 H       
  54 H54            1.6745    -6.1357     5.2708 H       
  55 H55            4.0387    -5.8865     4.6220 H       
  56 H56            4.6152    -5.0824     2.3678 H       
  57 H57            2.8435    -4.5276     0.7619 H       
  58 H58            0.9798     7.9048     0.3240 H       
  59 H59            0.3404     8.4922     1.8923 H       
  60 H60            0.4864     3.6020     1.4346 H       
  61 H61           -2.9196     3.7600    -1.1445 H       
  62 H62           -2.9579     6.2124    -0.9478 H       
@<TRIPOS>BOND
   1    1    2 1
   2    1    8 2
   3    1    9 am
   4    2    3 ar
   5    2    7 ar
   6    3    4 ar
   7    3   41 1
   8    4    5 ar
   9    4   42 1
  10    5    6 ar
  11    5   10 1
  12    6    7 ar
  13    6   43 1
  14    7   44 1
  15    9   38 1
  16    9   45 1
  17   10   23 1
  18   10   46 1
  19   10   47 1
  20   11   12 1
  21   11   15 1
  22   12   13 1
  23   12   48 1
  24   12   49 1
  25   13   14 1
  26   14   15 ar
  27   14   16 ar
  28   15   19 ar
  29   16   17 ar
  30   16   50 1
  31   17   18 ar
  32   17   20 1
  33   18   19 ar
  34   18   21 1
  35   19   51 1
  36   20   22 1
  37   21   22 1
  38   21   24 1
  39   21   25 1
  40   22   52 1
  41   22   53 1
  42   23   24 am
  43   23   30 1
  44   24   31 2
  45   25   26 ar
  46   25   30 ar
  47   26   27 ar
  48   26   54 1
  49   27   28 ar
  50   27   55 1
  51   28   29 ar
  52   28   56 1
  53   29   30 ar
  54   29   57 1
  55   32   33 1
  56   32   36 1
  57   33   34 1
  58   33   58 1
  59   33   59 1
  60   34   35 1
  61   35   36 ar
  62   35   37 ar
  63   36   40 ar
  64   37   38 ar
  65   37   60 1
  66   38   39 ar
  67   39   40 ar
  68   39   61 1
  69   40   62 1

#	End of record

