#	Name: ASD05490153
#	Creating user name:	WinNT
#	Creation time:	15. 06. 2019 21:01

#	Modifying user name:	WinNT
#	Modification time:	15. 06. 2019 21:01

#	Program:	/corina/corina34_cracker 3.40 0067  02.08.2006

@<TRIPOS>MOLECULE
ASD05490153
  72   77    0    0    0
SMALL
NO_CHARGES


@<TRIPOS>ATOM
   1 N1            -0.0169     1.3914     0.0097 N.am    
   2 N2            -0.6470    -2.2695    -0.0044 N.ar    
   3 C3             0.6180    -2.6638    -0.0186 C.ar    
   4 C4             1.6525    -1.7428    -0.0231 C.ar    
   5 C5             1.3457    -0.3867    -0.0129 C.ar    
   6 C6             0.0021    -0.0041     0.0020 C.ar    
   7 C7            -0.9818    -0.9866     0.0061 C.ar    
   8 O8             0.9044    -3.9908    -0.0285 O.3     
   9 N9            -2.3248    -0.6216     0.0209 N.pl3   
  10 N10            2.0981     0.7777    -0.0138 N.am    
  11 C11            3.5612     0.8514    -0.0278 C.3     
  12 C12            4.0489     0.8847    -1.4534 C.ar    
  13 C13            4.2147     2.0919    -2.1062 C.ar    
  14 C14            4.3413    -0.2962    -2.1214 C.ar    
  15 N15            4.6408     2.1342    -3.3523 N.ar    
  16 C16            4.9264     1.0287    -4.0275 C.ar    
  17 C17            4.7870    -0.2221    -3.4296 C.ar    
  18 C18           -0.2033    -4.8936    -0.0227 C.3     
  19 C19            0.3126    -6.3340    -0.0354 C.3     
  20 C20           -0.8671    -7.3020     0.0965 C.3     
  21 C21           -0.3501    -8.7400     0.0038 C.3     
  22 C22            5.4028     1.1251    -5.4291 C.ar    
  23 O23            0.3403    -8.9176    -1.2348 O.3     
  24 C24            1.4811    -8.0718    -1.3934 C.3     
  25 C25            1.0376    -6.6070    -1.3568 C.3     
  26 C26            5.5495     2.3721    -6.0337 C.ar    
  27 C27            5.7107    -0.0307    -6.1441 C.ar    
  28 C28            6.1539     0.0649    -7.4477 C.ar    
  29 C29            6.2932     1.3050    -8.0443 C.ar    
  30 C30            5.9936     2.4558    -7.3377 C.ar    
  31 C31            6.7781     1.4030    -9.4678 C.3     
  32 N32            5.6278     1.3650   -10.3807 N.3     
  33 C33            6.0355     1.6954   -11.7585 C.3     
  34 C34            5.6139     0.5130   -12.6561 C.3     
  35 C35            4.4870    -0.1656   -11.8336 C.3     
  36 C36            4.9980     0.0274   -10.3841 C.3     
  37 C37            1.2571     1.8298    -0.0001 C.2     
  38 O38            1.5964     2.9985     0.0026 O.2     
  39 H39           -0.8103     1.9494     0.0167 H       
  40 H40            2.6809    -2.0727    -0.0343 H       
  41 H41           -2.5725     0.3162     0.0283 H       
  42 H42           -3.0131    -1.3051     0.0238 H       
  43 H43            3.8844     1.7557     0.4879 H       
  44 H44            3.9739    -0.0220     0.4771 H       
  45 H45            3.9916     3.0128    -1.5880 H       
  46 H46            4.2240    -1.2514    -1.6313 H       
  47 H47            5.0202    -1.1214    -3.9804 H       
  48 H48           -0.8010    -4.7297     0.8739 H       
  49 H49           -0.8181    -4.7201    -0.9060 H       
  50 H50            1.0007    -6.4821     0.7969 H       
  51 H51           -1.3556    -7.1519     1.0593 H       
  52 H52           -1.5803    -7.1188    -0.7072 H       
  53 H53            0.3320    -8.9351     0.8313 H       
  54 H54           -1.1904    -9.4324     0.0541 H       
  55 H55            2.1871    -8.2581    -0.5842 H       
  56 H56            1.9599    -8.2828    -2.3496 H       
  57 H57            0.3629    -6.4097    -2.1899 H       
  58 H58            1.9113    -5.9598    -1.4334 H       
  59 H59            5.3159     3.2713    -5.4829 H       
  60 H60            5.6030    -0.9995    -5.6790 H       
  61 H61            6.3928    -0.8302    -8.0028 H       
  62 H62            6.1041     3.4215    -7.8085 H       
  63 H63            7.3190     2.3395    -9.6037 H       
  64 H64            7.4414     0.5655    -9.6841 H       
  65 H65            5.5339     2.6063   -12.0854 H       
  66 H66            7.1165     1.8282   -11.8036 H       
  67 H67            5.2311     0.8718   -13.6115 H       
  68 H68            6.4476    -0.1729   -12.8067 H       
  69 H69            3.5344     0.3428   -11.9828 H       
  70 H70            4.4060    -1.2240   -12.0814 H       
  71 H71            5.7326    -0.7385   -10.1355 H       
  72 H72            4.1654    -0.0018    -9.6812 H       
@<TRIPOS>BOND
   1    1    6 1
   2    1   37 am
   3    1   39 1
   4    2    3 ar
   5    2    7 ar
   6    3    4 ar
   7    3    8 1
   8    4    5 ar
   9    4   40 1
  10    5    6 ar
  11    5   10 1
  12    6    7 ar
  13    7    9 1
  14    8   18 1
  15    9   41 1
  16    9   42 1
  17   10   11 1
  18   10   37 am
  19   11   12 1
  20   11   43 1
  21   11   44 1
  22   12   13 ar
  23   12   14 ar
  24   13   15 ar
  25   13   45 1
  26   14   17 ar
  27   14   46 1
  28   15   16 ar
  29   16   17 ar
  30   16   22 1
  31   17   47 1
  32   18   19 1
  33   18   48 1
  34   18   49 1
  35   19   20 1
  36   19   25 1
  37   19   50 1
  38   20   21 1
  39   20   51 1
  40   20   52 1
  41   21   23 1
  42   21   53 1
  43   21   54 1
  44   22   26 ar
  45   22   27 ar
  46   23   24 1
  47   24   25 1
  48   24   55 1
  49   24   56 1
  50   25   57 1
  51   25   58 1
  52   26   30 ar
  53   26   59 1
  54   27   28 ar
  55   27   60 1
  56   28   29 ar
  57   28   61 1
  58   29   30 ar
  59   29   31 1
  60   30   62 1
  61   31   32 1
  62   31   63 1
  63   31   64 1
  64   32   33 1
  65   32   36 1
  66   33   34 1
  67   33   65 1
  68   33   66 1
  69   34   35 1
  70   34   67 1
  71   34   68 1
  72   35   36 1
  73   35   69 1
  74   35   70 1
  75   36   71 1
  76   36   72 1
  77   37   38 2

#	End of record

