#	Name: ASD00431134
#	Creating user name:	WinNT
#	Creation time:	15. 06. 2019 18:35

#	Modifying user name:	WinNT
#	Modification time:	15. 06. 2019 18:35

#	Program:	/corina/corina34_cracker 3.40 0067  02.08.2006

@<TRIPOS>MOLECULE
ASD00431134
  51   53    0    0    0
SMALL
NO_CHARGES


@<TRIPOS>ATOM
   1 N1             1.1896     0.1216     1.9690 N.am    
   2 C2             1.1179    -1.1640     2.3672 C.2     
   3 O3             2.0849    -1.6977     2.8757 O.2     
   4 N4            -0.0255    -1.8580     2.2018 N.am    
   5 C5             2.4325     0.8759     2.1488 C.3     
   6 C6             3.3657     0.6107     0.9657 C.3     
   7 O7             1.2220     3.0140     1.4820 O.3     
   8 N8             1.1904     4.1896     1.7627 N.2     
   9 C9             2.0457     4.4778     2.7126 C.2     
  10 C10            2.6919     3.2547     3.0468 C.2     
  11 C11            2.1204     2.3484     2.2220 C.2     
  12 C12            2.2909     5.8101     3.3175 C.ar    
  13 C13            1.5705     6.9197     2.8782 C.ar    
  14 C14            1.8004     8.1566     3.4421 C.ar    
  15 C15            2.7487     8.2977     4.4469 C.ar    
  16 C16            3.4682     7.1940     4.8863 C.ar    
  17 C17            3.2380     5.9535     4.3302 C.ar    
  18 O18            2.9732     9.5174     5.0007 O.3     
  19 C19            4.0859    10.1977     4.6166 C.ar    
  20 C20            4.9215     9.6683     3.6440 C.ar    
  21 C21            6.0519    10.3595     3.2540 C.ar    
  22 C22            6.3517    11.5829     3.8348 C.ar    
  23 C23            5.5163    12.1124     4.8073 C.ar    
  24 C24            4.3828    11.4240     5.1934 C.ar    
  25 O25            7.4648    12.2631     3.4510 O.3     
  26 C26            7.7773    13.4561     4.1730 C.3     
  27 C27            9.2785    13.7339     4.0737 C.3     
  28 C28            7.0005    14.6315     3.5765 C.3     
  29 H29            0.4194     0.5462     1.5598 H       
  30 H30           -0.7969    -1.4321     1.7962 H       
  31 H31           -0.0771    -2.7832     2.4884 H       
  32 H32            2.9182     0.5611     3.0724 H       
  33 H33            4.2905     1.1719     1.0995 H       
  34 H34            3.5915    -0.4544     0.9128 H       
  35 H35            2.8800     0.9255     0.0421 H       
  36 H36            3.4607     3.0889     3.7870 H       
  37 H37            0.8332     6.8106     2.0966 H       
  38 H38            1.2428     9.0167     3.1018 H       
  39 H39            4.2053     7.3065     5.6676 H       
  40 H40            3.7943     5.0947     4.6755 H       
  41 H41            4.6883     8.7156     3.1920 H       
  42 H42            6.7026     9.9472     2.4970 H       
  43 H43            5.7500    13.0648     5.2597 H       
  44 H44            3.7300    11.8384     5.9474 H       
  45 H45            7.4994    13.3307     5.2196 H       
  46 H46            9.5563    13.8593     3.0272 H       
  47 H47            9.5168    14.6439     4.6244 H       
  48 H48            9.8319    12.8966     4.4987 H       
  49 H49            7.2388    15.5414     4.1272 H       
  50 H50            7.2783    14.7569     2.5299 H       
  51 H51            5.9309    14.4335     3.6473 H       
@<TRIPOS>BOND
   1    1    2 am
   2    1    5 1
   3    1   29 1
   4    2    3 2
   5    2    4 am
   6    4   30 1
   7    4   31 1
   8    5    6 1
   9    5   11 1
  10    5   32 1
  11    6   33 1
  12    6   34 1
  13    6   35 1
  14    7    8 1
  15    7   11 1
  16    8    9 2
  17    9   10 1
  18    9   12 1
  19   10   11 2
  20   10   36 1
  21   12   13 ar
  22   12   17 ar
  23   13   14 ar
  24   13   37 1
  25   14   15 ar
  26   14   38 1
  27   15   16 ar
  28   15   18 1
  29   16   17 ar
  30   16   39 1
  31   17   40 1
  32   18   19 1
  33   19   20 ar
  34   19   24 ar
  35   20   21 ar
  36   20   41 1
  37   21   22 ar
  38   21   42 1
  39   22   23 ar
  40   22   25 1
  41   23   24 ar
  42   23   43 1
  43   24   44 1
  44   25   26 1
  45   26   27 1
  46   26   28 1
  47   26   45 1
  48   27   46 1
  49   27   47 1
  50   27   48 1
  51   28   49 1
  52   28   50 1
  53   28   51 1

#	End of record

