#	Name: ASD06170035
#	Creating user name:	WinNT
#	Creation time:	15. 06. 2019 21:05

#	Modifying user name:	WinNT
#	Modification time:	15. 06. 2019 21:05

#	Program:	/corina/corina34_cracker 3.40 0067  02.08.2006

@<TRIPOS>MOLECULE
ASD06170035
  64   68    0    0    0
SMALL
NO_CHARGES


@<TRIPOS>ATOM
   1 N1             0.0284    -1.9555     0.7885 N.pl3   
   2 N2             0.1834    -0.7217     0.1495 N.am    
   3 C3             1.5002    -0.5009    -0.0447 C.2     
   4 C4             2.2057    -1.6684     0.5073 C.2     
   5 C5             1.2340    -2.5170     1.0003 C.2     
   6 C6             3.6569    -1.8878     0.5295 C.2     
   7 O7             4.1111    -2.9049     1.0197 O.2     
   8 N8             4.4864    -0.9630     0.0069 N.am    
   9 O9             2.0052     0.4723    -0.5728 O.2     
  10 C10            1.4812    -3.8470     1.6644 C.3     
  11 C11           -1.2547    -2.5468     1.1758 C.3     
  12 C12           -0.8538     0.1398    -0.2267 C.ar    
  13 C13           -2.0229    -0.3756    -0.7706 C.ar    
  14 C14           -3.0451     0.4762    -1.1410 C.ar    
  15 C15           -2.9045     1.8432    -0.9708 C.ar    
  16 C16           -1.7395     2.3592    -0.4286 C.ar    
  17 C17           -0.7173     1.5105    -0.0511 C.ar    
  18 F18           -3.9052     2.6747    -1.3347 F       
  19 C19            5.8729    -1.1184     0.1269 C.ar    
  20 C20            6.4374    -2.3861     0.0683 C.ar    
  21 C21            7.8061    -2.5385     0.1863 C.ar    
  22 C22            8.6161    -1.4231     0.3635 C.ar    
  23 C23            8.0515    -0.1582     0.4217 C.ar    
  24 C24            6.6841    -0.0049     0.2986 C.ar    
  25 F25            8.3561    -3.7711     0.1300 F       
  26 O26            9.9628    -1.5726     0.4801 O.3     
  27 N27           12.1649    -1.8677    -2.9947 N.ar    
  28 C28           10.8543    -1.8239    -3.0456 C.ar    
  29 C29           10.0795    -1.7249    -1.8970 C.ar    
  30 C30           10.6934    -1.6699    -0.6580 C.ar    
  31 C31           12.1050    -1.7178    -0.6153 C.ar    
  32 C32           12.7983    -1.6674     0.6033 C.ar    
  33 C33           14.1624    -1.7166     0.6069 C.ar    
  34 C34           14.8774    -1.8165    -0.5951 C.ar    
  35 C35           14.2276    -1.8668    -1.7946 C.ar    
  36 C36           12.8242    -1.8191    -1.8310 C.ar    
  37 O37           16.2351    -1.8634    -0.5656 O.3     
  38 C38           16.9082    -1.9651    -1.8221 C.3     
  39 O39           14.8346    -1.6677     1.7879 O.3     
  40 C40           14.0494    -1.5656     2.9775 C.3     
  41 H41            4.1230    -0.1897    -0.4523 H       
  42 H42            1.4840    -4.6345     0.9108 H       
  43 H43            2.4458    -3.8262     2.1716 H       
  44 H44            0.6927    -4.0424     2.3911 H       
  45 H45           -1.6763    -3.0873     0.3282 H       
  46 H46           -1.1013    -3.2360     2.0061 H       
  47 H47           -1.9413    -1.7572     1.4811 H       
  48 H48           -2.1327    -1.4416    -0.9041 H       
  49 H49           -3.9545     0.0758    -1.5641 H       
  50 H50           -1.6318     3.4257    -0.2967 H       
  51 H51            0.1894     1.9130     0.3759 H       
  52 H52            5.8071    -3.2524    -0.0690 H       
  53 H53            8.6815     0.7082     0.5594 H       
  54 H54            6.2456     0.9812     0.3396 H       
  55 H55           10.3645    -1.8657    -4.0073 H       
  56 H56            9.0025    -1.6905    -1.9706 H       
  57 H57           12.2555    -1.5897     1.5337 H       
  58 H58           14.7909    -1.9430    -2.7129 H       
  59 H59           17.9851    -1.9935    -1.6561 H       
  60 H60           16.5946    -2.8774    -2.3294 H       
  61 H61           16.6583    -1.1020    -2.4391 H       
  62 H62           14.7077    -1.5356     3.8458 H       
  63 H63           13.4530    -0.6539     2.9421 H       
  64 H64           13.3888    -2.4293     3.0521 H       
@<TRIPOS>BOND
   1    1    2 1
   2    1    5 1
   3    1   11 1
   4    2    3 am
   5    2   12 1
   6    3    4 1
   7    3    9 2
   8    4    5 2
   9    4    6 1
  10    5   10 1
  11    6    7 2
  12    6    8 am
  13    8   19 1
  14    8   41 1
  15   10   42 1
  16   10   43 1
  17   10   44 1
  18   11   45 1
  19   11   46 1
  20   11   47 1
  21   12   13 ar
  22   12   17 ar
  23   13   14 ar
  24   13   48 1
  25   14   15 ar
  26   14   49 1
  27   15   16 ar
  28   15   18 1
  29   16   17 ar
  30   16   50 1
  31   17   51 1
  32   19   20 ar
  33   19   24 ar
  34   20   21 ar
  35   20   52 1
  36   21   22 ar
  37   21   25 1
  38   22   23 ar
  39   22   26 1
  40   23   24 ar
  41   23   53 1
  42   24   54 1
  43   26   30 1
  44   27   28 ar
  45   27   36 ar
  46   28   29 ar
  47   28   55 1
  48   29   30 ar
  49   29   56 1
  50   30   31 ar
  51   31   32 ar
  52   31   36 ar
  53   32   33 ar
  54   32   57 1
  55   33   34 ar
  56   33   39 1
  57   34   35 ar
  58   34   37 1
  59   35   36 ar
  60   35   58 1
  61   37   38 1
  62   38   59 1
  63   38   60 1
  64   38   61 1
  65   39   40 1
  66   40   62 1
  67   40   63 1
  68   40   64 1

#	End of record

