#	Name: ASD01912357
#	Creating user name:	WinNT
#	Creation time:	15. 06. 2019 19:59

#	Modifying user name:	WinNT
#	Modification time:	15. 06. 2019 19:59

#	Program:	/corina/corina34_cracker 3.40 0067  02.08.2006

@<TRIPOS>MOLECULE
ASD01912357
  47   49    0    0    0
SMALL
NO_CHARGES


@<TRIPOS>ATOM
   1 C1             0.0923     1.6277     1.4092 C.ar    
   2 C2             0.1119     0.2552     1.5808 C.ar    
   3 C3             1.3255    -0.4186     1.5548 C.ar    
   4 C4             2.4831     0.3120     1.3564 C.ar    
   5 C5             2.3912     1.6965     1.1899 C.ar    
   6 N6             1.2074     2.3025     1.2217 N.ar    
   7 C7             3.5796     2.4683     0.9835 C.1     
   8 C8             4.5540     3.1010     0.8143 C.1     
   9 C9             5.7424     3.8727     0.6078 C.2     
  10 N10            5.4040     7.5488    -0.9499 N.am    
  11 C11            6.7044     6.8718    -1.0347 C.3     
  12 C12            6.9040     6.0259     0.2293 C.3     
  13 C13            5.6602     5.1929     0.4486 C.2     
  14 C14            4.3207     5.8955     0.4830 C.3     
  15 C15            4.1859     6.7447    -0.7874 C.3     
  16 C16            5.3297     8.8930    -1.0150 C.2     
  17 C17            4.0106     9.5592    -1.0598 C.ar    
  18 C18            3.7734    10.6971    -0.2869 C.ar    
  19 C19            2.5406    11.3142    -0.3337 C.ar    
  20 C20            1.5401    10.8073    -1.1443 C.ar    
  21 C21            1.7685     9.6796    -1.9124 C.ar    
  22 C22            2.9992     9.0565    -1.8795 C.ar    
  23 O23            6.3473     9.5575    -1.0368 O.2     
  24 C24            2.2826    12.5428     0.5000 C.3     
  25 F25            2.6216    13.6843    -0.2344 F       
  26 F26            0.9280    12.5958     0.8456 F       
  27 F27            3.0588    12.4888     1.6627 F       
  28 C28           -1.2245     2.3602     1.4308 C.3     
  29 H29           -0.8091    -0.2877     1.7342 H       
  30 H30            1.3649    -1.4898     1.6869 H       
  31 H31            3.4440    -0.1803     1.3309 H       
  32 H32            6.7055     3.3845     0.5813 H       
  33 H33            6.7239     6.2266    -1.9130 H       
  34 H34            7.4990     7.6145    -1.1066 H       
  35 H35            7.7660     5.3714     0.1006 H       
  36 H36            7.0638     6.6795     1.0869 H       
  37 H37            3.5197     5.1571     0.5175 H       
  38 H38            4.2660     6.5383     1.3616 H       
  39 H39            3.3224     7.4037    -0.6965 H       
  40 H40            4.0608     6.0922    -1.6515 H       
  41 H41            4.5532    11.0933     0.3466 H       
  42 H42            0.5765    11.2939    -1.1770 H       
  43 H43            0.9833     9.2888    -2.5426 H       
  44 H44            3.1777     8.1788    -2.4830 H       
  45 H45           -1.4539     2.6651     2.4519 H       
  46 H46           -1.1600     3.2425     0.7940 H       
  47 H47           -2.0120     1.7029     1.0623 H       
@<TRIPOS>BOND
   1    1    2 ar
   2    1    6 ar
   3    1   28 1
   4    2    3 ar
   5    2   29 1
   6    3    4 ar
   7    3   30 1
   8    4    5 ar
   9    4   31 1
  10    5    6 ar
  11    5    7 1
  12    7    8 3
  13    8    9 1
  14    9   13 2
  15    9   32 1
  16   10   11 1
  17   10   15 1
  18   10   16 am
  19   11   12 1
  20   11   33 1
  21   11   34 1
  22   12   13 1
  23   12   35 1
  24   12   36 1
  25   13   14 1
  26   14   15 1
  27   14   37 1
  28   14   38 1
  29   15   39 1
  30   15   40 1
  31   16   17 1
  32   16   23 2
  33   17   18 ar
  34   17   22 ar
  35   18   19 ar
  36   18   41 1
  37   19   20 ar
  38   19   24 1
  39   20   21 ar
  40   20   42 1
  41   21   22 ar
  42   21   43 1
  43   22   44 1
  44   24   25 1
  45   24   26 1
  46   24   27 1
  47   28   45 1
  48   28   46 1
  49   28   47 1

#	End of record

