#	Name: ASD01881052
#	Creating user name:	WinNT
#	Creation time:	15. 06. 2019 19:41

#	Modifying user name:	WinNT
#	Modification time:	15. 06. 2019 19:41

#	Program:	/corina/corina34_cracker 3.40 0067  02.08.2006

@<TRIPOS>MOLECULE
ASD01881052
  48   51    0    0    0
SMALL
NO_CHARGES


@<TRIPOS>ATOM
   1 N1            -0.0158     1.3136     0.0093 N.ar    
   2 C2             0.0021    -0.0041     0.0020 C.ar    
   3 N3             1.1320    -0.6826    -0.0120 N.ar    
   4 C4             2.2987    -0.0566    -0.0197 C.ar    
   5 C5             2.3197     1.3309    -0.0129 C.ar    
   6 C6             1.1114     2.0077     0.0022 C.ar    
   7 C7             3.6255     2.0830    -0.0209 C.3     
   8 O8             4.0262     2.3276    -1.3706 O.3     
   9 C9             5.1904     3.0000    -1.5555 C.ar    
  10 C10            5.6390     3.2715    -2.8448 C.ar    
  11 C11            6.8162     3.9519    -3.0316 C.ar    
  12 C12            7.5710     4.3759    -1.9325 C.ar    
  13 C13            7.1162     4.1007    -0.6385 C.ar    
  14 C14            5.9299     3.4213    -0.4577 C.ar    
  15 C15            7.5675     4.3978    -4.2613 C.3     
  16 N16            8.7701     5.0865    -3.7789 N.am    
  17 C17            8.7677     5.0712    -2.4350 C.2     
  18 O18            9.6310     5.5624    -1.7336 O.2     
  19 Br19           3.9139    -1.0397    -0.0392 Br      
  20 Cl20           8.0402     4.6188     0.7368 Cl      
  21 C21            1.0803     3.5144     0.0101 C.3     
  22 C22            1.0561     4.0238    -1.4080 C.ar    
  23 C23           -0.1519     4.2326    -2.0468 C.ar    
  24 C24           -0.1741     4.6998    -3.3476 C.ar    
  25 C25            1.0117     4.9586    -4.0094 C.ar    
  26 C26            2.2196     4.7507    -3.3702 C.ar    
  27 C27            2.2417     4.2876    -2.0679 C.ar    
  28 C28            9.4421     7.1515    -4.9039 C.3     
  29 C29            9.8032     5.6915    -4.6233 C.3     
  30 H30           -0.9342    -0.5424     0.0081 H       
  31 H31            3.5008     3.0330     0.4989 H       
  32 H32            4.3891     1.4906     0.4831 H       
  33 H33            5.0614     2.9467    -3.6976 H       
  34 H34            5.5784     3.2091     0.5412 H       
  35 H35            7.8469     3.5335    -4.8637 H       
  36 H36            6.9540     5.0817    -4.8478 H       
  37 H37            0.1880     3.8566     0.5344 H       
  38 H38            1.9675     3.8935     0.5173 H       
  39 H39           -1.0782     4.0304    -1.5298 H       
  40 H40           -1.1178     4.8623    -3.8470 H       
  41 H41            0.9944     5.3230    -5.0259 H       
  42 H42            3.1460     4.9525    -3.8874 H       
  43 H43            3.1854     4.1251    -1.5685 H       
  44 H44            9.3768     7.6970    -3.9625 H       
  45 H45           10.2107     7.6016    -5.5321 H       
  46 H46            8.4814     7.1960    -5.4170 H       
  47 H47           10.7639     5.6469    -4.1102 H       
  48 H48            9.8685     5.1459    -5.5647 H       
@<TRIPOS>BOND
   1    1    2 ar
   2    1    6 ar
   3    2    3 ar
   4    2   30 1
   5    3    4 ar
   6    4    5 ar
   7    4   19 1
   8    5    6 ar
   9    5    7 1
  10    6   21 1
  11    7    8 1
  12    7   31 1
  13    7   32 1
  14    8    9 1
  15    9   10 ar
  16    9   14 ar
  17   10   11 ar
  18   10   33 1
  19   11   12 ar
  20   11   15 1
  21   12   13 ar
  22   12   17 1
  23   13   14 ar
  24   13   20 1
  25   14   34 1
  26   15   16 1
  27   15   35 1
  28   15   36 1
  29   16   17 am
  30   16   29 1
  31   17   18 2
  32   21   22 1
  33   21   37 1
  34   21   38 1
  35   22   23 ar
  36   22   27 ar
  37   23   24 ar
  38   23   39 1
  39   24   25 ar
  40   24   40 1
  41   25   26 ar
  42   25   41 1
  43   26   27 ar
  44   26   42 1
  45   27   43 1
  46   28   29 1
  47   28   44 1
  48   28   45 1
  49   28   46 1
  50   29   47 1
  51   29   48 1

#	End of record

