#	Name: ASD01200332
#	Creating user name:	WinNT
#	Creation time:	15. 06. 2019 19:09

#	Modifying user name:	WinNT
#	Modification time:	15. 06. 2019 19:09

#	Program:	/corina/corina34_cracker 3.40 0067  02.08.2006

@<TRIPOS>MOLECULE
ASD01200332
  50   52    0    0    0
SMALL
NO_CHARGES


@<TRIPOS>ATOM
   1 C1            -0.0174     1.4604     0.0103 C.3     
   2 N2             0.0028    -0.0044    -0.0028 N.am    
   3 O3             2.3288     1.2072    -0.0235 O.2     
   4 C4             1.3963     1.9824    -0.0042 C.2     
   5 N5             1.6243     3.3107     0.0043 N.am    
   6 O6             1.0802    -0.0204    -1.9483 O.2     
   7 C7             2.9286     3.7934     0.0997 C.ar    
   8 N8             3.9297     2.9465     0.2794 N.ar    
   9 C9            -0.5642    -0.6925     1.0210 C.2     
  10 C10           -0.5584    -2.0459     1.0310 C.2     
  11 C11            0.0377    -2.7511    -0.0240 C.2     
  12 C12            0.6069    -2.0580    -1.0517 C.2     
  13 C13            0.0500    -4.2580    -0.0223 C.3     
  14 C14            0.5786    -0.6531    -1.0328 C.2     
  15 C15           -0.7623     1.9712    -1.2247 C.3     
  16 C16           -2.2298     1.5455    -1.1474 C.3     
  17 C17           -3.0185     2.1572    -2.3185 C.3     
  18 C18           -3.5844     0.9760    -3.1335 C.3     
  19 C19           -3.6359    -0.1944    -2.1202 C.3     
  20 C20           -2.3440     0.0138    -1.2915 C.3     
  21 C21            3.1665     5.1596    -0.0006 C.ar    
  22 C22            4.4658     5.6253     0.0954 C.ar    
  23 C23            5.4868     4.7046     0.2891 C.ar    
  24 C24            5.1785     3.3614     0.3744 C.ar    
  25 C25            6.9172     5.1658     0.3990 C.3     
  26 F26            0.6975    -4.7204    -1.1730 F       
  27 F27            0.7289    -4.7176     1.1114 F       
  28 F28           -1.2650    -4.7350    -0.0037 F       
  29 H29           -0.5241     1.8088     0.9102 H       
  30 H30            0.8808     3.9308    -0.0559 H       
  31 H31           -1.0245    -0.1542     1.8364 H       
  32 H32           -1.0124    -2.5823     1.8511 H       
  33 H33            1.0709    -2.5834    -1.8733 H       
  34 H34           -0.7009     3.0588    -1.2619 H       
  35 H35           -0.3088     1.5507    -2.1223 H       
  36 H36           -2.6616     1.8653    -0.1990 H       
  37 H37           -3.8335     2.7732    -1.9385 H       
  38 H38           -2.3557     2.7574    -2.9419 H       
  39 H39           -4.5848     1.2089    -3.4985 H       
  40 H40           -2.9214     0.7329    -3.9637 H       
  41 H41           -4.5187    -0.1173    -1.4855 H       
  42 H42           -3.6130    -1.1539    -2.6369 H       
  43 H43           -1.4807    -0.3846    -1.8243 H       
  44 H44           -2.4392    -0.4554    -0.3123 H       
  45 H45            2.3481     5.8480    -0.1516 H       
  46 H46            4.6810     6.6810     0.0209 H       
  47 H47            5.9697     2.6411     0.5212 H       
  48 H48            7.1537     5.3709     1.4431 H       
  49 H49            7.5802     4.3868     0.0226 H       
  50 H50            7.0525     6.0735    -0.1892 H       
@<TRIPOS>BOND
   1    1    2 1
   2    1    4 1
   3    1   15 1
   4    1   29 1
   5    2    9 1
   6    2   14 am
   7    3    4 2
   8    4    5 am
   9    5    7 1
  10    5   30 1
  11    6   14 2
  12    7    8 ar
  13    7   21 ar
  14    8   24 ar
  15    9   10 2
  16    9   31 1
  17   10   11 1
  18   10   32 1
  19   11   12 2
  20   11   13 1
  21   12   14 1
  22   12   33 1
  23   13   26 1
  24   13   27 1
  25   13   28 1
  26   15   16 1
  27   15   34 1
  28   15   35 1
  29   16   17 1
  30   16   20 1
  31   16   36 1
  32   17   18 1
  33   17   37 1
  34   17   38 1
  35   18   19 1
  36   18   39 1
  37   18   40 1
  38   19   20 1
  39   19   41 1
  40   19   42 1
  41   20   43 1
  42   20   44 1
  43   21   22 ar
  44   21   45 1
  45   22   23 ar
  46   22   46 1
  47   23   24 ar
  48   23   25 1
  49   24   47 1
  50   25   48 1
  51   25   49 1
  52   25   50 1

#	End of record

