#	Name: ASD01814692
#	Creating user name:	WinNT
#	Creation time:	15. 06. 2019 19:32

#	Modifying user name:	WinNT
#	Modification time:	15. 06. 2019 19:32

#	Program:	/corina/corina34_cracker 3.40 0067  02.08.2006

@<TRIPOS>MOLECULE
ASD01814692
  47   50    0    0    0
SMALL
NO_CHARGES


@<TRIPOS>ATOM
   1 C1             0.2855     1.3209    -0.0093 C.2     
   2 N2            -1.0124     1.7575     0.0620 N.pl3   
   3 N3            -1.8384     0.6291     0.0852 N.2     
   4 C4            -1.0862    -0.4514     0.0309 C.2     
   5 C5             0.2433    -0.0679    -0.0291 C.2     
   6 C6            -1.1562    -1.9586     0.0110 C.3     
   7 N7             0.2164    -2.4683    -0.0650 N.am    
   8 C8             1.1051    -1.3024    -0.0962 C.3     
   9 C9            -1.2766     3.0967     0.0963 C.2     
  10 C10           -0.2440     3.9736     0.0589 C.2     
  11 C11            1.0701     3.4891    -0.0140 C.2     
  12 N12            1.2979     2.1973    -0.0506 N.2     
  13 C13            0.5900    -3.7627    -0.1035 C.2     
  14 C14           -0.4231    -4.8300     0.0496 C.ar    
  15 O15            1.7592    -4.0531    -0.2641 O.2     
  16 C16           -0.3214    -5.7568     1.1043 C.ar    
  17 C17           -1.2817    -6.7561     1.2366 C.ar    
  18 C18           -2.3270    -6.8337     0.3351 C.ar    
  19 C19           -2.4267    -5.9230    -0.7012 C.ar    
  20 C20           -1.4854    -4.9203    -0.8447 C.ar    
  21 C21            0.7986    -5.6697     2.0653 C.2     
  22 C22           -0.5057     5.4573     0.0948 C.3     
  23 C23            2.2251     4.4562    -0.0561 C.3     
  24 C24           -2.6974     3.5930     0.1741 C.3     
  25 O25            0.8726    -6.5367     3.0936 O.3     
  26 O26            1.6520    -4.8166     1.9276 O.2     
  27 C27            1.9996    -6.3923     3.9978 C.3     
  28 H28           -1.6339    -2.3182     0.9223 H       
  29 H29           -1.7222    -2.2906    -0.8594 H       
  30 H30            1.6816    -1.3007    -1.0213 H       
  31 H31            1.7790    -1.3296     0.7601 H       
  32 H32           -1.2098    -7.4708     2.0431 H       
  33 H33           -3.0700    -7.6104     0.4404 H       
  34 H34           -3.2473    -5.9927    -1.3998 H       
  35 H35           -1.5724    -4.2097    -1.6534 H       
  36 H36           -0.5181     5.7991     1.1297 H       
  37 H37            0.2812     5.9783    -0.4506 H       
  38 H38           -1.4695     5.6676    -0.3689 H       
  39 H39            2.5545     4.6731     0.9600 H       
  40 H40            3.0481     4.0150    -0.6184 H       
  41 H41            1.9082     5.3798    -0.5403 H       
  42 H42           -2.9894     3.6964     1.2192 H       
  43 H43           -2.7718     4.5610    -0.3214 H       
  44 H44           -3.3587     2.8805    -0.3191 H       
  45 H45            1.9769    -5.4013     4.4512 H       
  46 H46            1.9385    -7.1505     4.7785 H       
  47 H47            2.9292    -6.5166     3.4424 H       
@<TRIPOS>BOND
   1    1    5 2
   2    1   12 1
   3    1    2 1
   4    2    3 1
   5    2    9 1
   6    3    4 2
   7    4    6 1
   8    4    5 1
   9    5    8 1
  10    6    7 1
  11    6   28 1
  12    6   29 1
  13    7    8 1
  14    7   13 am
  15    8   30 1
  16    8   31 1
  17    9   10 2
  18    9   24 1
  19   10   11 1
  20   10   22 1
  21   11   12 2
  22   11   23 1
  23   13   14 1
  24   13   15 2
  25   14   16 ar
  26   14   20 ar
  27   16   17 ar
  28   16   21 1
  29   17   18 ar
  30   17   32 1
  31   18   19 ar
  32   18   33 1
  33   19   20 ar
  34   19   34 1
  35   20   35 1
  36   21   25 1
  37   21   26 2
  38   22   36 1
  39   22   37 1
  40   22   38 1
  41   23   39 1
  42   23   40 1
  43   23   41 1
  44   24   42 1
  45   24   43 1
  46   24   44 1
  47   25   27 1
  48   27   45 1
  49   27   46 1
  50   27   47 1

#	End of record

