#	Name: ASD01231408
#	Creating user name:	WinNT
#	Creation time:	15. 06. 2019 19:15

#	Modifying user name:	WinNT
#	Modification time:	15. 06. 2019 19:15

#	Program:	/corina/corina34_cracker 3.40 0067  02.08.2006

@<TRIPOS>MOLECULE
ASD01231408
  34   35    0    0    0
SMALL
NO_CHARGES


@<TRIPOS>ATOM
   1 C1            -1.6004     1.7635     0.9186 C.3     
   2 C2            -1.7330     0.2651     1.1980 C.3     
   3 C3            -3.1962    -0.0713     1.4924 C.3     
   4 S4            -1.1771    -0.6719    -0.2524 S.o2    
   5 O5            -2.0666    -0.4766    -1.3431 O.2     
   6 O6             0.2280    -0.5431    -0.4208 O.2     
   7 N7            -1.3938    -2.2578     0.1724 N.am    
   8 C8            -1.5148    -3.4678     2.3304 C.3     
   9 C9            -0.6001    -2.8407     1.2571 C.3     
  10 C10            0.2046    -4.0582     0.7550 C.3     
  11 C11            0.2191    -5.0296     1.9159 C.ar    
  12 C12            1.0322    -6.1229     2.1592 C.ar    
  13 C13            0.8583    -6.8784     3.3081 C.ar    
  14 C14           -0.1340    -6.5360     4.2154 C.ar    
  15 C15           -0.9431    -5.4453     3.9701 C.ar    
  16 C16           -0.7691    -4.6903     2.8215 C.ar    
  17 O17            1.6573    -7.9519     3.5452 O.3     
  18 H18           -1.9344     2.3266     1.7901 H       
  19 H19           -0.5579     2.0032     0.7089 H       
  20 H20           -2.2144     2.0283     0.0578 H       
  21 H21           -1.1190     0.0003     2.0588 H       
  22 H22           -3.3038    -1.1491     1.6144 H       
  23 H23           -3.5072     0.4309     2.4085 H       
  24 H24           -3.8200     0.2647     0.6641 H       
  25 H25           -2.0463    -2.8008    -0.2970 H       
  26 H26           -1.6724    -2.7664     3.1498 H       
  27 H27           -2.4693    -3.7580     1.8912 H       
  28 H28            0.0608    -2.0950     1.6989 H       
  29 H29           -0.2877    -4.5072    -0.1077 H       
  30 H30            1.2212    -3.7601     0.4986 H       
  31 H31            1.8039    -6.3883     1.4518 H       
  32 H32           -0.2732    -7.1221     5.1118 H       
  33 H33           -1.7154    -5.1791     4.6765 H       
  34 H34            2.4600    -7.7426     4.0421 H       
@<TRIPOS>BOND
   1    1    2 1
   2    1   18 1
   3    1   19 1
   4    1   20 1
   5    2    3 1
   6    2    4 1
   7    2   21 1
   8    3   22 1
   9    3   23 1
  10    3   24 1
  11    4    5 2
  12    4    6 2
  13    4    7 am
  14    7    9 1
  15    7   25 1
  16    8    9 1
  17    8   16 1
  18    8   26 1
  19    8   27 1
  20    9   10 1
  21    9   28 1
  22   10   11 1
  23   10   29 1
  24   10   30 1
  25   11   12 ar
  26   11   16 ar
  27   12   13 ar
  28   12   31 1
  29   13   14 ar
  30   13   17 1
  31   14   15 ar
  32   14   32 1
  33   15   16 ar
  34   15   33 1
  35   17   34 1

#	End of record

