#	Name: ASD01320057
#	Creating user name:	WinNT
#	Creation time:	15. 06. 2019 19:15

#	Modifying user name:	WinNT
#	Modification time:	15. 06. 2019 19:15

#	Program:	/corina/corina34_cracker 3.40 0067  02.08.2006

@<TRIPOS>MOLECULE
ASD01320057
 156  162    0    0    0
SMALL
NO_CHARGES


@<TRIPOS>ATOM
   1 C1             3.3113    -2.8106    -4.0278 C.3     
   2 C2             3.1909    -4.3038    -3.7169 C.3     
   3 C3             3.7823    -4.5863    -2.3344 C.3     
   4 C4             3.6619    -6.0795    -2.0236 C.3     
   5 C5             4.2534    -6.3620    -0.6411 C.3     
   6 C6             4.1330    -7.8553    -0.3303 C.3     
   7 C7             4.7244    -8.1377     1.0522 C.3     
   8 C8             4.6040    -9.6310     1.3630 C.3     
   9 C9             5.1955    -9.9135     2.7455 C.3     
  10 C10            5.0751   -11.4067     3.0563 C.3     
  11 C11            5.6665   -11.6892     4.4388 C.3     
  12 C12            5.5461   -13.1824     4.7496 C.3     
  13 C13            6.1376   -13.4649     6.1321 C.3     
  14 C14            6.0172   -14.9582     6.4429 C.3     
  15 C15            6.6086   -15.2406     7.8254 C.3     
  16 C16            6.4900   -16.7114     8.1316 C.2     
  17 O17            5.9843   -17.4572     7.3266 O.2     
  18 O18            6.9462   -17.1930     9.2985 O.3     
  19 C19            6.7988   -18.6195     9.5257 C.3     
  20 C20            7.3632   -18.9739    10.8774 C.2     
  21 N21            7.4061   -20.1899    11.4331 N.2     
  22 N22            7.9592   -20.0994    12.5909 N.2     
  23 N23            8.2869   -18.8782    12.8321 N.pl3   
  24 C24            7.9317   -18.1252    11.7654 C.2     
  25 C25            8.9376   -18.3886    14.0499 C.3     
  26 C26            8.1239   -18.7940    15.2519 C.2     
  27 O27            7.1051   -19.4269    15.1062 O.2     
  28 O28            8.5311   -18.4519    16.4844 O.3     
  29 C29            7.6958   -18.8772    17.5982 C.3     
  30 C30            8.1531   -20.2485    18.0774 C.3     
  31 C31            7.3347   -20.6888    19.2873 C.3     
  32 C32            7.5641   -19.7074    20.4518 C.3     
  33 C33            7.1511   -18.3151    19.9949 C.3     
  34 C34            7.7684   -17.8260    18.7064 C.3     
  35 C35            9.2091   -17.3469    18.8779 C.3     
  36 C36            6.9451   -16.6124    18.2066 C.3     
  37 C37            7.3114   -17.3299    21.1526 C.3     
  38 C38            6.2567   -17.7118    22.2072 C.3     
  39 C39            6.5164   -19.1205    22.7327 C.3     
  40 C40            6.6581   -20.1352    21.6070 C.3     
  41 C41            7.1025   -21.4786    22.1850 C.3     
  42 C42            6.1794   -21.8710    23.3065 C.2     
  43 C43            5.4231   -21.0318    23.9500 C.2     
  44 C44            5.3755   -19.5557    23.6591 C.3     
  45 C45            4.0430   -19.3125    22.9336 C.3     
  46 C46            5.3483   -18.7289    24.9362 C.3     
  47 C47            4.3548   -19.2809    25.9593 C.3     
  48 C48            4.6779   -20.7401    26.2894 C.3     
  49 C49            4.4920   -21.5702    25.0208 C.3     
  50 C50            4.7579   -23.0425    25.2895 C.3     
  51 C51            3.8483   -23.5719    26.3972 C.3     
  52 C52            2.3961   -23.5993    25.9150 C.3     
  53 C53            4.2737   -25.0103    26.7340 C.3     
  54 C54            3.9621   -22.7226    27.6583 C.3     
  55 C55            3.7249   -21.2447    27.3722 C.3     
  56 C56            6.0957   -20.8384    26.7845 C.2     
  57 O57            6.8962   -21.5231    26.1926 O.2     
  58 O58            6.4709   -20.1654    27.8836 O.3     
  59 C59            7.8537   -20.3070    28.3032 C.3     
  60 C60            8.0884   -19.4859    29.5449 C.ar    
  61 C61            7.8941   -20.0485    30.7926 C.ar    
  62 C62            8.1094   -19.2953    31.9315 C.ar    
  63 C63            8.5193   -17.9797    31.8229 C.ar    
  64 C64            8.7145   -17.4173    30.5753 C.ar    
  65 C65            8.5034   -18.1718    29.4363 C.ar    
  66 C66            7.8013   -19.0895    23.5771 C.3     
  67 C67            9.0360   -19.7840    20.8422 C.3     
  68 H68            4.3619    -2.5205    -4.0159 H       
  69 H69            2.8899    -2.6093    -5.0127 H       
  70 H70            2.7678    -2.2380    -3.2762 H       
  71 H71            2.1403    -4.5938    -3.7288 H       
  72 H72            3.7344    -4.8764    -4.4685 H       
  73 H73            4.8330    -4.2962    -2.3226 H       
  74 H74            3.2388    -4.0137    -1.5828 H       
  75 H75            2.6113    -6.3696    -2.0355 H       
  76 H76            4.2054    -6.6521    -2.7752 H       
  77 H77            5.3040    -6.0720    -0.6292 H       
  78 H78            3.7099    -5.7895     0.1105 H       
  79 H79            3.0823    -8.1453    -0.3422 H       
  80 H80            4.6765    -8.4278    -1.0819 H       
  81 H81            5.7751    -7.8477     1.0641 H       
  82 H82            4.1809    -7.5652     1.8038 H       
  83 H83            3.5534    -9.9210     1.3511 H       
  84 H84            5.1475   -10.2035     0.6114 H       
  85 H85            6.2461    -9.6234     2.7574 H       
  86 H86            4.6520    -9.3409     3.4971 H       
  87 H87            4.0244   -11.6968     3.0444 H       
  88 H88            5.6186   -11.9793     2.3047 H       
  89 H89            6.7172   -11.3992     4.4507 H       
  90 H90            5.1230   -11.1166     5.1904 H       
  91 H91            4.4955   -13.4725     4.7377 H       
  92 H92            6.0896   -13.7550     3.9980 H       
  93 H93            7.1882   -13.1749     6.1440 H       
  94 H94            5.5941   -12.8924     6.8837 H       
  95 H95            4.9665   -15.2482     6.4311 H       
  96 H96            6.5607   -15.5307     5.6913 H       
  97 H97            7.6593   -14.9506     7.8373 H       
  98 H98            6.0651   -14.6681     8.5770 H       
  99 H99            5.7423   -18.8855     9.4920 H       
 100 H100           7.3364   -19.1681     8.7523 H       
 101 H101           8.0678   -17.0602    11.6491 H       
 102 H102           9.9366   -18.8179    14.1259 H       
 103 H103           9.0112   -17.3018    14.0108 H       
 104 H104           6.6603   -18.9464    17.2460 H       
 105 H105           7.9915   -20.9749    17.2667 H       
 106 H106           9.2158   -20.2413    18.2997 H       
 107 H107           6.2750   -20.6953    19.0350 H       
 108 H108           7.6448   -21.6859    19.5978 H       
 109 H109           6.0472   -18.3766    19.8081 H       
 110 H110           9.8463   -18.1946    19.1301 H       
 111 H111           9.5553   -16.8962    17.9478 H       
 112 H112           9.2535   -16.6082    19.6782 H       
 113 H113           6.9696   -15.8227    18.9575 H       
 114 H114           7.3733   -16.2416    17.2753 H       
 115 H115           5.9133   -16.9190    18.0353 H       
 116 H116           8.3011   -17.3604    21.5804 H       
 117 H117           7.0944   -16.3134    20.8178 H       
 118 H118           6.3153   -16.9963    23.0287 H       
 119 H119           5.2882   -17.6248    21.7218 H       
 120 H120           5.6528   -20.2953    21.1617 H       
 121 H121           7.0314   -22.2450    21.4027 H       
 122 H122           8.1208   -21.4592    22.5544 H       
 123 H123           6.1531   -22.9157    23.5830 H       
 124 H124           4.0189   -19.8953    22.0128 H       
 125 H125           3.2178   -19.6165    23.5777 H       
 126 H126           3.9469   -18.2531    22.6957 H       
 127 H127           6.3178   -18.6364    25.4118 H       
 128 H128           5.0245   -17.7056    24.6757 H       
 129 H129           4.4261   -18.6914    26.8790 H       
 130 H130           3.3381   -19.2109    25.5794 H       
 131 H131           3.4584   -21.4488    24.6686 H       
 132 H132           4.5538   -23.6139    24.3726 H       
 133 H133           5.8010   -23.2055    25.5592 H       
 134 H134           2.3149   -24.2490    25.0436 H       
 135 H135           1.7558   -23.9781    26.7116 H       
 136 H136           2.0834   -22.5903    25.6463 H       
 137 H137           5.3102   -25.0132    27.0713 H       
 138 H138           3.6334   -25.4030    27.5239 H       
 139 H139           4.1790   -25.6346    25.8455 H       
 140 H140           3.2077   -23.0673    28.3796 H       
 141 H141           4.9415   -22.8714    28.1146 H       
 142 H142           3.8960   -20.6675    28.2883 H       
 143 H143           2.6945   -21.0804    27.0540 H       
 144 H144           8.0634   -21.3553    28.5158 H       
 145 H145           8.5123   -19.9588    27.5075 H       
 146 H146           7.5738   -21.0764    30.8774 H       
 147 H147           7.9569   -19.7347    32.9063 H       
 148 H148           8.6868   -17.3910    32.7127 H       
 149 H149           9.0345   -16.3893    30.4904 H       
 150 H150           8.6559   -17.7324    28.4616 H       
 151 H151           7.6531   -18.4408    24.4404 H       
 152 H152           8.0372   -20.0980    23.9168 H       
 153 H153           8.6242   -18.7079    22.9728 H       
 154 H154           9.6540   -19.6928    19.9490 H       
 155 H155           9.2717   -18.9731    21.5314 H       
 156 H156           9.2344   -20.7407    21.3254 H       
@<TRIPOS>BOND
   1    1    2 1
   2    1   68 1
   3    1   69 1
   4    1   70 1
   5    2    3 1
   6    2   71 1
   7    2   72 1
   8    3    4 1
   9    3   73 1
  10    3   74 1
  11    4    5 1
  12    4   75 1
  13    4   76 1
  14    5    6 1
  15    5   77 1
  16    5   78 1
  17    6    7 1
  18    6   79 1
  19    6   80 1
  20    7    8 1
  21    7   81 1
  22    7   82 1
  23    8    9 1
  24    8   83 1
  25    8   84 1
  26    9   10 1
  27    9   85 1
  28    9   86 1
  29   10   11 1
  30   10   87 1
  31   10   88 1
  32   11   12 1
  33   11   89 1
  34   11   90 1
  35   12   13 1
  36   12   91 1
  37   12   92 1
  38   13   14 1
  39   13   93 1
  40   13   94 1
  41   14   15 1
  42   14   95 1
  43   14   96 1
  44   15   16 1
  45   15   97 1
  46   15   98 1
  47   16   17 2
  48   16   18 1
  49   18   19 1
  50   19   20 1
  51   19   99 1
  52   19  100 1
  53   20   21 1
  54   20   24 2
  55   21   22 2
  56   22   23 1
  57   23   24 1
  58   23   25 1
  59   24  101 1
  60   25   26 1
  61   25  102 1
  62   25  103 1
  63   26   27 2
  64   26   28 1
  65   28   29 1
  66   29   30 1
  67   29   34 1
  68   29  104 1
  69   30   31 1
  70   30  105 1
  71   30  106 1
  72   31   32 1
  73   31  107 1
  74   31  108 1
  75   32   33 1
  76   32   67 1
  77   32   40 1
  78   33   34 1
  79   33   37 1
  80   33  109 1
  81   34   35 1
  82   34   36 1
  83   35  110 1
  84   35  111 1
  85   35  112 1
  86   36  113 1
  87   36  114 1
  88   36  115 1
  89   37   38 1
  90   37  116 1
  91   37  117 1
  92   38   39 1
  93   38  118 1
  94   38  119 1
  95   39   44 1
  96   39   66 1
  97   39   40 1
  98   40   41 1
  99   40  120 1
 100   41   42 1
 101   41  121 1
 102   41  122 1
 103   42   43 2
 104   42  123 1
 105   43   44 1
 106   43   49 1
 107   44   45 1
 108   44   46 1
 109   45  124 1
 110   45  125 1
 111   45  126 1
 112   46   47 1
 113   46  127 1
 114   46  128 1
 115   47   48 1
 116   47  129 1
 117   47  130 1
 118   48   56 1
 119   48   49 1
 120   48   55 1
 121   49   50 1
 122   49  131 1
 123   50   51 1
 124   50  132 1
 125   50  133 1
 126   51   52 1
 127   51   53 1
 128   51   54 1
 129   52  134 1
 130   52  135 1
 131   52  136 1
 132   53  137 1
 133   53  138 1
 134   53  139 1
 135   54   55 1
 136   54  140 1
 137   54  141 1
 138   55  142 1
 139   55  143 1
 140   56   57 2
 141   56   58 1
 142   58   59 1
 143   59   60 1
 144   59  144 1
 145   59  145 1
 146   60   61 ar
 147   60   65 ar
 148   61   62 ar
 149   61  146 1
 150   62   63 ar
 151   62  147 1
 152   63   64 ar
 153   63  148 1
 154   64   65 ar
 155   64  149 1
 156   65  150 1
 157   66  151 1
 158   66  152 1
 159   66  153 1
 160   67  154 1
 161   67  155 1
 162   67  156 1

#	End of record

