#	Name: ASD01948321
#	Creating user name:	WinNT
#	Creation time:	15. 06. 2019 20:14

#	Modifying user name:	WinNT
#	Modification time:	15. 06. 2019 20:14

#	Program:	/corina/corina34_cracker 3.40 0067  02.08.2006

@<TRIPOS>MOLECULE
ASD01948321
  52   53    0    0    0
SMALL
NO_CHARGES


@<TRIPOS>ATOM
   1 C1             1.1250     1.3576     1.4140 C.2     
   2 N2             1.0603     0.0106     1.6182 N.am    
   3 C3             1.8986    -0.6042     2.4726 C.2     
   4 C4             2.9363     1.5014     2.9735 C.2     
   5 C5             2.0378     2.1142     2.0673 C.2     
   6 C6             4.9437     2.8282     1.5614 C.ar    
   7 C7             4.8462     2.9723     2.9389 C.ar    
   8 N8             3.8768     2.2584     3.6517 N.pl3   
   9 C9             5.9020     3.5339     0.8602 C.ar    
  10 C10            6.7649     4.3841     1.5281 C.ar    
  11 C11            6.6717     4.5311     2.9005 C.ar    
  12 C12            5.7147     3.8276     3.6087 C.ar    
  13 N13            2.0931     3.5003     1.8473 N.am    
  14 S14            0.9145     4.2444     0.9532 S.o2    
  15 N15           -0.4642     4.2539     1.8705 N.am    
  16 O16            1.8203    -1.8123     2.6379 O.2     
  17 C17            0.0610    -0.7801     0.8955 C.3     
  18 F18            5.6232     3.9713     4.9489 F       
  19 I19            8.2162     5.4516     0.4589 I       
  20 O20            1.3131     5.6012     0.8138 O.2     
  21 O21            0.6536     3.3933    -0.1544 O.2     
  22 C22            2.8591     0.1332     3.1715 C.2     
  23 C23           -0.7323     5.3720     2.7783 C.3     
  24 C24           -1.4158     3.1442     1.7742 C.3     
  25 C25           -2.1731     3.0056     3.0963 C.3     
  26 C26           -2.4092     3.4209     0.6440 C.3     
  27 C27           -2.0858     5.9961     2.4330 C.3     
  28 C28           -0.7586     4.8627     4.2208 C.3     
  29 H29            0.4429     1.8255     0.7195 H       
  30 H30            4.2737     2.1613     1.0391 H       
  31 H31            3.8636     2.2936     4.6210 H       
  32 H32            5.9780     3.4214    -0.2113 H       
  33 H33            7.3471     5.1954     3.4192 H       
  34 H34            2.8217     4.0217     2.2191 H       
  35 H35            0.4834    -1.1244    -0.0485 H       
  36 H36           -0.2278    -1.6403     1.4995 H       
  37 H37           -0.8162    -0.1640     0.6979 H       
  38 H38            3.5325    -0.3585     3.8578 H       
  39 H39            0.0514     6.1222     2.6722 H       
  40 H40           -0.8765     2.2202     1.5658 H       
  41 H41           -2.8816     3.8277     3.1972 H       
  42 H42           -2.7118     2.0581     3.1089 H       
  43 H43           -1.4654     3.0321     3.9249 H       
  44 H44           -1.8642     3.6057    -0.2817 H       
  45 H45           -3.0624     2.5578     0.5150 H       
  46 H46           -3.0088     4.2963     0.8935 H       
  47 H47           -2.8761     5.2633     2.5965 H       
  48 H48           -2.2584     6.8644     3.0688 H       
  49 H49           -2.0874     6.3051     1.3877 H       
  50 H50            0.0512     4.1482     4.3687 H       
  51 H51           -0.6322     5.7019     4.9048 H       
  52 H52           -1.7136     4.3751     4.4166 H       
@<TRIPOS>BOND
   1    1    2 1
   2    1    5 2
   3    1   29 1
   4    2    3 am
   5    2   17 1
   6    3   22 1
   7    3   16 2
   8    4    5 1
   9    4    8 1
  10    4   22 2
  11    5   13 1
  12    6    7 ar
  13    6    9 ar
  14    6   30 1
  15    7    8 1
  16    7   12 ar
  17    8   31 1
  18    9   10 ar
  19    9   32 1
  20   10   11 ar
  21   10   19 1
  22   11   12 ar
  23   11   33 1
  24   12   18 1
  25   13   14 am
  26   13   34 1
  27   14   15 am
  28   14   20 2
  29   14   21 2
  30   15   23 1
  31   15   24 1
  32   17   35 1
  33   17   36 1
  34   17   37 1
  35   22   38 1
  36   23   27 1
  37   23   28 1
  38   23   39 1
  39   24   25 1
  40   24   26 1
  41   24   40 1
  42   25   41 1
  43   25   42 1
  44   25   43 1
  45   26   44 1
  46   26   45 1
  47   26   46 1
  48   27   47 1
  49   27   48 1
  50   27   49 1
  51   28   50 1
  52   28   51 1
  53   28   52 1

#	End of record

