#	Name: ASD01913221
#	Creating user name:	WinNT
#	Creation time:	15. 06. 2019 20:01

#	Modifying user name:	WinNT
#	Modification time:	15. 06. 2019 20:01

#	Program:	/corina/corina34_cracker 3.40 0067  02.08.2006

@<TRIPOS>MOLECULE
ASD01913221
  51   54    0    0    0
SMALL
NO_CHARGES


@<TRIPOS>ATOM
   1 N1            -1.7905     1.3826    -0.9529 N.am    
   2 C2            -2.4733     2.0674    -2.0448 C.3     
   3 C3            -3.9693     1.7827    -2.0534 C.3     
   4 C4            -4.2241     0.2918    -2.2946 C.3     
   5 C5            -4.2043    -0.4245    -0.9675 C.ar    
   6 C6            -3.0195    -0.5930    -0.2832 C.ar    
   7 C7            -1.7356    -0.0825    -0.9036 C.3     
   8 C8            -2.9987    -1.2263     0.9420 C.ar    
   9 C9            -4.1774    -1.7111     1.4820 C.ar    
  10 C10           -5.3655    -1.5573     0.7929 C.ar    
  11 C11           -5.3820    -0.9138    -0.4308 C.ar    
  12 C12           -1.1983     2.1044     0.0191 C.2     
  13 O13           -0.6868     1.5420     0.9680 O.2     
  14 C14           -1.1708     3.5779    -0.0683 C.ar    
  15 C15           -2.3553     4.2871    -0.2627 C.ar    
  16 C16           -2.3230     5.6774    -0.3444 C.ar    
  17 C17           -1.0973     6.3540    -0.2303 C.ar    
  18 C18            0.0751     5.6379    -0.0370 C.ar    
  19 C19            0.0427     4.2629     0.0496 C.ar    
  20 C20           -3.5347     6.4139    -0.5444 C.1     
  21 C21           -4.5280     7.0178    -0.7083 C.1     
  22 C22           -5.7397     7.7543    -0.9083 C.ar    
  23 C23           -5.6986     9.1491    -0.9892 C.ar    
  24 C24           -6.8775     9.8451    -1.1830 C.ar    
  25 C25           -8.0618     9.1278    -1.2902 C.ar    
  26 C26           -8.0314     7.7483    -1.2011 C.ar    
  27 N27           -6.8953     7.1062    -1.0213 N.ar    
  28 O28           -1.0599     7.7073    -0.3096 O.3     
  29 C29            0.2205     8.3293    -0.1851 C.3     
  30 H30           -2.3178     3.1413    -1.9415 H       
  31 H31           -2.0449     1.7388    -2.9917 H       
  32 H32           -4.3973     2.0713    -1.0934 H       
  33 H33           -4.4426     2.3625    -2.8459 H       
  34 H34           -5.1973     0.1591    -2.7671 H       
  35 H35           -3.4441    -0.1126    -2.9398 H       
  36 H36           -1.6343    -0.4791    -1.9138 H       
  37 H37           -0.8860    -0.3967    -0.2974 H       
  38 H38           -2.0678    -1.3435     1.4770 H       
  39 H39           -4.1685    -2.2092     2.4402 H       
  40 H40           -6.2841    -1.9410     1.2116 H       
  41 H41           -6.3121    -0.7931    -0.9664 H       
  42 H42           -3.2942     3.7606    -0.3499 H       
  43 H43            1.0164     6.1603     0.0500 H       
  44 H44            0.9586     3.7120     0.2049 H       
  45 H45           -4.7597     9.6755    -0.9013 H       
  46 H46           -6.8774    10.9231    -1.2492 H       
  47 H47           -8.9988     9.6431    -1.4415 H       
  48 H48           -8.9516     7.1890    -1.2839 H       
  49 H49            0.1087     9.4105    -0.2665 H       
  50 H50            0.6526     8.0807     0.7842 H       
  51 H51            0.8770     7.9713    -0.9782 H       
@<TRIPOS>BOND
   1    1    2 1
   2    1    7 1
   3    1   12 am
   4    2    3 1
   5    2   30 1
   6    2   31 1
   7    3    4 1
   8    3   32 1
   9    3   33 1
  10    4    5 1
  11    4   34 1
  12    4   35 1
  13    5    6 ar
  14    5   11 ar
  15    6    7 1
  16    6    8 ar
  17    7   36 1
  18    7   37 1
  19    8    9 ar
  20    8   38 1
  21    9   10 ar
  22    9   39 1
  23   10   11 ar
  24   10   40 1
  25   11   41 1
  26   12   13 2
  27   12   14 1
  28   14   15 ar
  29   14   19 ar
  30   15   16 ar
  31   15   42 1
  32   16   17 ar
  33   16   20 1
  34   17   18 ar
  35   17   28 1
  36   18   19 ar
  37   18   43 1
  38   19   44 1
  39   20   21 3
  40   21   22 1
  41   22   23 ar
  42   22   27 ar
  43   23   24 ar
  44   23   45 1
  45   24   25 ar
  46   24   46 1
  47   25   26 ar
  48   25   47 1
  49   26   27 ar
  50   26   48 1
  51   28   29 1
  52   29   49 1
  53   29   50 1
  54   29   51 1

#	End of record

