#	Name: ASD03240448
#	Creating user name:	WinNT
#	Creation time:	15. 06. 2019 20:35

#	Modifying user name:	WinNT
#	Modification time:	15. 06. 2019 20:35

#	Program:	/corina/corina34_cracker 3.40 0067  02.08.2006

@<TRIPOS>MOLECULE
ASD03240448
  47   49    0    0    0
SMALL
NO_CHARGES


@<TRIPOS>ATOM
   1 C1            -0.0688     1.4763     0.0646 C.ar    
   2 C2            -0.1573     0.0988    -0.0107 C.ar    
   3 C3             2.2789     2.5209    -2.2617 C.ar    
   4 C4             1.3904     2.9289    -1.2833 C.ar    
   5 C5             1.2782     2.1491     0.0014 C.3     
   6 C6             2.3856     3.2315    -3.4402 C.ar    
   7 C7             1.5965     4.3614    -3.6432 C.ar    
   8 C8             0.7037     4.7682    -2.6543 C.ar    
   9 C9             0.6049     4.0503    -1.4795 C.ar    
  10 C10            1.7074     5.1300    -4.9087 C.2     
  11 C11           -1.3924    -0.5188     0.0472 C.ar    
  12 C12           -2.5403     0.2418     0.1806 C.ar    
  13 C13           -2.4511     1.6204     0.2560 C.ar    
  14 C14           -1.2159     2.2372     0.1922 C.ar    
  15 C15            0.9992     6.2489    -5.2371 C.2     
  16 N16            1.3953     6.6363    -6.4662 N.pl3   
  17 N17            2.3723     5.7389    -6.9141 N.2     
  18 C18            2.5672     4.8400    -5.9859 C.2     
  19 C19            1.4295     3.1002     1.1902 C.3     
  20 N20            1.4401     2.3259     2.4386 N.3     
  21 C21            1.5842     3.2083     3.6042 C.3     
  22 Cl22          -4.0921    -0.5332     0.2529 Cl      
  23 C23            1.5910     2.3676     4.8825 C.3     
  24 C24            1.7412     3.2866     6.0965 C.3     
  25 O25            1.7475     2.5014     7.2904 O.3     
  26 H26            0.7388    -0.4949    -0.1152 H       
  27 H27            2.8933     1.6473    -2.1015 H       
  28 H28            2.0635     1.3941     0.0379 H       
  29 H29            3.0798     2.9123    -4.2034 H       
  30 H30            0.0897     5.6435    -2.8067 H       
  31 H31           -0.0872     4.3646    -0.7123 H       
  32 H32           -1.4615    -1.5950    -0.0120 H       
  33 H33           -3.3468     2.2147     0.3601 H       
  34 H34           -1.1461     3.3134     0.2510 H       
  35 H35            0.2558     6.7361    -4.6235 H       
  36 H36            1.0610     7.4040    -6.9558 H       
  37 H37            3.2615     4.0144    -6.0386 H       
  38 H38            2.3648     3.6522     1.0972 H       
  39 H39            0.5942     3.8003     1.2040 H       
  40 H40            0.6116     1.7554     2.5172 H       
  41 H41            2.5206     3.7610     3.5278 H       
  42 H42            0.7500     3.9091     3.6347 H       
  43 H43            0.6547     1.8148     4.9588 H       
  44 H44            2.4253     1.6667     4.8520 H       
  45 H45            2.6775     3.8393     6.0201 H       
  46 H46            0.9069     3.9875     6.1270 H       
  47 H47            1.8398     3.0197     8.1015 H       
@<TRIPOS>BOND
   1    1    2 ar
   2    1    5 1
   3    1   14 ar
   4    2   11 ar
   5    2   26 1
   6    3    4 ar
   7    3    6 ar
   8    3   27 1
   9    4    5 1
  10    4    9 ar
  11    5   19 1
  12    5   28 1
  13    6    7 ar
  14    6   29 1
  15    7    8 ar
  16    7   10 1
  17    8    9 ar
  18    8   30 1
  19    9   31 1
  20   10   15 2
  21   10   18 1
  22   11   12 ar
  23   11   32 1
  24   12   13 ar
  25   12   22 1
  26   13   14 ar
  27   13   33 1
  28   14   34 1
  29   15   16 1
  30   15   35 1
  31   16   17 1
  32   16   36 1
  33   17   18 2
  34   18   37 1
  35   19   20 1
  36   19   38 1
  37   19   39 1
  38   20   21 1
  39   20   40 1
  40   21   23 1
  41   21   41 1
  42   21   42 1
  43   23   24 1
  44   23   43 1
  45   23   44 1
  46   24   25 1
  47   24   45 1
  48   24   46 1
  49   25   47 1

#	End of record

