#	Name: ASD01918196
#	Creating user name:	WinNT
#	Creation time:	15. 06. 2019 20:11

#	Modifying user name:	WinNT
#	Modification time:	15. 06. 2019 20:11

#	Program:	/corina/corina34_cracker 3.40 0067  02.08.2006

@<TRIPOS>MOLECULE
ASD01918196
  36   38    0    0    0
SMALL
NO_CHARGES


@<TRIPOS>ATOM
   1 N1             0.0033     1.3127     0.0411 N.ar    
   2 C2             0.0249    -0.0033     0.0320 C.ar    
   3 C3             1.2037    -0.6971     0.2451 C.ar    
   4 C4             2.3777     0.0072     0.4708 C.ar    
   5 C5             2.3284     1.3904     0.4750 C.ar    
   6 C6             1.1049     2.0258     0.2534 C.ar    
   7 N7             1.0394     3.3917     0.2548 N.2     
   8 N8            -0.0885     3.9836     0.0506 N.2     
   9 C9            -0.1537     5.3455     0.0521 C.ar    
  10 C10            0.9326     7.4778     0.2693 C.ar    
  11 C11            1.0028     6.1033     0.2691 C.ar    
  12 C12           -1.3764     5.9897    -0.1692 C.ar    
  13 C13           -1.4378     7.3646    -0.1674 C.ar    
  14 C14           -0.2862     8.1144     0.0536 C.ar    
  15 N15           -0.3530     9.5070     0.0550 N.am    
  16 C16            0.6662    10.2310    -0.4484 C.2     
  17 O17            1.6785     9.6746    -0.8259 O.2     
  18 C18            0.5525    11.7049    -0.5416 C.ar    
  19 C19            1.6097    12.4478    -1.0630 C.ar    
  20 N20           -0.5578    12.3065    -0.1328 N.ar    
  21 C21           -0.6993    13.6124    -0.1987 C.ar    
  22 C22            1.4883    13.8259    -1.1443 C.ar    
  23 C23            0.3133    14.4135    -0.7016 C.ar    
  24 H24           -0.8900    -0.5496    -0.1439 H       
  25 H25            1.2095    -1.7770     0.2361 H       
  26 H26            3.3093    -0.5124     0.6399 H       
  27 H27            3.2233     1.9699     0.6478 H       
  28 H28            1.8245     8.0633     0.4370 H       
  29 H29            1.9489     5.6102     0.4366 H       
  30 H30           -2.2704     5.4087    -0.3415 H       
  31 H31           -2.3809     7.8625    -0.3381 H       
  32 H32           -1.1329     9.9548     0.4184 H       
  33 H33            2.5110    11.9567    -1.3988 H       
  34 H34           -1.6174    14.0666     0.1435 H       
  35 H35            2.2909    14.4284    -1.5433 H       
  36 H36            0.1869    15.4849    -0.7518 H       
@<TRIPOS>BOND
   1    1    2 ar
   2    1    6 ar
   3    2    3 ar
   4    2   24 1
   5    3    4 ar
   6    3   25 1
   7    4    5 ar
   8    4   26 1
   9    5    6 ar
  10    5   27 1
  11    6    7 1
  12    7    8 2
  13    8    9 1
  14    9   12 ar
  15    9   11 ar
  16   10   11 ar
  17   10   14 ar
  18   10   28 1
  19   11   29 1
  20   12   13 ar
  21   12   30 1
  22   13   14 ar
  23   13   31 1
  24   14   15 1
  25   15   16 am
  26   15   32 1
  27   16   17 2
  28   16   18 1
  29   18   19 ar
  30   18   20 ar
  31   19   22 ar
  32   19   33 1
  33   20   21 ar
  34   21   23 ar
  35   21   34 1
  36   22   23 ar
  37   22   35 1
  38   23   36 1

#	End of record

