#	Name: ASD02408422
#	Creating user name:	WinNT
#	Creation time:	15. 06. 2019 20:21

#	Modifying user name:	WinNT
#	Modification time:	15. 06. 2019 20:21

#	Program:	/corina/corina34_cracker 3.40 0067  02.08.2006

@<TRIPOS>MOLECULE
ASD02408422
  38   41    0    0    0
SMALL
NO_CHARGES


@<TRIPOS>ATOM
   1 N1             0.0067     1.3567     0.3547 N.am    
   2 C2             0.0278     0.0003     0.3890 C.2     
   3 N3             1.1210    -0.6954     0.2733 N.2     
   4 C4             2.3181    -0.1120     0.1096 C.2     
   5 C5             2.3963     1.2892     0.0613 C.2     
   6 C6             1.1561     2.0534     0.1937 C.2     
   7 N7             3.5891    -0.5766    -0.0351 N.pl3   
   8 N8             4.4458     0.5230    -0.1716 N.2     
   9 C9             3.7512     1.6264    -0.1159 C.2     
  10 C10           -1.2756    -0.7342     0.5700 C.3     
  11 C11           -1.0145    -2.2417     0.5788 C.3     
  12 C12            3.9745    -1.9240    -0.0454 C.ar    
  13 C13            3.2736    -2.8421    -0.8147 C.ar    
  14 C14            3.6561    -4.1698    -0.8232 C.ar    
  15 C15            4.7360    -4.5854    -0.0667 C.ar    
  16 C16            5.4375    -3.6746     0.7020 C.ar    
  17 C17            5.0639    -2.3432     0.7110 C.ar    
  18 O18            1.1575     3.2712     0.1595 O.2     
  19 C19           -0.2123    -2.6299     1.7991 C.2     
  20 C20           -0.7024    -3.7003     2.3627 C.2     
  21 C21           -1.9131    -4.2046     1.6123 C.3     
  22 C22           -2.3444    -3.0180     0.7195 C.3     
  23 F23            5.7493    -1.4532     1.4615 F       
  24 H24           -0.8361     1.8290     0.4418 H       
  25 H25            4.1484     2.6278    -0.1927 H       
  26 H26           -1.7309    -0.4388     1.5153 H       
  27 H27           -1.9491    -0.4869    -0.2506 H       
  28 H28           -0.4923    -2.5412    -0.3299 H       
  29 H29            2.4295    -2.5191    -1.4060 H       
  30 H30            3.1103    -4.8842    -1.4217 H       
  31 H31            5.0322    -5.6240    -0.0757 H       
  32 H32            6.2802    -4.0026     1.2925 H       
  33 H33            0.6531    -2.0924     2.1576 H       
  34 H34           -0.2957    -4.1649     3.2488 H       
  35 H35           -1.6479    -5.0651     0.9982 H       
  36 H36           -2.7101    -4.4651     2.3087 H       
  37 H37           -3.1016    -2.4104     1.2151 H       
  38 H38           -2.6984    -3.3667    -0.2507 H       
@<TRIPOS>BOND
   1    1    2 1
   2    1    6 am
   3    1   24 1
   4    2    3 2
   5    2   10 1
   6    3    4 1
   7    4    5 2
   8    4    7 1
   9    5    6 1
  10    5    9 1
  11    6   18 2
  12    7    8 1
  13    7   12 1
  14    8    9 2
  15    9   25 1
  16   10   11 1
  17   10   26 1
  18   10   27 1
  19   11   19 1
  20   11   22 1
  21   11   28 1
  22   12   13 ar
  23   12   17 ar
  24   13   14 ar
  25   13   29 1
  26   14   15 ar
  27   14   30 1
  28   15   16 ar
  29   15   31 1
  30   16   17 ar
  31   16   32 1
  32   17   23 1
  33   19   20 2
  34   19   33 1
  35   20   21 1
  36   20   34 1
  37   21   22 1
  38   21   35 1
  39   21   36 1
  40   22   37 1
  41   22   38 1

#	End of record

