#	Name: ASD03180034
#	Creating user name:	WinNT
#	Creation time:	15. 06. 2019 20:33

#	Modifying user name:	WinNT
#	Modification time:	15. 06. 2019 20:33

#	Program:	/corina/corina34_cracker 3.40 0067  02.08.2006

@<TRIPOS>MOLECULE
ASD03180034
  54   56    0    0    0
SMALL
NO_CHARGES


@<TRIPOS>ATOM
   1 C1             7.3537     3.1094     2.0016 C.ar    
   2 C2             7.3464     4.4728     2.2298 C.ar    
   3 C3             6.2973     5.2453     1.7678 C.ar    
   4 C4             5.2557     4.6546     1.0771 C.ar    
   5 C5             5.2635     3.2914     0.8480 C.ar    
   6 C6             6.3118     2.5186     1.3113 C.ar    
   7 S7             3.9353     2.5382    -0.0314 S.o2    
   8 O8             2.7880     3.3412     0.2098 O.2     
   9 N9             4.2740     2.6796    -1.6462 N.am    
  10 O10            3.9901     1.1507     0.2702 O.2     
  11 C11            3.7237     3.7989    -2.4148 C.3     
  12 C12            5.1238     1.6854    -2.3062 C.3     
  13 C13            4.2583     0.6363    -2.9553 C.ar    
  14 C14            4.7356     4.9142    -2.4724 C.2     
  15 N15            4.4460     6.0533    -3.1319 N.am    
  16 C16            5.4250     7.0447    -3.2812 C.ar    
  17 O17            5.8106     4.7866    -1.9253 O.2     
  18 C18            3.9036     0.7598    -4.2858 C.ar    
  19 C19            3.1098    -0.2020    -4.8817 C.ar    
  20 C20            2.6703    -1.2885    -4.1465 C.ar    
  21 C21            3.0257    -1.4115    -2.8151 C.ar    
  22 C22            3.8241    -0.4519    -2.2217 C.ar    
  23 C23            6.7697     6.7076    -3.2297 C.ar    
  24 C24            7.7334     7.6871    -3.3770 C.ar    
  25 C25            7.3610     9.0039    -3.5759 C.ar    
  26 C26            6.0229     9.3474    -3.6284 C.ar    
  27 C27            5.0506     8.3705    -3.4873 C.ar    
  28 Cl28           1.6728    -2.4967    -4.8942 Cl      
  29 O29            3.7341     8.7058    -3.5447 O.3     
  30 C30            3.4245    10.0844    -3.7587 C.3     
  31 C31            9.1937     7.3194    -3.3203 C.3     
  32 H32            8.1755     2.5065     2.3587 H       
  33 H33            8.1601     4.9343     2.7694 H       
  34 H34            6.2913     6.3104     1.9467 H       
  35 H35            4.4358     5.2581     0.7167 H       
  36 H36            6.3177     1.4535     1.1327 H       
  37 H37            3.4920     3.4658    -3.4264 H       
  38 H38            2.8142     4.1580    -1.9332 H       
  39 H39            5.7329     2.1751    -3.0660 H       
  40 H40            5.7730     1.2148    -1.5678 H       
  41 H41            3.5599     6.1869    -3.5033 H       
  42 H42            4.2464     1.6081    -4.8595 H       
  43 H43            2.8324    -0.1053    -5.9210 H       
  44 H44            2.6829    -2.2594    -2.2407 H       
  45 H45            4.1053    -0.5501    -1.1836 H       
  46 H46            7.0633     5.6801    -3.0741 H       
  47 H47            8.1175     9.7661    -3.6903 H       
  48 H48            5.7355    10.3768    -3.7835 H       
  49 H49            3.8513    10.4096    -4.7076 H       
  50 H50            2.3426    10.2142    -3.7835 H       
  51 H51            3.8436    10.6809    -2.9484 H       
  52 H52            9.5465     7.0771    -4.3228 H       
  53 H53            9.7651     8.1603    -2.9274 H       
  54 H54            9.3256     6.4548    -2.6698 H       
@<TRIPOS>BOND
   1    1    2 ar
   2    1    6 ar
   3    1   32 1
   4    2    3 ar
   5    2   33 1
   6    3    4 ar
   7    3   34 1
   8    4    5 ar
   9    4   35 1
  10    5    6 ar
  11    5    7 1
  12    6   36 1
  13    7    8 2
  14    7    9 am
  15    7   10 2
  16    9   11 1
  17    9   12 1
  18   11   14 1
  19   11   37 1
  20   11   38 1
  21   12   13 1
  22   12   39 1
  23   12   40 1
  24   13   18 ar
  25   13   22 ar
  26   14   15 am
  27   14   17 2
  28   15   16 1
  29   15   41 1
  30   16   23 ar
  31   16   27 ar
  32   18   19 ar
  33   18   42 1
  34   19   20 ar
  35   19   43 1
  36   20   21 ar
  37   20   28 1
  38   21   22 ar
  39   21   44 1
  40   22   45 1
  41   23   24 ar
  42   23   46 1
  43   24   25 ar
  44   24   31 1
  45   25   26 ar
  46   25   47 1
  47   26   27 ar
  48   26   48 1
  49   27   29 1
  50   29   30 1
  51   30   49 1
  52   30   50 1
  53   30   51 1
  54   31   52 1
  55   31   53 1
  56   31   54 1

#	End of record

