#	Name: ASD05430739
#	Creating user name:	WinNT
#	Creation time:	15. 06. 2019 21:00

#	Modifying user name:	WinNT
#	Modification time:	15. 06. 2019 21:00

#	Program:	/corina/corina34_cracker 3.40 0067  02.08.2006

@<TRIPOS>MOLECULE
ASD05430739
  67   72    0    0    0
SMALL
NO_CHARGES


@<TRIPOS>ATOM
   1 C1            -0.1532     1.4250     0.4528 C.2     
   2 C2            -0.1062     0.0468     0.1778 C.2     
   3 N3            -1.2891    -0.6713     0.1211 N.pl3   
   4 C4            -2.3738    -0.0810     0.7564 C.2     
   5 N5            -2.5225     1.2904     0.7666 N.am    
   6 C6            -1.4331     2.1022     0.6689 C.2     
   7 O7            -1.5180     3.3131     0.7598 O.2     
   8 C8            -3.8599     1.8773     0.8806 C.3     
   9 C9            -3.9667     2.6516     2.1959 C.3     
  10 C10           -4.0972     2.8150    -0.2750 C.ar    
  11 C11           -3.6409     2.4848    -1.5371 C.ar    
  12 C12           -4.5338     4.5368    -2.3977 C.ar    
  13 C13           -4.9954     4.8638    -1.1344 C.ar    
  14 C14           -4.7759     4.0019    -0.0731 C.ar    
  15 C15            1.2147     1.8939     0.4513 C.2     
  16 C16            1.9911     0.8068     0.1815 C.2     
  17 N17            1.1778    -0.3009     0.0182 N.pl3   
  18 C18            3.4657     0.8103     0.0802 C.ar    
  19 C19            4.1766     1.9967     0.2673 C.ar    
  20 C20            5.5564     1.9952     0.1721 C.ar    
  21 C21            6.2337     0.8102    -0.1103 C.ar    
  22 C22            5.5259    -0.3694    -0.2963 C.ar    
  23 C23            4.1505    -0.3746    -0.1972 C.ar    
  24 N24            7.6335     0.8097    -0.2072 N.pl3   
  25 C25            8.3918     1.6609    -0.9450 C.2     
  26 N26            9.6484     1.3480    -0.7799 N.2     
  27 C27            9.7398     0.3027     0.0554 C.2     
  28 C28            8.4939    -0.0463     0.4296 C.2     
  29 C29           11.0160    -0.3624     0.5026 C.3     
  30 C30           -1.3893    -1.9634    -0.5620 C.3     
  31 N31           -3.2607    -0.8304     1.3488 N.2     
  32 C32           -3.0388    -2.2737     1.4668 C.3     
  33 C33           -2.2357    -2.7688     2.6712 C.3     
  34 C34           -3.7459    -3.0061     2.6090 C.3     
  35 C35           -3.8588     3.3454    -2.5998 C.ar    
  36 F36           -3.4123     3.0226    -3.8334 F       
  37 F37           -5.6544     6.0263    -0.9357 F       
  38 O38            6.2518     3.1492     0.3533 O.3     
  39 C39            5.4929     4.3258     0.6392 C.3     
  40 H40           -4.6074     1.0841     0.8642 H       
  41 H41           -3.2193     3.4448     2.2122 H       
  42 H42           -4.9618     3.0883     2.2807 H       
  43 H43           -3.7951     1.9734     3.0317 H       
  44 H44           -3.1140     1.5553    -1.6946 H       
  45 H45           -4.7045     5.2085    -3.2261 H       
  46 H46           -5.1356     4.2570     0.9128 H       
  47 H47            1.5535     2.9040     0.6285 H       
  48 H48            1.4911    -1.1969    -0.1817 H       
  49 H49            3.6503     2.9142     0.4857 H       
  50 H50            6.0538    -1.2858    -0.5153 H       
  51 H51            3.6023    -1.2937    -0.3420 H       
  52 H52            8.0179     2.4624    -1.5649 H       
  53 H53            8.2242    -0.8504     1.0983 H       
  54 H54           11.3787     0.1206     1.4100 H       
  55 H55           10.8252    -1.4166     0.7035 H       
  56 H56           11.7671    -0.2721    -0.2821 H       
  57 H57           -1.1902    -2.7661     0.1480 H       
  58 H58           -2.3926    -2.0810    -0.9715 H       
  59 H59           -0.6597    -2.0044    -1.3707 H       
  60 H60           -2.9156    -2.8089     0.5253 H       
  61 H61           -1.5844    -3.6301     2.5222 H       
  62 H62           -1.8723    -2.0207     3.3758 H       
  63 H63           -4.3761    -2.4141     3.2726 H       
  64 H64           -4.0881    -4.0234     2.4190 H       
  65 H65            6.1680     5.1729     0.7609 H       
  66 H66            4.8060     4.5240    -0.1836 H       
  67 H67            4.9259     4.1781     1.5583 H       
@<TRIPOS>BOND
   1    1    2 2
   2    1   15 1
   3    1    6 1
   4    2    3 1
   5    2   17 1
   6    3    4 1
   7    3   30 1
   8    4    5 1
   9    4   31 2
  10    5    6 am
  11    5    8 1
  12    6    7 2
  13    8    9 1
  14    8   10 1
  15    8   40 1
  16    9   41 1
  17    9   42 1
  18    9   43 1
  19   10   11 ar
  20   10   14 ar
  21   11   35 ar
  22   11   44 1
  23   12   13 ar
  24   12   35 ar
  25   12   45 1
  26   13   14 ar
  27   13   37 1
  28   14   46 1
  29   15   16 2
  30   15   47 1
  31   16   17 1
  32   16   18 1
  33   17   48 1
  34   18   19 ar
  35   18   23 ar
  36   19   20 ar
  37   19   49 1
  38   20   21 ar
  39   20   38 1
  40   21   22 ar
  41   21   24 1
  42   22   23 ar
  43   22   50 1
  44   23   51 1
  45   24   25 1
  46   24   28 1
  47   25   26 2
  48   25   52 1
  49   26   27 1
  50   27   28 2
  51   27   29 1
  52   28   53 1
  53   29   54 1
  54   29   55 1
  55   29   56 1
  56   30   57 1
  57   30   58 1
  58   30   59 1
  59   31   32 1
  60   32   33 1
  61   32   34 1
  62   32   60 1
  63   33   34 1
  64   33   61 1
  65   33   62 1
  66   34   63 1
  67   34   64 1
  68   35   36 1
  69   38   39 1
  70   39   65 1
  71   39   66 1
  72   39   67 1

#	End of record

