#	Name: ASD03240484
#	Creating user name:	WinNT
#	Creation time:	15. 06. 2019 20:35

#	Modifying user name:	WinNT
#	Modification time:	15. 06. 2019 20:35

#	Program:	/corina/corina34_cracker 3.40 0067  02.08.2006

@<TRIPOS>MOLECULE
ASD03240484
  43   45    0    0    0
SMALL
NO_CHARGES


@<TRIPOS>ATOM
   1 C1            -0.0688     1.4763     0.0646 C.ar    
   2 C2             2.2802     2.5220    -2.2610 C.ar    
   3 C3             1.3904     2.9289    -1.2833 C.ar    
   4 C4             1.2782     2.1491     0.0014 C.3     
   5 C5             2.3869     3.2326    -3.4394 C.ar    
   6 C6             1.5965     4.3614    -3.6432 C.ar    
   7 C7             0.7024     4.7672    -2.6550 C.ar    
   8 C8             0.6036     4.0493    -1.4803 C.ar    
   9 C9             1.7074     5.1300    -4.9087 C.2     
  10 C10            0.9980     6.2479    -5.2378 C.2     
  11 N11            1.3946     6.6357    -6.4666 N.pl3   
  12 N12            2.3731     5.7396    -6.9137 N.2     
  13 C13            2.5684     4.8410    -5.9852 C.2     
  14 C14           -0.1572     0.0987    -0.0096 C.ar    
  15 C15           -1.3923    -0.5189     0.0483 C.ar    
  16 C16            1.4295     3.1002     1.1902 C.3     
  17 N17            1.4401     2.3259     2.4386 N.3     
  18 C18            1.5842     3.2083     3.6042 C.3     
  19 C19           -2.5403     0.2418     0.1806 C.ar    
  20 C20           -2.4512     1.6205     0.2549 C.ar    
  21 C21           -1.2151     2.2366     0.2025 C.ar    
  22 Cl22          -4.0921    -0.5332     0.2529 Cl      
  23 C23            1.5910     2.3676     4.8825 C.3     
  24 H24            2.8957     1.6492    -2.1001 H       
  25 H25            2.0635     1.3941     0.0379 H       
  26 H26            3.0821     2.9141    -4.2021 H       
  27 H27            0.0874     5.6416    -2.8080 H       
  28 H28           -0.0895     4.3628    -0.7137 H       
  29 H29            0.2535     6.7342    -4.6249 H       
  30 H30            1.0597     7.4029    -6.9566 H       
  31 H31            3.2638     4.0163    -6.0372 H       
  32 H32            0.7390    -0.4950    -0.1133 H       
  33 H33           -1.4613    -1.5951    -0.0101 H       
  34 H34            2.3648     3.6522     1.0972 H       
  35 H35            0.5942     3.8003     1.2040 H       
  36 H36            0.6116     1.7554     2.5172 H       
  37 H37            2.5206     3.7610     3.5278 H       
  38 H38            0.7500     3.9091     3.6347 H       
  39 H39           -3.3470     2.2149     0.3582 H       
  40 H40           -1.1454     3.3128     0.2605 H       
  41 H41            0.6547     1.8148     4.9588 H       
  42 H42            2.4253     1.6667     4.8520 H       
  43 H43            1.6980     3.0223     5.7474 H       
@<TRIPOS>BOND
   1    1   14 ar
   2    1    4 1
   3    1   21 ar
   4    2    3 ar
   5    2    5 ar
   6    2   24 1
   7    3    4 1
   8    3    8 ar
   9    4   16 1
  10    4   25 1
  11    5    6 ar
  12    5   26 1
  13    6    7 ar
  14    6    9 1
  15    7    8 ar
  16    7   27 1
  17    8   28 1
  18    9   10 2
  19    9   13 1
  20   10   11 1
  21   10   29 1
  22   11   12 1
  23   11   30 1
  24   12   13 2
  25   13   31 1
  26   14   15 ar
  27   14   32 1
  28   15   19 ar
  29   15   33 1
  30   16   17 1
  31   16   34 1
  32   16   35 1
  33   17   18 1
  34   17   36 1
  35   18   23 1
  36   18   37 1
  37   18   38 1
  38   19   20 ar
  39   19   22 1
  40   20   21 ar
  41   20   39 1
  42   21   40 1
  43   23   41 1
  44   23   42 1
  45   23   43 1

#	End of record

