#	Name: ASD02198656
#	Creating user name:	WinNT
#	Creation time:	15. 06. 2019 20:19

#	Modifying user name:	WinNT
#	Modification time:	15. 06. 2019 20:19

#	Program:	/corina/corina34_cracker 3.40 0067  02.08.2006

@<TRIPOS>MOLECULE
ASD02198656
  55   59    0    0    0
SMALL
NO_CHARGES


@<TRIPOS>ATOM
   1 C1             0.0067     1.5061     0.1348 C.2     
   2 C2             0.0730     0.1659    -0.0930 C.2     
   3 N3            -1.0538    -0.5635    -0.2629 N.pl3   
   4 N4            -2.2314    -0.0591    -0.2226 N.2     
   5 C5            -2.4381     1.2242    -0.0100 C.2     
   6 C6            -1.2792     2.1040     0.1931 C.2     
   7 C7            -0.9272    -1.9375    -0.4947 C.ar    
   8 C8            -1.5139    -2.5106    -1.6189 C.ar    
   9 C9            -1.3878    -3.8693    -1.8465 C.ar    
  10 C10           -0.6750    -4.6599    -0.9517 C.ar    
  11 C11           -0.0905    -4.0856     0.1701 C.ar    
  12 C12           -0.2108    -2.7290     0.3945 C.ar    
  13 N13           -0.5468    -6.0336    -1.1809 N.3     
  14 C14            0.8666    -6.4163    -1.3120 C.3     
  15 C15            0.9637    -7.9324    -1.5016 C.3     
  16 O16            0.1910    -8.3156    -2.6424 O.3     
  17 C17           -1.1907    -7.9587    -2.5481 C.3     
  18 C18           -1.3097    -6.4429    -2.3691 C.3     
  19 C19           -3.8109     1.7682     0.0294 C.2     
  20 N20           -4.3725     2.4816     1.0507 N.pl3   
  21 N21           -5.6838     2.8014     0.6771 N.2     
  22 C22           -5.9143     2.3085    -0.5137 C.2     
  23 C23           -4.7641     1.6569    -0.9589 C.2     
  24 C24           -3.7487     2.8303     2.2553 C.ar    
  25 C25           -3.9173     4.1036     2.7832 C.ar    
  26 C26           -3.3008     4.4443     3.9712 C.ar    
  27 C27           -2.5163     3.5189     4.6349 C.ar    
  28 C28           -2.3464     2.2502     4.1118 C.ar    
  29 C29           -2.9648     1.9015     2.9272 C.ar    
  30 O30           -1.4162     3.3022     0.3944 O.2     
  31 O31            1.1345     2.2465     0.3065 O.3     
  32 C32            2.3823     1.5536     0.2365 C.3     
  33 F33           -2.2064    -1.7410    -2.4868 F       
  34 F34           -1.9570    -4.4277    -2.9371 F       
  35 H35            1.0360    -0.3208    -0.1392 H       
  36 H36            0.4626    -4.7003     0.8647 H       
  37 H37            0.2442    -2.2840     1.2671 H       
  38 H38            1.3014    -5.9129    -2.1755 H       
  39 H39            1.4071    -6.1268    -0.4108 H       
  40 H40            2.0053    -8.2138    -1.6563 H       
  41 H41            0.5779    -8.4355    -0.6150 H       
  42 H42           -1.7072    -8.2592    -3.4597 H       
  43 H43           -1.6392    -8.4626    -1.6920 H       
  44 H44           -2.3577    -6.1728    -2.2396 H       
  45 H45           -0.9096    -5.9399    -3.2495 H       
  46 H46           -6.8406     2.3954    -1.0622 H       
  47 H47           -4.6443     1.1511    -1.9056 H       
  48 H48           -4.5296     4.8268     2.2651 H       
  49 H49           -3.4313     5.4345     4.3820 H       
  50 H50           -2.0349     3.7879     5.5635 H       
  51 H51           -1.7327     1.5298     4.6324 H       
  52 H52           -2.8318     0.9104     2.5192 H       
  53 H53            3.1988     2.2592     0.3900 H       
  54 H54            2.4155     0.7858     1.0095 H       
  55 H55            2.4845     1.0873    -0.7434 H       
@<TRIPOS>BOND
   1    1    2 2
   2    1   31 1
   3    1    6 1
   4    2    3 1
   5    2   35 1
   6    3    4 1
   7    3    7 1
   8    4    5 2
   9    5    6 1
  10    5   19 1
  11    6   30 2
  12    7    8 ar
  13    7   12 ar
  14    8    9 ar
  15    8   33 1
  16    9   10 ar
  17    9   34 1
  18   10   11 ar
  19   10   13 1
  20   11   12 ar
  21   11   36 1
  22   12   37 1
  23   13   14 1
  24   13   18 1
  25   14   15 1
  26   14   38 1
  27   14   39 1
  28   15   16 1
  29   15   40 1
  30   15   41 1
  31   16   17 1
  32   17   18 1
  33   17   42 1
  34   17   43 1
  35   18   44 1
  36   18   45 1
  37   19   20 1
  38   19   23 2
  39   20   21 1
  40   20   24 1
  41   21   22 2
  42   22   23 1
  43   22   46 1
  44   23   47 1
  45   24   25 ar
  46   24   29 ar
  47   25   26 ar
  48   25   48 1
  49   26   27 ar
  50   26   49 1
  51   27   28 ar
  52   27   50 1
  53   28   29 ar
  54   28   51 1
  55   29   52 1
  56   31   32 1
  57   32   53 1
  58   32   54 1
  59   32   55 1

#	End of record

