#	Name: ASD06020002
#	Creating user name:	WinNT
#	Creation time:	15. 06. 2019 21:04

#	Modifying user name:	WinNT
#	Modification time:	15. 06. 2019 21:04

#	Program:	/corina/corina34_cracker 3.40 0067  02.08.2006

@<TRIPOS>MOLECULE
ASD06020002
  37   40    0    0    0
SMALL
NO_CHARGES


@<TRIPOS>ATOM
   1 C1             0.0072    -0.0031     0.0579 C.1     
   2 C2            -0.0130     1.4287     0.0554 C.ar    
   3 C3             1.1870     2.1442     0.0336 C.ar    
   4 C4             1.1679     3.5218     0.0312 C.ar    
   5 C5            -0.0521     4.2038     0.0506 C.ar    
   6 C6            -1.2524     3.4878     0.0724 C.ar    
   7 C7            -1.2328     2.1101     0.0689 C.ar    
   8 N8             0.0232    -1.1390     0.0599 N.1     
   9 C9            -0.8915     9.4871     0.0578 C.ar    
  10 C10           -0.5507     8.1300     0.0536 C.ar    
  11 C11            0.7984     7.7572     0.0318 C.ar    
  12 C12            1.7564     8.8033     0.0142 C.ar    
  13 C13            1.3374    10.0960     0.0189 C.ar    
  14 N14            0.0520    10.4125     0.0412 N.ar    
  15 S15           -1.5294     6.6673     0.0713 S.3     
  16 C16           -0.0729     5.6812     0.0485 C.2     
  17 N17            0.9772     6.4361     0.0304 N.2     
  18 N18           -2.2308     9.8645     0.0735 N.pl3   
  19 C19           -2.5739    11.2081     0.1901 C.ar    
  20 C20           -3.9086    11.6013     0.0946 C.ar    
  21 C21           -4.1975    12.9510     0.2175 C.ar    
  22 C22           -3.1420    13.8277     0.4279 C.ar    
  23 N23           -1.9089    13.3685     0.5052 N.ar    
  24 N24           -1.6346    12.1193     0.3977 N.ar    
  25 C25           -3.4059    15.3048     0.5674 C.3     
  26 Cl26          -2.7678     4.3343     0.0964 Cl      
  27 Cl27           2.6589     4.4107     0.0047 Cl      
  28 H28            2.1296     1.6172     0.0190 H       
  29 H29           -2.1602     1.5568     0.0809 H       
  30 H30            2.8116     8.5738    -0.0026 H       
  31 H31            2.0730    10.8867     0.0057 H       
  32 H32           -2.9253     9.1909     0.0033 H       
  33 H33           -4.6923    10.8767    -0.0703 H       
  34 H34           -5.2138    13.3103     0.1513 H       
  35 H35           -3.5764    15.5460     1.6166 H       
  36 H36           -2.5448    15.8640     0.2014 H       
  37 H37           -4.2874    15.5730    -0.0150 H       
@<TRIPOS>BOND
   1    1    2 1
   2    1    8 3
   3    2    3 ar
   4    2    7 ar
   5    3    4 ar
   6    3   28 1
   7    4    5 ar
   8    4   27 1
   9    5    6 ar
  10    5   16 1
  11    6    7 ar
  12    6   26 1
  13    7   29 1
  14    9   10 ar
  15    9   14 ar
  16    9   18 1
  17   10   11 ar
  18   10   15 1
  19   11   12 ar
  20   11   17 1
  21   12   13 ar
  22   12   30 1
  23   13   14 ar
  24   13   31 1
  25   15   16 1
  26   16   17 2
  27   18   19 1
  28   18   32 1
  29   19   20 ar
  30   19   24 ar
  31   20   21 ar
  32   20   33 1
  33   21   22 ar
  34   21   34 1
  35   22   23 ar
  36   22   25 1
  37   23   24 ar
  38   25   35 1
  39   25   36 1
  40   25   37 1

#	End of record

