#	Name: ASD01911651
#	Creating user name:	WinNT
#	Creation time:	15. 06. 2019 19:58

#	Modifying user name:	WinNT
#	Modification time:	15. 06. 2019 19:58

#	Program:	/corina/corina34_cracker 3.40 0067  02.08.2006

@<TRIPOS>MOLECULE
ASD01911651
  36   37    0    0    0
SMALL
NO_CHARGES


@<TRIPOS>ATOM
   1 N1            -0.1001     1.1700    -0.0100 N.am    
   2 C2             0.1004    -0.1616     0.0476 C.2     
   3 C3            -1.0387    -1.0671     0.2182 C.2     
   4 C4            -0.9704    -2.4253     0.3746 C.2     
   5 S5            -2.7370    -0.5981     0.2659 S.3     
   6 C6            -3.1948    -2.2845     0.4859 C.2     
   7 N7            -2.1171    -3.0287     0.5107 N.2     
   8 C8            -4.5364    -2.7667     0.6213 C.1     
   9 C9            -5.6363    -3.1620     0.7323 C.1     
  10 C10           -6.9779    -3.6441     0.8678 C.ar    
  11 C11           -7.2195    -5.0107     1.0383 C.ar    
  12 C12           -8.5142    -5.4672     1.1685 C.ar    
  13 C13           -9.5729    -4.5767     1.1303 C.ar    
  14 C14           -9.3417    -3.2226     0.9618 C.ar    
  15 C15           -8.0524    -2.7500     0.8360 C.ar    
  16 O16            1.2276    -0.6117    -0.0420 O.2     
  17 C17           -1.4637     1.7052    -0.0305 C.3     
  18 C18            1.0456     2.0823    -0.0461 C.3     
  19 C19            1.5258     2.2411    -1.4901 C.3     
  20 C20           -1.9938     1.8053     1.4012 C.3     
  21 H21           -0.0317    -2.9594     0.3840 H       
  22 H22           -6.3944    -5.7069     1.0676 H       
  23 H23           -8.7025    -6.5225     1.3003 H       
  24 H24          -10.5847    -4.9403     1.2321 H       
  25 H25          -10.1731    -2.5338     0.9327 H       
  26 H26           -7.8735    -1.6931     0.7045 H       
  27 H27           -1.4585     2.6955    -0.4861 H       
  28 H28           -2.1057     1.0420    -0.6102 H       
  29 H29            0.7483     3.0545     0.3469 H       
  30 H30            1.8531     1.6757     0.5627 H       
  31 H31            1.8230     1.2689    -1.8832 H       
  32 H32            0.7182     2.6477    -2.0989 H       
  33 H33            2.3782     2.9199    -1.5170 H       
  34 H34           -1.3518     2.4686     1.9808 H       
  35 H35           -3.0084     2.2036     1.3859 H       
  36 H36           -1.9990     0.8151     1.8567 H       
@<TRIPOS>BOND
   1    1    2 am
   2    1   17 1
   3    1   18 1
   4    2    3 1
   5    2   16 2
   6    3    4 2
   7    3    5 1
   8    4    7 1
   9    4   21 1
  10    5    6 1
  11    6    7 2
  12    6    8 1
  13    8    9 3
  14    9   10 1
  15   10   11 ar
  16   10   15 ar
  17   11   12 ar
  18   11   22 1
  19   12   13 ar
  20   12   23 1
  21   13   14 ar
  22   13   24 1
  23   14   15 ar
  24   14   25 1
  25   15   26 1
  26   17   20 1
  27   17   27 1
  28   17   28 1
  29   18   19 1
  30   18   29 1
  31   18   30 1
  32   19   31 1
  33   19   32 1
  34   19   33 1
  35   20   34 1
  36   20   35 1
  37   20   36 1

#	End of record

