#	Name: ASD09116205
#	Creating user name:	WinNT
#	Creation time:	15. 06. 2019 21:21

#	Modifying user name:	WinNT
#	Modification time:	15. 06. 2019 21:21

#	Program:	/corina/corina34_cracker 3.40 0067  02.08.2006

@<TRIPOS>MOLECULE
ASD09116205
  69   74    0    0    0
SMALL
NO_CHARGES


@<TRIPOS>ATOM
   1 N1            -0.0286     1.4165     0.1358 N.2     
   2 N2            -0.0190     0.0168     0.2470 N.pl3   
   3 C3             1.2231     1.8068     0.1072 C.2     
   4 N4             2.0169     0.7330     0.1941 N.2     
   5 C5             1.2822    -0.3553     0.2792 C.2     
   6 N6             1.6572     3.1286     0.0023 N.pl3   
   7 C7             3.0132     3.4250     0.0961 C.ar    
   8 C8             3.5329     4.5233    -0.5836 C.ar    
   9 C9             5.7143     4.0155     0.2832 C.ar    
  10 C10            5.1883     2.9170     0.9695 C.ar    
  11 C11            3.8468     2.6259     0.8740 C.ar    
  12 C12           -1.1312    -0.8246     0.3121 C.ar    
  13 N13           -1.0295    -2.0879    -0.0733 N.ar    
  14 N14           -2.0248    -2.9009    -0.0428 N.ar    
  15 C15           -3.2200    -2.5190     0.3780 C.ar    
  16 C16           -3.4165    -1.2091     0.8245 C.ar    
  17 C17           -2.3501    -0.3357     0.7890 C.ar    
  18 C18           -4.3814    -3.4383     0.3632 C.ar    
  19 C19           -5.5790    -3.0031    -0.2064 C.ar    
  20 C20           -5.6430    -1.6392    -0.8376 C.3     
  21 C21           -5.7406    -0.5412     0.2180 C.3     
  22 C22           -4.7580    -0.7975     1.3575 C.3     
  23 C23           -4.2937    -4.7145     0.9083 C.ar    
  24 C24           -5.4018    -5.5394     0.8995 C.ar    
  25 C25           -6.5926    -5.0966     0.3528 C.ar    
  26 C26           -6.6817    -3.8301    -0.1985 C.ar    
  27 N27            1.7554    -1.6494     0.3836 N.pl3   
  28 C28            4.8737     4.8190    -0.4929 C.ar    
  29 C29            7.1520     4.3306     0.3837 C.2     
  30 C30            9.0853     5.7028    -0.1787 C.3     
  31 N31            7.6576     5.3899    -0.2785 N.am    
  32 C32            9.3956     6.9431    -1.0191 C.3     
  33 O33            7.8808     3.6345     1.0640 O.2     
  34 N34           10.8272     7.2568    -0.9190 N.3     
  35 C35           11.2104     8.2937    -1.8947 C.3     
  36 C36           11.8425     9.4567    -1.1015 C.3     
  37 C37           12.2990     8.7745     0.2150 C.3     
  38 C38           11.1710     7.7361     0.4367 C.3     
  39 H39            1.0135     3.8410    -0.1359 H       
  40 H40            2.8830     5.1436    -1.1830 H       
  41 H41            5.8352     2.2942     1.5695 H       
  42 H42            3.4399     1.7770     1.4034 H       
  43 H43           -2.4553     0.6902     1.1097 H       
  44 H44           -4.7454    -1.4805    -1.4353 H       
  45 H45           -6.5165    -1.5878    -1.4875 H       
  46 H46           -5.5134     0.4203    -0.2423 H       
  47 H47           -6.7546    -0.5164     0.6173 H       
  48 H48           -5.1484    -1.5899     1.9961 H       
  49 H49           -4.6458     0.1133     1.9458 H       
  50 H50           -3.3638    -5.0592     1.3361 H       
  51 H51           -5.3380    -6.5321     1.3201 H       
  52 H52           -7.4580    -5.7428     0.3561 H       
  53 H53           -7.6148    -3.4901    -0.6228 H       
  54 H54            2.7107    -1.8168     0.3990 H       
  55 H55            1.1322    -2.3905     0.4416 H       
  56 H56            5.2764     5.6707    -1.0210 H       
  57 H57            9.3430     5.8958     0.8627 H       
  58 H58            9.6688     4.8590    -0.5471 H       
  59 H59            7.0762     5.9452    -0.8212 H       
  60 H60            9.1379     6.7502    -2.0605 H       
  61 H61            8.8121     7.7869    -0.6507 H       
  62 H62           11.9357     7.8888    -2.6004 H       
  63 H63           10.3273     8.6454    -2.4281 H       
  64 H64           12.6968     9.8696    -1.6379 H       
  65 H65           11.1030    10.2311    -0.8979 H       
  66 H66           13.2629     8.2823     0.0858 H       
  67 H67           12.3355     9.4923     1.0344 H       
  68 H68           10.3064     8.2087     0.9027 H       
  69 H69           11.5305     6.9107     1.0512 H       
@<TRIPOS>BOND
   1    1    2 1
   2    1    3 2
   3    2   12 1
   4    2    5 1
   5    3    4 1
   6    3    6 1
   7    4    5 2
   8    5   27 1
   9    6    7 1
  10    6   39 1
  11    7    8 ar
  12    7   11 ar
  13    8   28 ar
  14    8   40 1
  15    9   10 ar
  16    9   28 ar
  17    9   29 1
  18   10   11 ar
  19   10   41 1
  20   11   42 1
  21   12   13 ar
  22   12   17 ar
  23   13   14 ar
  24   14   15 ar
  25   15   16 ar
  26   15   18 1
  27   16   17 ar
  28   16   22 1
  29   17   43 1
  30   18   19 ar
  31   18   23 ar
  32   19   20 1
  33   19   26 ar
  34   20   21 1
  35   20   44 1
  36   20   45 1
  37   21   22 1
  38   21   46 1
  39   21   47 1
  40   22   48 1
  41   22   49 1
  42   23   24 ar
  43   23   50 1
  44   24   25 ar
  45   24   51 1
  46   25   26 ar
  47   25   52 1
  48   26   53 1
  49   27   54 1
  50   27   55 1
  51   28   56 1
  52   29   33 2
  53   29   31 am
  54   30   31 1
  55   30   32 1
  56   30   57 1
  57   30   58 1
  58   31   59 1
  59   32   34 1
  60   32   60 1
  61   32   61 1
  62   34   35 1
  63   34   38 1
  64   35   36 1
  65   35   62 1
  66   35   63 1
  67   36   37 1
  68   36   64 1
  69   36   65 1
  70   37   38 1
  71   37   66 1
  72   37   67 1
  73   38   68 1
  74   38   69 1

#	End of record

