#	Name: ASD00311446
#	Creating user name:	WinNT
#	Creation time:	15. 06. 2019 18:34

#	Modifying user name:	WinNT
#	Modification time:	15. 06. 2019 18:34

#	Program:	/corina/corina34_cracker 3.40 0067  02.08.2006

@<TRIPOS>MOLECULE
ASD00311446
  50   54    0    0    0
SMALL
NO_CHARGES


@<TRIPOS>ATOM
   1 C1            -0.0167     1.3774     0.0096 C.2     
   2 C2             0.0021    -0.0041     0.0020 C.2     
   3 C3             1.2584    -0.6767    -0.0139 C.2     
   4 C4             2.4315     0.0670    -0.0214 C.2     
   5 C5             2.3575     1.4748    -0.0131 C.2     
   6 N6             1.1650     2.0900     0.0022 N.am    
   7 C7            -1.3436    -0.5756     0.0126 C.2     
   8 C8            -2.3237     0.3272     0.0274 C.2     
   9 S9            -1.6790     1.9568     0.0358 S.3     
  10 O10            3.3825     2.1369    -0.0196 O.2     
  11 C11            3.7475    -0.6124    -0.0375 C.ar    
  12 C12            4.5930    -0.4752    -1.1382 C.ar    
  13 C13            5.8177    -1.1107    -1.1473 C.ar    
  14 C14            6.2074    -1.8831    -0.0677 C.ar    
  15 C15            5.3732    -2.0231     1.0270 C.ar    
  16 C16            4.1486    -1.3875     1.0505 C.ar    
  17 C17           -2.0698    -4.7663    -0.0042 C.ar    
  18 C18           -2.4424    -3.9985     1.0993 C.ar    
  19 C19           -2.2072    -2.6417     1.1052 C.ar    
  20 C20           -1.5962    -2.0347     0.0069 C.ar    
  21 C21           -1.2236    -2.8033    -1.0970 C.ar    
  22 C22           -1.4591    -4.1601    -1.1021 C.ar    
  23 C23           -2.3181    -6.2278    -0.0078 C.ar    
  24 C24           -2.9537    -6.8299    -1.0988 C.ar    
  25 C25           -3.1812    -8.1963    -1.0938 C.ar    
  26 C26           -2.7809    -8.9611    -0.0140 C.ar    
  27 C27           -2.1524    -8.3686     1.0667 C.ar    
  28 C28           -1.9142    -7.0089     1.0727 C.ar    
  29 O29           -3.3470    -6.0772    -2.1591 O.3     
  30 C30           -3.9899    -6.7606    -3.2370 C.3     
  31 O31            1.3081    -2.0293    -0.0212 O.3     
  32 Cl32          -4.0159    -0.0600     0.0416 Cl      
  33 H33            1.1328     3.0594     0.0073 H       
  34 H34            4.2896     0.1270    -1.9818 H       
  35 H35            6.4733    -1.0051    -1.9990 H       
  36 H36            7.1667    -2.3792    -0.0797 H       
  37 H37            5.6827    -2.6277     1.8666 H       
  38 H38            3.5003    -1.4936     1.9077 H       
  39 H39           -2.9152    -4.4682     1.9491 H       
  40 H40           -2.4963    -2.0471     1.9592 H       
  41 H41           -0.7505    -2.3340    -1.9469 H       
  42 H42           -1.1709    -4.7548    -1.9563 H       
  43 H43           -3.6720    -8.6645    -1.9342 H       
  44 H44           -2.9601   -10.0262    -0.0139 H       
  45 H45           -1.8433    -8.9727     1.9069 H       
  46 H46           -1.4193    -6.5504     1.9161 H       
  47 H47           -3.3139    -7.5117    -3.6456 H       
  48 H48           -4.8945    -7.2464    -2.8711 H       
  49 H49           -4.2517    -6.0449    -4.0163 H       
  50 H50            2.2053    -2.3898    -0.0320 H       
@<TRIPOS>BOND
   1    1    2 2
   2    1    6 1
   3    1    9 1
   4    2    3 1
   5    2    7 1
   6    3    4 2
   7    3   31 1
   8    4    5 1
   9    4   11 1
  10    5    6 am
  11    5   10 2
  12    6   33 1
  13    7    8 2
  14    7   20 1
  15    8    9 1
  16    8   32 1
  17   11   12 ar
  18   11   16 ar
  19   12   13 ar
  20   12   34 1
  21   13   14 ar
  22   13   35 1
  23   14   15 ar
  24   14   36 1
  25   15   16 ar
  26   15   37 1
  27   16   38 1
  28   17   18 ar
  29   17   22 ar
  30   17   23 1
  31   18   19 ar
  32   18   39 1
  33   19   20 ar
  34   19   40 1
  35   20   21 ar
  36   21   22 ar
  37   21   41 1
  38   22   42 1
  39   23   24 ar
  40   23   28 ar
  41   24   25 ar
  42   24   29 1
  43   25   26 ar
  44   25   43 1
  45   26   27 ar
  46   26   44 1
  47   27   28 ar
  48   27   45 1
  49   28   46 1
  50   29   30 1
  51   30   47 1
  52   30   48 1
  53   30   49 1
  54   31   50 1

#	End of record

