#	Name: ASD08150479
#	Creating user name:	WinNT
#	Creation time:	15. 06. 2019 21:16

#	Modifying user name:	WinNT
#	Modification time:	15. 06. 2019 21:16

#	Program:	/corina/corina34_cracker 3.40 0067  02.08.2006

@<TRIPOS>MOLECULE
ASD08150479
  47   52    0    0    0
SMALL
NO_CHARGES


@<TRIPOS>ATOM
   1 N1             1.0086     3.1186    -1.7239 N.am    
   2 C2             1.4482     2.5097    -2.8423 C.2     
   3 C3             2.6553     1.7816    -2.8432 C.2     
   4 C4             3.3952     1.6845    -1.7093 C.2     
   5 C5             2.9359     2.3242    -0.5309 C.ar    
   6 C6             3.6651     2.2553     0.6715 C.ar    
   7 N7             3.2390     2.8464     1.7571 N.ar    
   8 C8             2.0951     3.5466     1.7911 C.ar    
   9 C9             1.2970     3.6695     0.6271 C.ar    
  10 C10            1.7297     3.0408    -0.5641 C.ar    
  11 C11            0.1060     4.4006     0.6733 C.ar    
  12 C12           -0.2816     4.9988     1.8613 C.ar    
  13 C13            0.5134     4.8728     3.0092 C.ar    
  14 C14            1.6746     4.1655     2.9798 C.ar    
  15 O15            0.7931     2.5891    -3.8675 O.2     
  16 C16           -1.5432     5.7765     1.9190 C.ar    
  17 C17           -0.1915     3.8405    -1.7503 C.ar    
  18 C18           -0.1886     5.1997    -2.0298 C.ar    
  19 N19           -1.3157     5.8841    -2.0554 N.ar    
  20 C20           -2.4817     5.3119    -1.8194 C.ar    
  21 C21           -2.5643     3.9583    -1.5330 C.ar    
  22 C22           -1.4052     3.2026    -1.5020 C.ar    
  23 F23           -3.6091     6.0554    -1.8570 F       
  24 C24           -1.6170     6.9326     2.6819 C.ar    
  25 C25           -2.6700     5.3510     1.1968 C.ar    
  26 N26           -3.7958     6.0175     1.2287 N.ar    
  27 C27           -3.9296     7.1361     1.9498 C.ar    
  28 C28           -2.8358     7.6329     2.7021 C.ar    
  29 C29           -5.1473     7.8381     1.9719 C.ar    
  30 C30           -5.2601     8.9738     2.7134 C.ar    
  31 C31           -4.1849     9.4578     3.4561 C.ar    
  32 C32           -2.9884     8.8084     3.4566 C.ar    
  33 H33            2.9923     1.2992    -3.7488 H       
  34 H34            4.3205     1.1275    -1.7051 H       
  35 H35            4.5933     1.7037     0.6977 H       
  36 H36           -0.5069     4.4985    -0.2106 H       
  37 H37            0.1998     5.3441     3.9289 H       
  38 H38            2.2746     4.0784     3.8735 H       
  39 H39            0.7464     5.7024    -2.2280 H       
  40 H40           -3.5221     3.4979    -1.3407 H       
  41 H41           -1.4397     2.1459    -1.2816 H       
  42 H42           -0.7641     7.2838     3.2437 H       
  43 H43           -2.6059     4.4527     0.6008 H       
  44 H44           -5.9908     7.4774     1.4019 H       
  45 H45           -6.1981     9.5089     2.7260 H       
  46 H46           -4.3013    10.3615     4.0359 H       
  47 H47           -2.1622     9.1927     4.0364 H       
@<TRIPOS>BOND
   1    1    2 am
   2    1   10 1
   3    1   17 1
   4    2    3 1
   5    2   15 2
   6    3    4 2
   7    3   33 1
   8    4    5 1
   9    4   34 1
  10    5    6 ar
  11    5   10 ar
  12    6    7 ar
  13    6   35 1
  14    7    8 ar
  15    8    9 ar
  16    8   14 ar
  17    9   10 ar
  18    9   11 ar
  19   11   12 ar
  20   11   36 1
  21   12   13 ar
  22   12   16 1
  23   13   14 ar
  24   13   37 1
  25   14   38 1
  26   16   25 ar
  27   16   24 ar
  28   17   18 ar
  29   17   22 ar
  30   18   19 ar
  31   18   39 1
  32   19   20 ar
  33   20   21 ar
  34   20   23 1
  35   21   22 ar
  36   21   40 1
  37   22   41 1
  38   24   28 ar
  39   24   42 1
  40   25   26 ar
  41   25   43 1
  42   26   27 ar
  43   27   28 ar
  44   27   29 ar
  45   28   32 ar
  46   29   30 ar
  47   29   44 1
  48   30   31 ar
  49   30   45 1
  50   31   32 ar
  51   31   46 1
  52   32   47 1

#	End of record

