#	Name: ASD02770050
#	Creating user name:	WinNT
#	Creation time:	15. 06. 2019 20:26

#	Modifying user name:	WinNT
#	Modification time:	15. 06. 2019 20:26

#	Program:	/corina/corina34_cracker 3.40 0067  02.08.2006

@<TRIPOS>MOLECULE
ASD02770050
  42   42    0    0    0
SMALL
NO_CHARGES


@<TRIPOS>ATOM
   1 C1             2.2147     2.2043    -0.6423 C.2     
   2 C2             1.8104     0.8650    -0.4121 C.2     
   3 C3             2.6657    -0.1509    -0.6601 C.2     
   4 O4             3.3318     2.4386    -1.0631 O.2     
   5 O5             1.3585     3.2186    -0.3999 O.3     
   6 C6             2.2467    -1.5391    -0.4215 C.ar    
   7 C7             3.1312    -2.5932    -0.6778 C.ar    
   8 C8             2.7358    -3.8934    -0.4533 C.ar    
   9 C9             1.4607    -4.1622     0.0265 C.ar    
  10 C10            0.5736    -3.1176     0.2843 C.ar    
  11 C11            0.9637    -1.8108     0.0681 C.ar    
  12 O12           -0.6743    -3.3857     0.7537 O.3     
  13 C13           -1.5305    -2.2675     0.9958 C.3     
  14 O14            1.0763    -5.4464     0.2450 O.3     
  15 C15            1.1870    -5.9381     1.5822 C.3     
  16 S16            3.8506    -5.2191    -0.7765 S.o2    
  17 O17            5.0291    -4.6313    -1.3103 O.2     
  18 O18            3.8479    -6.0378     0.3850 O.2     
  19 N19            3.1903    -6.1296    -1.9919 N.am    
  20 C20            2.9654    -5.5361    -3.3123 C.3     
  21 C21            2.7806    -6.6483    -4.3466 C.3     
  22 C22            2.5456    -6.0285    -5.7256 C.3     
  23 O23            2.3730    -7.0673    -6.6916 O.3     
  24 H24            0.8187     0.6569    -0.0385 H       
  25 H25            3.6575     0.0572    -1.0337 H       
  26 H26            1.7234     4.0944    -0.5864 H       
  27 H27            4.1233    -2.3872    -1.0517 H       
  28 H28            0.2792    -1.0006     0.2719 H       
  29 H29           -1.0727    -1.6133     1.7377 H       
  30 H30           -1.6790    -1.7160     0.0674 H       
  31 H31           -2.4928    -2.6203     1.3667 H       
  32 H32            0.8263    -6.9660     1.6223 H       
  33 H33            2.2305    -5.9067     1.8956 H       
  34 H34            0.5886    -5.3168     2.2485 H       
  35 H35            2.9525    -7.0559    -1.8296 H       
  36 H36            2.0706    -4.9144    -3.2835 H       
  37 H37            3.8245    -4.9239    -3.5867 H       
  38 H38            3.6754    -7.2701    -4.3754 H       
  39 H39            1.9215    -7.2605    -4.0723 H       
  40 H40            1.6508    -5.4067    -5.6968 H       
  41 H41            3.4048    -5.4163    -5.9999 H       
  42 H42            2.2194    -6.7466    -7.5908 H       
@<TRIPOS>BOND
   1    1    2 1
   2    1    4 2
   3    1    5 1
   4    2    3 2
   5    2   24 1
   6    3    6 1
   7    3   25 1
   8    5   26 1
   9    6    7 ar
  10    6   11 ar
  11    7    8 ar
  12    7   27 1
  13    8    9 ar
  14    8   16 1
  15    9   10 ar
  16    9   14 1
  17   10   11 ar
  18   10   12 1
  19   11   28 1
  20   12   13 1
  21   13   29 1
  22   13   30 1
  23   13   31 1
  24   14   15 1
  25   15   32 1
  26   15   33 1
  27   15   34 1
  28   16   17 2
  29   16   18 2
  30   16   19 am
  31   19   20 1
  32   19   35 1
  33   20   21 1
  34   20   36 1
  35   20   37 1
  36   21   22 1
  37   21   38 1
  38   21   39 1
  39   22   23 1
  40   22   40 1
  41   22   41 1
  42   23   42 1

#	End of record

