#	Name: ASD01410286
#	Creating user name:	WinNT
#	Creation time:	15. 06. 2019 19:17

#	Modifying user name:	WinNT
#	Modification time:	15. 06. 2019 19:17

#	Program:	/corina/corina34_cracker 3.40 0067  02.08.2006

@<TRIPOS>MOLECULE
ASD01410286
  68   73    0    0    0
SMALL
NO_CHARGES


@<TRIPOS>ATOM
   1 C1             1.7953     1.7331     0.3944 C.2     
   2 C2             2.5647     0.6541     0.6102 C.2     
   3 C3             1.8477    -0.4803     0.0128 C.2     
   4 C4             0.7032     0.0411    -0.5090 C.2     
   5 O5             0.6919     1.3588    -0.2711 O.3     
   6 N6             1.4869    -2.9193    -0.2118 N.2     
   7 C7             2.2790    -1.8932    -0.0163 C.2     
   8 N8             3.5664    -2.3274     0.1563 N.pl3   
   9 C9             3.5516    -3.7034     0.0591 C.ar    
  10 C10            2.2120    -4.0657    -0.1767 C.ar    
  11 C11            4.5345    -4.6825     0.1463 C.ar    
  12 C12            4.2057    -5.9994     0.0032 C.ar    
  13 C13            2.8776    -6.3784    -0.2324 C.ar    
  14 C14            1.8797    -5.4127    -0.3219 C.ar    
  15 C15            7.0407    -0.9166    -0.3955 C.3     
  16 C16            7.5943    -1.2039     1.0016 C.3     
  17 C17            6.5220    -0.8956     2.0485 C.3     
  18 C18            5.2949    -1.7738     1.7956 C.3     
  19 C19            4.7413    -1.4865     0.3985 C.3     
  20 C20            5.8137    -1.7948    -0.6484 C.3     
  21 C21            2.5357    -7.8068    -0.3857 C.2     
  22 N22            3.5006    -8.7438    -0.2989 N.am    
  23 O23            1.3838    -8.1376    -0.5903 O.2     
  24 C24            3.1614   -10.1608    -0.4510 C.3     
  25 C25            2.6995   -10.7220     0.8953 C.3     
  26 C26            4.3750   -10.9201    -0.9220 C.2     
  27 N27            4.2987   -12.2492    -1.1322 N.am    
  28 O28            5.4204   -10.3351    -1.1119 O.2     
  29 C29            5.5632   -14.2922    -1.4209 C.ar    
  30 C30            6.6281   -14.9809    -1.9566 C.ar    
  31 C31            7.5442   -14.3246    -2.7711 C.ar    
  32 C32            7.3703   -12.9544    -3.0407 C.ar    
  33 C33            6.2870   -12.2631    -2.4926 C.ar    
  34 C34            5.3881   -12.9345    -1.6859 C.ar    
  35 O35            8.6549   -14.7294    -3.4192 O.3     
  36 C36            9.2167   -13.7057    -4.0955 C.2     
  37 C37            8.4826   -12.5769    -3.9117 C.2     
  38 C38           10.4364   -13.7975    -4.9072 C.2     
  39 O39           10.8620   -12.8123    -5.4786 O.2     
  40 O40           11.0849   -14.9746    -5.0191 O.3     
  41 H41            2.0255     2.7400     0.7099 H       
  42 H42            3.5167     0.6259     1.1194 H       
  43 H43           -0.0648    -0.5138    -1.0273 H       
  44 H44            5.5612    -4.4003     0.3273 H       
  45 H45            4.9747    -6.7546     0.0718 H       
  46 H46            0.8557    -5.7039    -0.5035 H       
  47 H47            6.7566     0.1334    -0.4648 H       
  48 H48            7.8047    -1.1362    -1.1413 H       
  49 H49            7.8785    -2.2540     1.0710 H       
  50 H50            8.4685    -0.5783     1.1818 H       
  51 H51            6.9164    -1.1003     3.0438 H       
  52 H52            6.2378     0.1544     1.9792 H       
  53 H53            5.5791    -2.8238     1.8649 H       
  54 H54            4.5310    -1.5542     2.5414 H       
  55 H55            4.4572    -0.4364     0.3292 H       
  56 H56            5.4193    -1.5901    -1.6437 H       
  57 H57            6.0978    -2.8448    -0.5790 H       
  58 H58            4.4196    -8.4799    -0.1358 H       
  59 H59            2.3604   -10.2662    -1.1827 H       
  60 H60            3.5005   -10.6167     1.6269 H       
  61 H61            1.8217   -10.1729     1.2359 H       
  62 H62            2.4471   -11.7764     0.7821 H       
  63 H63            3.4896   -12.7313    -0.9001 H       
  64 H64            4.8536   -14.8098    -0.7925 H       
  65 H65            6.7524   -16.0323    -1.7435 H       
  66 H66            6.1527   -11.2115    -2.6985 H       
  67 H67            8.6803   -11.5991    -4.3255 H       
  68 H68           11.8835   -14.9858    -5.5644 H       
@<TRIPOS>BOND
   1    1    2 2
   2    1    5 1
   3    1   41 1
   4    2    3 1
   5    2   42 1
   6    3    4 2
   7    3    7 1
   8    4    5 1
   9    4   43 1
  10    6    7 2
  11    6   10 1
  12    7    8 1
  13    8    9 1
  14    8   19 1
  15    9   10 ar
  16    9   11 ar
  17   10   14 ar
  18   11   12 ar
  19   11   44 1
  20   12   13 ar
  21   12   45 1
  22   13   14 ar
  23   13   21 1
  24   14   46 1
  25   15   16 1
  26   15   20 1
  27   15   47 1
  28   15   48 1
  29   16   17 1
  30   16   49 1
  31   16   50 1
  32   17   18 1
  33   17   51 1
  34   17   52 1
  35   18   19 1
  36   18   53 1
  37   18   54 1
  38   19   20 1
  39   19   55 1
  40   20   56 1
  41   20   57 1
  42   21   22 am
  43   21   23 2
  44   22   24 1
  45   22   58 1
  46   24   25 1
  47   24   26 1
  48   24   59 1
  49   25   60 1
  50   25   61 1
  51   25   62 1
  52   26   27 am
  53   26   28 2
  54   27   34 1
  55   27   63 1
  56   29   30 ar
  57   29   34 ar
  58   29   64 1
  59   30   31 ar
  60   30   65 1
  61   31   32 ar
  62   31   35 1
  63   32   33 ar
  64   32   37 1
  65   33   34 ar
  66   33   66 1
  67   35   36 1
  68   36   37 2
  69   36   38 1
  70   37   67 1
  71   38   39 2
  72   38   40 1
  73   40   68 1

#	End of record

