#	Name: ASD01850010
#	Creating user name:	WinNT
#	Creation time:	15. 06. 2019 19:38

#	Modifying user name:	WinNT
#	Modification time:	15. 06. 2019 19:38

#	Program:	/corina/corina34_cracker 3.40 0067  02.08.2006

@<TRIPOS>MOLECULE
ASD01850010
  45   49    0    0    0
SMALL
NO_CHARGES


@<TRIPOS>ATOM
   1 F1            -0.0109    -0.0043     0.0557 F       
   2 C2            -0.0249     1.3466     0.0509 C.ar    
   3 C3            -1.2132     2.0241    -0.1708 C.ar    
   4 C4            -1.2335     3.4029    -0.1772 C.ar    
   5 C5            -0.0543     4.1178     0.0407 C.ar    
   6 C6             1.1417     3.4318     0.2643 C.ar    
   7 C7             1.1506     2.0517     0.2740 C.ar    
   8 F8             2.3060     1.3859     0.4905 F       
   9 C9            -0.0713     5.5950     0.0342 C.2     
  10 O10            0.9717     6.2152     0.1074 O.2     
  11 N11           -1.2431     6.2550    -0.0528 N.am    
  12 C12           -2.5798     5.6601    -0.2647 C.3     
  13 C13           -3.5572     6.8573    -0.3474 C.3     
  14 N14           -2.6805     7.9774    -0.7294 N.am    
  15 C15           -1.4439     7.7058     0.0506 C.3     
  16 C16           -1.6034     8.1360     1.4860 C.ar    
  17 C17           -0.9180     7.4727     2.4866 C.ar    
  18 C18           -1.0643     7.8672     3.8033 C.ar    
  19 C19           -1.8957     8.9255     4.1194 C.ar    
  20 C20           -2.5804     9.5894     3.1188 C.ar    
  21 C21           -2.4307     9.1976     1.8016 C.ar    
  22 C22           -0.3604     8.4793    -0.6464 C.ar    
  23 C23            1.0109     8.4973    -0.5459 C.ar    
  24 C24            1.7537     9.3538    -1.3413 C.ar    
  25 C25            1.1208    10.1939    -2.2399 C.ar    
  26 C26           -0.2545    10.1813    -2.3534 C.ar    
  27 C27           -1.0095     9.3197    -1.5598 C.ar    
  28 C28           -2.4705     9.0822    -1.4464 C.2     
  29 O29           -3.3357     9.7848    -1.9316 O.2     
  30 H30           -2.1254     1.4710    -0.3393 H       
  31 H31           -2.1605     3.9291    -0.3508 H       
  32 H32            2.0567     3.9802     0.4329 H       
  33 H33           -2.5972     5.0940    -1.1960 H       
  34 H34           -2.8430     5.0157     0.5741 H       
  35 H35           -4.3152     6.6836    -1.1111 H       
  36 H36           -4.0206     7.0439     0.6214 H       
  37 H37           -0.2685     6.6459     2.2396 H       
  38 H38           -0.5294     7.3485     4.5851 H       
  39 H39           -2.0106     9.2333     5.1483 H       
  40 H40           -3.2301    10.4159     3.3658 H       
  41 H41           -2.9656     9.7163     1.0198 H       
  42 H42            1.5092     7.8431     0.1543 H       
  43 H43            2.8305     9.3662    -1.2595 H       
  44 H44            1.7052    10.8624    -2.8548 H       
  45 H45           -0.7451    10.8386    -3.0561 H       
@<TRIPOS>BOND
   1    1    2 1
   2    2    3 ar
   3    2    7 ar
   4    3    4 ar
   5    3   30 1
   6    4    5 ar
   7    4   31 1
   8    5    6 ar
   9    5    9 1
  10    6    7 ar
  11    6   32 1
  12    7    8 1
  13    9   10 2
  14    9   11 am
  15   11   12 1
  16   11   15 1
  17   12   13 1
  18   12   33 1
  19   12   34 1
  20   13   14 1
  21   13   35 1
  22   13   36 1
  23   14   15 1
  24   14   28 am
  25   15   16 1
  26   15   22 1
  27   16   17 ar
  28   16   21 ar
  29   17   18 ar
  30   17   37 1
  31   18   19 ar
  32   18   38 1
  33   19   20 ar
  34   19   39 1
  35   20   21 ar
  36   20   40 1
  37   21   41 1
  38   22   23 ar
  39   22   27 ar
  40   23   24 ar
  41   23   42 1
  42   24   25 ar
  43   24   43 1
  44   25   26 ar
  45   25   44 1
  46   26   27 ar
  47   26   45 1
  48   27   28 1
  49   28   29 2

#	End of record

