#	Name: ASD00960298
#	Creating user name:	WinNT
#	Creation time:	15. 06. 2019 18:53

#	Modifying user name:	WinNT
#	Modification time:	15. 06. 2019 18:53

#	Program:	/corina/corina34_cracker 3.40 0067  02.08.2006

@<TRIPOS>MOLECULE
ASD00960298
  37   39    0    0    0
SMALL
NO_CHARGES


@<TRIPOS>ATOM
   1 C1            -0.0171     1.4114     0.0098 C.2     
   2 N2             2.0947     0.7264    -0.0198 N.pl3   
   3 C3             1.3216    -0.3843    -0.0093 C.2     
   4 C4             0.0021    -0.0041     0.0020 C.2     
   5 N5             3.4955     0.6436    -0.0556 N.2     
   6 C6             4.0414    -0.5103    -0.3003 C.2     
   7 N7             3.2866    -1.6306    -0.5671 N.pl3   
   8 C8             1.9327    -1.7663     0.0003 C.3     
   9 N9             2.0124    -2.2725     1.3770 N.3     
  10 C10           -1.1678    -0.8969     0.0062 C.2     
  11 C11            1.2868     1.8316    -0.0004 C.2     
  12 O12           -1.0123    -2.1024    -0.0008 O.2     
  13 O13           -2.4116    -0.3779     0.0176 O.3     
  14 C14            1.7392     3.2251     0.0076 C.2     
  15 O15            0.9253     4.1285     0.0251 O.2     
  16 O16            3.0584     3.5059    -0.0046 O.3     
  17 C17            3.4338     4.9085     0.0043 C.3     
  18 C18            4.9361     5.0265    -0.0114 C.ar    
  19 C19            5.6118     5.0918    -1.2156 C.ar    
  20 C20            6.9898     5.1999    -1.2300 C.ar    
  21 C21            7.6922     5.2433    -0.0402 C.ar    
  22 C22            7.0165     5.1789     1.1640 C.ar    
  23 C23            5.6381     5.0751     1.1785 C.ar    
  24 H24           -0.8944     2.0413     0.0176 H       
  25 H25            5.1182    -0.5927    -0.2945 H       
  26 H26            3.6471    -2.3330    -1.1306 H       
  27 H27            1.3367    -2.4419    -0.6132 H       
  28 H28            2.4616    -3.1756     1.4048 H       
  29 H29            2.4863    -1.6144     1.9774 H       
  30 H30           -3.1485    -1.0041     0.0199 H       
  31 H31            3.0215     5.4006    -0.8765 H       
  32 H32            3.0414     5.3840     0.9032 H       
  33 H33            5.0630     5.0579    -2.1452 H       
  34 H34            7.5177     5.2502    -2.1709 H       
  35 H35            8.7689     5.3271    -0.0515 H       
  36 H36            7.5653     5.2124     2.0936 H       
  37 H37            5.1099     5.0286     2.1193 H       
@<TRIPOS>BOND
   1    1    4 1
   2    1   11 2
   3    1   24 1
   4    2    3 1
   5    2    5 1
   6    2   11 1
   7    3    4 2
   8    3    8 1
   9    4   10 1
  10    5    6 2
  11    6    7 1
  12    6   25 1
  13    7    8 1
  14    7   26 1
  15    8    9 1
  16    8   27 1
  17    9   28 1
  18    9   29 1
  19   10   12 2
  20   10   13 1
  21   11   14 1
  22   13   30 1
  23   14   15 2
  24   14   16 1
  25   16   17 1
  26   17   18 1
  27   17   31 1
  28   17   32 1
  29   18   19 ar
  30   18   23 ar
  31   19   20 ar
  32   19   33 1
  33   20   21 ar
  34   20   34 1
  35   21   22 ar
  36   21   35 1
  37   22   23 ar
  38   22   36 1
  39   23   37 1

#	End of record

