#	Name: ASD01917801
#	Creating user name:	WinNT
#	Creation time:	15. 06. 2019 20:10

#	Modifying user name:	WinNT
#	Modification time:	15. 06. 2019 20:10

#	Program:	/corina/corina34_cracker 3.40 0067  02.08.2006

@<TRIPOS>MOLECULE
ASD01917801
  44   47    0    0    0
SMALL
NO_CHARGES


@<TRIPOS>ATOM
   1 C1            -0.0138     1.3190    -0.0041 C.2     
   2 C2            -0.0103    -0.0278     0.0051 C.2     
   3 C3            -1.2498    -0.8859     0.0244 C.3     
   4 C4            -2.4380    -0.0295     0.4798 C.3     
   5 N5            -2.4045     1.2579    -0.2303 N.am    
   6 C6            -1.2654     2.1614     0.0139 C.3     
   7 C7            -3.3897     1.6029    -1.0828 C.2     
   8 O8            -4.2642     0.8040    -1.3564 O.2     
   9 C9            -3.4069     2.9519    -1.6847 C.ar    
  10 O10            1.2628     1.7242    -0.0254 O.3     
  11 C11            2.0354     0.6264    -0.0256 C.2     
  12 N12            1.2680    -0.4289    -0.0068 N.2     
  13 C13            3.5423     0.6146    -0.0450 C.3     
  14 O14            4.0012     0.5995    -1.3982 O.3     
  15 C15            5.3461     0.5875    -1.5935 C.ar    
  16 C16            6.2055     0.5901    -0.5033 C.ar    
  17 C17            7.5749     0.5779    -0.6956 C.ar    
  18 C18            8.0965     0.5630    -1.9727 C.ar    
  19 C19            7.2400     0.5597    -3.0759 C.ar    
  20 C20            5.8584     0.5667    -2.8799 C.ar    
  21 C21           -3.8642     3.1300    -2.9922 C.ar    
  22 C22           -3.8780     4.3908    -3.5490 C.ar    
  23 C23           -3.4390     5.4811    -2.8134 C.ar    
  24 C24           -2.9836     5.3098    -1.5150 C.ar    
  25 C25           -2.9713     4.0543    -0.9464 C.ar    
  26 F26           -3.4547     6.7147    -3.3639 F       
  27 C27            7.7775     0.5447    -4.4030 C.1     
  28 N28            8.2040     0.5328    -5.4559 N.1     
  29 H29           -1.4412    -1.2736    -0.9761 H       
  30 H30           -1.1096    -1.7145     0.7186 H       
  31 H31           -3.3693    -0.5476     0.2511 H       
  32 H32           -2.3711     0.1448     1.5536 H       
  33 H33           -1.3748     2.6418     0.9862 H       
  34 H34           -1.2160     2.9165    -0.7706 H       
  35 H35            3.9191     1.5060     0.4566 H       
  36 H36            3.9053    -0.2738     0.4717 H       
  37 H37            5.8031     0.6022     0.4989 H       
  38 H38            8.2382     0.5804     0.1567 H       
  39 H39            9.1664     0.5542    -2.1193 H       
  40 H40            5.1908     0.5643    -3.7289 H       
  41 H41           -4.2060     2.2814    -3.5661 H       
  42 H42           -4.2311     4.5296    -4.5601 H       
  43 H43           -2.6424     6.1624    -0.9466 H       
  44 H44           -2.6167     3.9220     0.0651 H       
@<TRIPOS>BOND
   1    1    2 2
   2    1   10 1
   3    1    6 1
   4    2    3 1
   5    2   12 1
   6    3    4 1
   7    3   29 1
   8    3   30 1
   9    4    5 1
  10    4   31 1
  11    4   32 1
  12    5    6 1
  13    5    7 am
  14    6   33 1
  15    6   34 1
  16    7    8 2
  17    7    9 1
  18    9   21 ar
  19    9   25 ar
  20   10   11 1
  21   11   12 2
  22   11   13 1
  23   13   14 1
  24   13   35 1
  25   13   36 1
  26   14   15 1
  27   15   16 ar
  28   15   20 ar
  29   16   17 ar
  30   16   37 1
  31   17   18 ar
  32   17   38 1
  33   18   19 ar
  34   18   39 1
  35   19   27 1
  36   19   20 ar
  37   20   40 1
  38   21   22 ar
  39   21   41 1
  40   22   23 ar
  41   22   42 1
  42   23   24 ar
  43   23   26 1
  44   24   25 ar
  45   24   43 1
  46   25   44 1
  47   27   28 3

#	End of record

