#	Name: ASD01230581
#	Creating user name:	WinNT
#	Creation time:	15. 06. 2019 19:14

#	Modifying user name:	WinNT
#	Modification time:	15. 06. 2019 19:14

#	Program:	/corina/corina34_cracker 3.40 0067  02.08.2006

@<TRIPOS>MOLECULE
ASD01230581
  50   53    0    0    0
SMALL
NO_CHARGES


@<TRIPOS>ATOM
   1 C1            -0.0187     1.5258     0.0104 C.3     
   2 C2             0.0021    -0.0041     0.0020 C.3     
   3 C3             0.7421    -0.5109     1.2415 C.3     
   4 C4             2.1775     0.0187     1.2307 C.3     
   5 C5             2.1567     1.5485     1.2391 C.3     
   6 C6             1.4167     2.0553    -0.0004 C.3     
   7 C7             2.9174    -0.4882     2.4702 C.3     
   8 O8             4.2885    -0.0911     2.4020 O.3     
   9 C9             5.0909    -0.4641     3.4335 C.ar    
  10 C10            6.4335    -0.1106     3.4292 C.ar    
  11 C11            4.5646    -1.1928     4.4917 C.ar    
  12 C12            5.3756    -1.5730     5.5400 C.ar    
  13 C13            6.7267    -1.2245     5.5365 C.ar    
  14 C14            7.2507    -0.4872     4.4740 C.ar    
  15 C15            7.6009    -1.6308     6.6603 C.2     
  16 C16            8.2094    -0.6119     7.5419 C.2     
  17 C17            7.8533    -2.9638     6.9015 C.2     
  18 C18            8.6871    -3.3144     7.9723 C.2     
  19 C19            9.2437    -2.3690     8.7487 C.2     
  20 N20            9.0371    -1.0269     8.5460 N.pl3   
  21 C21            9.7593    -0.1174     9.4394 C.3     
  22 C22            8.9049     1.1119     9.7616 C.3     
  23 S23            8.4768     1.8981     8.1762 S.o2    
  24 N24            7.8863     0.6329     7.2874 N.am    
  25 O25            7.3709     2.7768     8.3314 O.2     
  26 O26            9.6485     2.3016     7.4808 O.2     
  27 H27           -0.5459     1.8868    -0.8726 H       
  28 H28           -0.5289     1.8773     0.9072 H       
  29 H29           -1.0205    -0.3814     0.0098 H       
  30 H30            0.5123    -0.3556    -0.8948 H       
  31 H31            0.2319    -0.1594     2.1383 H       
  32 H32            0.7568    -1.6008     1.2356 H       
  33 H33            2.6876    -0.3328     0.3339 H       
  34 H34            1.6465     1.9000     2.1359 H       
  35 H35            3.1793     1.9258     1.2314 H       
  36 H36            1.9269     1.7038    -0.8972 H       
  37 H37            1.4019     3.1452     0.0056 H       
  38 H38            2.4606    -0.0646     3.3646 H       
  39 H39            2.8557    -1.5756     2.5109 H       
  40 H40            6.8384     0.4598     2.6064 H       
  41 H41            3.5187    -1.4619     4.4939 H       
  42 H42            4.9655    -2.1396     6.3629 H       
  43 H43            8.2960    -0.2156     4.4679 H       
  44 H44            7.4151    -3.7268     6.2753 H       
  45 H45            8.8844    -4.3565     8.1761 H       
  46 H46            9.8759    -2.6777     9.5680 H       
  47 H47           10.0011    -0.6397    10.3651 H       
  48 H48           10.6824     0.2030     8.9565 H       
  49 H49            7.9971     0.8072    10.2822 H       
  50 H50            9.4729     1.8073    10.3796 H       
@<TRIPOS>BOND
   1    1    2 1
   2    1    6 1
   3    1   27 1
   4    1   28 1
   5    2    3 1
   6    2   29 1
   7    2   30 1
   8    3    4 1
   9    3   31 1
  10    3   32 1
  11    4    5 1
  12    4    7 1
  13    4   33 1
  14    5    6 1
  15    5   34 1
  16    5   35 1
  17    6   36 1
  18    6   37 1
  19    7    8 1
  20    7   38 1
  21    7   39 1
  22    8    9 1
  23    9   10 ar
  24    9   11 ar
  25   10   14 ar
  26   10   40 1
  27   11   12 ar
  28   11   41 1
  29   12   13 ar
  30   12   42 1
  31   13   14 ar
  32   13   15 1
  33   14   43 1
  34   15   16 1
  35   15   17 2
  36   16   20 1
  37   16   24 2
  38   17   18 1
  39   17   44 1
  40   18   19 2
  41   18   45 1
  42   19   20 1
  43   19   46 1
  44   20   21 1
  45   21   22 1
  46   21   47 1
  47   21   48 1
  48   22   23 1
  49   22   49 1
  50   22   50 1
  51   23   24 am
  52   23   25 2
  53   23   26 2

#	End of record

