#	Name: ASD01914789
#	Creating user name:	WinNT
#	Creation time:	15. 06. 2019 20:04

#	Modifying user name:	WinNT
#	Modification time:	15. 06. 2019 20:04

#	Program:	/corina/corina34_cracker 3.40 0067  02.08.2006

@<TRIPOS>MOLECULE
ASD01914789
  64   68    0    0    0
SMALL
NO_CHARGES


@<TRIPOS>ATOM
   1 N1             0.0273     1.3908    -0.1028 N.2     
   2 C2            -0.0390     0.0593     0.0782 C.2     
   3 C3             1.2320    -0.4206     0.1476 C.2     
   4 N4             2.0695     0.6497     0.0046 N.pl3   
   5 C5             1.2873     1.7576    -0.1488 C.2     
   6 C6            -1.2813    -0.7450     0.1838 C.ar    
   7 C7            -2.5261    -0.1244     0.0948 C.ar    
   8 C8            -1.2078    -2.1244     0.3665 C.ar    
   9 C9            -2.3667    -2.8679     0.4636 C.ar    
  10 C10           -3.5993    -2.2461     0.3794 C.ar    
  11 C11           -3.6782    -0.8775     0.1932 C.ar    
  12 C12            1.7772     3.1407    -0.3363 C.ar    
  13 C13            3.0859     3.4740     0.0149 C.ar    
  14 C14            3.5367     4.7659    -0.1624 C.ar    
  15 C15            2.6942     5.7299    -0.6868 C.ar    
  16 C16            1.3955     5.4059    -1.0365 C.ar    
  17 C17            0.9345     4.1161    -0.8704 C.ar    
  18 C18            3.5340     0.6145     0.0140 C.3     
  19 C19            4.0330     0.8465     1.4170 C.2     
  20 O20            3.2431     1.0238     2.3200 O.2     
  21 N21            5.3571     0.8569     1.6681 N.am    
  22 C22            5.8654     1.0815     3.0299 C.3     
  23 C23            6.3320     0.6379     0.5888 C.3     
  24 C24            7.3067    -0.4597     1.0286 C.3     
  25 N25            7.8894    -0.1006     2.3284 N.3     
  26 C26            6.8595    -0.0344     3.3686 C.3     
  27 C27            8.8981    -0.9896     2.6819 C.ar    
  28 N28            8.8280    -1.6360     3.8365 N.ar    
  29 C29            9.9663    -1.1958     1.8189 C.ar    
  30 C30           10.9669    -2.0876     2.1854 C.ar    
  31 C31           10.8553    -2.7419     3.4117 C.ar    
  32 C32            9.7624    -2.4895     4.2130 C.ar    
  33 C33           13.0082    -3.2496     1.8265 C.3     
  34 O34           12.0270    -2.3168     1.3691 O.3     
  35 C35           -5.0249    -0.2072     0.1029 C.3     
  36 H36            1.5235    -1.4508     0.2891 H       
  37 H37           -2.5888     0.9439    -0.0505 H       
  38 H38           -0.2458    -2.6110     0.4316 H       
  39 H39           -2.3109    -3.9371     0.6052 H       
  40 H40           -4.5035    -2.8317     0.4555 H       
  41 H41            3.7443     2.7225     0.4250 H       
  42 H42            4.5494     5.0252     0.1090 H       
  43 H43            3.0518     6.7398    -0.8233 H       
  44 H44            0.7426     6.1630    -1.4450 H       
  45 H45           -0.0795     3.8643    -1.1441 H       
  46 H46            3.8763    -0.3590    -0.3370 H       
  47 H47            3.9205     1.3939    -0.6426 H       
  48 H48            6.3686     2.0472     3.0783 H       
  49 H49            5.0370     1.0613     3.7379 H       
  50 H50            5.8118     0.3245    -0.3164 H       
  51 H51            6.8808     1.5602     0.3984 H       
  52 H52            6.7728    -1.4057     1.1182 H       
  53 H53            8.1011    -0.5585     0.2887 H       
  54 H54            7.3272     0.1753     4.3306 H       
  55 H55            6.3325    -0.9872     3.4199 H       
  56 H56           10.0185    -0.6709     0.8765 H       
  57 H57           11.6144    -3.4419     3.7283 H       
  58 H58            9.6715    -2.9934     5.1639 H       
  59 H59           13.4331    -2.8983     2.7667 H       
  60 H60           12.5411    -4.2224     1.9798 H       
  61 H61           13.7989    -3.3396     1.0816 H       
  62 H62           -5.3489     0.0930     1.0994 H       
  63 H63           -4.9504     0.6732    -0.5355 H       
  64 H64           -5.7494    -0.9028    -0.3205 H       
@<TRIPOS>BOND
   1    1    2 1
   2    1    5 2
   3    2    3 2
   4    2    6 1
   5    3    4 1
   6    3   36 1
   7    4    5 1
   8    4   18 1
   9    5   12 1
  10    6    7 ar
  11    6    8 ar
  12    7   11 ar
  13    7   37 1
  14    8    9 ar
  15    8   38 1
  16    9   10 ar
  17    9   39 1
  18   10   11 ar
  19   10   40 1
  20   11   35 1
  21   12   13 ar
  22   12   17 ar
  23   13   14 ar
  24   13   41 1
  25   14   15 ar
  26   14   42 1
  27   15   16 ar
  28   15   43 1
  29   16   17 ar
  30   16   44 1
  31   17   45 1
  32   18   19 1
  33   18   46 1
  34   18   47 1
  35   19   20 2
  36   19   21 am
  37   21   22 1
  38   21   23 1
  39   22   26 1
  40   22   48 1
  41   22   49 1
  42   23   24 1
  43   23   50 1
  44   23   51 1
  45   24   25 1
  46   24   52 1
  47   24   53 1
  48   25   26 1
  49   25   27 1
  50   26   54 1
  51   26   55 1
  52   27   28 ar
  53   27   29 ar
  54   28   32 ar
  55   29   30 ar
  56   29   56 1
  57   30   31 ar
  58   30   34 1
  59   31   32 ar
  60   31   57 1
  61   32   58 1
  62   33   34 1
  63   33   59 1
  64   33   60 1
  65   33   61 1
  66   35   62 1
  67   35   63 1
  68   35   64 1

#	End of record

