#	Name: ASD01948210
#	Creating user name:	WinNT
#	Creation time:	15. 06. 2019 20:13

#	Modifying user name:	WinNT
#	Modification time:	15. 06. 2019 20:13

#	Program:	/corina/corina34_cracker 3.40 0067  02.08.2006

@<TRIPOS>MOLECULE
ASD01948210
  37   39    0    0    0
SMALL
NO_CHARGES


@<TRIPOS>ATOM
   1 C1             0.1167     1.1116    -0.3561 C.ar    
   2 C2             0.1672    -0.2383    -0.1129 C.ar    
   3 C3             1.3531    -0.8410     0.3215 C.ar    
   4 C4             2.4939    -0.0647     0.5096 C.ar    
   5 C5             2.4506     1.3017     0.2660 C.ar    
   6 C6             1.2577     1.8978    -0.1700 C.ar    
   7 C7            -0.8586    -1.3403    -0.2136 C.3     
   8 N8            -0.1767    -2.5759     0.1868 N.am    
   9 C9             1.0990    -2.2870     0.4953 C.2     
  10 C10            2.7649     2.7780     2.6128 C.ar    
  11 C11            3.7263     2.8467     1.6139 C.ar    
  12 N12            3.5878     2.0777     0.4535 N.pl3   
  13 C13            2.9041     3.5389     3.7578 C.ar    
  14 C14            3.9994     4.3693     3.9100 C.ar    
  15 C15            4.9607     4.4408     2.9173 C.ar    
  16 C16            4.8279     3.6823     1.7692 C.ar    
  17 F17            5.7661     3.7524     0.7996 F       
  18 I18            4.2042     5.5210     5.6480 I       
  19 O19            1.9254    -3.0982     0.8639 O.2     
  20 C20            1.2073     3.3500    -0.4304 C.2     
  21 O21            2.2236     4.0143    -0.3688 O.2     
  22 N22            0.0345     3.9394    -0.7365 N.am    
  23 O23           -0.0139     5.3324    -0.9863 O.3     
  24 C24           -1.3197     5.8219    -1.2981 C.3     
  25 H25           -0.8027     1.5654    -0.6953 H       
  26 H26            3.4115    -0.5250     0.8451 H       
  27 H27           -1.6924    -1.1382     0.4587 H       
  28 H28           -1.2166    -1.4259    -1.2395 H       
  29 H29           -0.5805    -3.4571     0.2233 H       
  30 H30            1.9065     2.1336     2.4932 H       
  31 H31            4.2856     2.0864    -0.2202 H       
  32 H32            2.1560     3.4854     4.5349 H       
  33 H33            5.8149     5.0905     3.0389 H       
  34 H34           -0.7764     3.4094    -0.7857 H       
  35 H35           -1.9918     5.6212    -0.4638 H       
  36 H36           -1.2721     6.8963    -1.4760 H       
  37 H37           -1.6912     5.3217    -2.1925 H       
@<TRIPOS>BOND
   1    1    2 ar
   2    1    6 ar
   3    1   25 1
   4    2    3 ar
   5    2    7 1
   6    3    4 ar
   7    3    9 1
   8    4    5 ar
   9    4   26 1
  10    5    6 ar
  11    5   12 1
  12    6   20 1
  13    7    8 1
  14    7   27 1
  15    7   28 1
  16    8    9 am
  17    8   29 1
  18    9   19 2
  19   10   11 ar
  20   10   13 ar
  21   10   30 1
  22   11   12 1
  23   11   16 ar
  24   12   31 1
  25   13   14 ar
  26   13   32 1
  27   14   15 ar
  28   14   18 1
  29   15   16 ar
  30   15   33 1
  31   16   17 1
  32   20   21 2
  33   20   22 am
  34   22   23 1
  35   22   34 1
  36   23   24 1
  37   24   35 1
  38   24   36 1
  39   24   37 1

#	End of record

