#	Name: ASD03330776
#	Creating user name:	WinNT
#	Creation time:	15. 06. 2019 20:37

#	Modifying user name:	WinNT
#	Modification time:	15. 06. 2019 20:37

#	Program:	/corina/corina34_cracker 3.40 0067  02.08.2006

@<TRIPOS>MOLECULE
ASD03330776
  57   59    0    0    0
SMALL
NO_CHARGES


@<TRIPOS>ATOM
   1 C1            -0.0025     1.3582    -0.1277 C.2     
   2 N2             0.0182     0.0077    -0.2200 N.pl3   
   3 C3             1.2715     1.7628     0.1350 C.2     
   4 N4             2.0518     0.6612     0.1819 N.2     
   5 C5             1.3078    -0.3976    -0.0361 C.2     
   6 C6             1.7873    -1.7968    -0.0753 C.ar    
   7 C7             1.7184     3.1531     0.3326 C.2     
   8 O8             0.9163     4.0649     0.2657 O.2     
   9 C9             3.4600     4.7964     0.7838 C.3     
  10 N10            3.0158     3.4142     0.5873 N.am    
  11 C11            4.9463     4.9084     0.4383 C.3     
  12 C12            3.2473     5.1928     2.2220 C.2     
  13 O13            2.7715     4.3989     3.0059 O.2     
  14 C14           -1.1486    -0.8461    -0.4601 C.3     
  15 C15           -1.9643    -0.2684    -1.6208 C.3     
  16 C16           -2.9646     0.7533    -1.0892 C.3     
  17 N17           -2.4181     1.4732     0.0630 N.3     
  18 C18           -1.2152     2.2347    -0.3048 C.3     
  19 C19            0.9491    -2.8360     0.3301 C.ar    
  20 C20            3.0768    -2.0825    -0.5232 C.ar    
  21 C21            3.5184    -3.3919    -0.5578 C.ar    
  22 C22            2.6819    -4.4180    -0.1490 C.ar    
  23 C23            1.4006    -4.1391     0.2913 C.ar    
  24 C24           -3.4318     2.3490     0.6657 C.3     
  25 N25            3.5858     6.4295     2.6373 N.am    
  26 C26            5.1460     4.6270    -1.0523 C.3     
  27 C27            4.4562     5.7176    -1.8741 C.3     
  28 C28            6.6420     4.6159    -1.3732 C.3     
  29 F29            4.7670    -3.6716    -0.9911 F       
  30 H30            2.8855     5.4582     0.1357 H       
  31 H31            3.6555     2.6870     0.6407 H       
  32 H32            5.2980     5.9141     0.6685 H       
  33 H33            5.5111     4.1830     1.0239 H       
  34 H34           -0.8172    -1.8530    -0.7135 H       
  35 H35           -1.7660    -0.8799     0.4376 H       
  36 H36           -1.2931     0.2163    -2.3297 H       
  37 H37           -2.5007    -1.0735    -2.1230 H       
  38 H38           -3.2004     1.4673    -1.8783 H       
  39 H39           -3.8772     0.2382    -0.7894 H       
  40 H40           -1.1283     3.1111     0.3375 H       
  41 H41           -1.2879     2.5503    -1.3456 H       
  42 H42           -0.0517    -2.6205     0.6742 H       
  43 H43            3.7286    -1.2828    -0.8425 H       
  44 H44            3.0304    -5.4398    -0.1778 H       
  45 H45            0.7533    -4.9431     0.6089 H       
  46 H46           -4.2790     1.7491     0.9981 H       
  47 H47           -2.9995     2.8716     1.5190 H       
  48 H48           -3.7691     3.0762    -0.0729 H       
  49 H49            3.9663     7.0644     2.0104 H       
  50 H50            3.4489     6.6846     3.5631 H       
  51 H51            4.7141     3.6574    -1.3000 H       
  52 H52            4.5985     5.5172    -2.9360 H       
  53 H53            3.3904     5.7255    -1.6455 H       
  54 H54            4.8881     6.6872    -1.6263 H       
  55 H55            7.1335     3.8389    -0.7877 H       
  56 H56            6.7843     4.4155    -2.4351 H       
  57 H57            7.0739     5.5855    -1.1254 H       
@<TRIPOS>BOND
   1    1    2 1
   2    1    3 2
   3    1   18 1
   4    2   14 1
   5    2    5 1
   6    3    4 1
   7    3    7 1
   8    4    5 2
   9    5    6 1
  10    6   20 ar
  11    6   19 ar
  12    7    8 2
  13    7   10 am
  14    9   10 1
  15    9   11 1
  16    9   12 1
  17    9   30 1
  18   10   31 1
  19   11   26 1
  20   11   32 1
  21   11   33 1
  22   12   13 2
  23   12   25 am
  24   14   15 1
  25   14   34 1
  26   14   35 1
  27   15   16 1
  28   15   36 1
  29   15   37 1
  30   16   17 1
  31   16   38 1
  32   16   39 1
  33   17   18 1
  34   17   24 1
  35   18   40 1
  36   18   41 1
  37   19   23 ar
  38   19   42 1
  39   20   21 ar
  40   20   43 1
  41   21   22 ar
  42   21   29 1
  43   22   23 ar
  44   22   44 1
  45   23   45 1
  46   24   46 1
  47   24   47 1
  48   24   48 1
  49   25   49 1
  50   25   50 1
  51   26   28 1
  52   26   27 1
  53   26   51 1
  54   27   52 1
  55   27   53 1
  56   27   54 1
  57   28   55 1
  58   28   56 1
  59   28   57 1

#	End of record

