#	Name: ASD01912942
#	Creating user name:	WinNT
#	Creation time:	15. 06. 2019 20:00

#	Modifying user name:	WinNT
#	Modification time:	15. 06. 2019 20:00

#	Program:	/corina/corina34_cracker 3.40 0067  02.08.2006

@<TRIPOS>MOLECULE
ASD01912942
  35   37    0    0    0
SMALL
NO_CHARGES


@<TRIPOS>ATOM
   1 C1             0.2971     0.4428    -1.4911 C.ar    
   2 C2            -0.0286     0.0118    -0.2086 C.ar    
   3 C3             0.8177     0.3291     0.8438 C.ar    
   4 N4             1.9158     1.0286     0.6366 N.ar    
   5 C5             2.2531     1.4519    -0.5657 C.ar    
   6 C6             1.4601     1.1752    -1.6640 C.ar    
   7 O7            -1.1597    -0.7092     0.0098 O.3     
   8 C8            -1.0861    -2.0599    -0.1027 C.ar    
   9 C9             0.1347    -2.6916    -0.3257 C.ar    
  10 C10            0.1733    -4.0697    -0.4352 C.ar    
  11 N11           -0.9245    -4.7886    -0.3318 N.ar    
  12 C12           -2.1099    -4.2285    -0.1192 C.ar    
  13 C13           -2.2285    -2.8481     0.0079 C.ar    
  14 C14           -3.3158    -5.0818    -0.0104 C.2     
  15 O15           -4.4034    -4.5751     0.1840 O.2     
  16 S16           -5.9786    -6.6397     0.2551 S.3     
  17 C17           -4.3435    -7.2243    -0.0245 C.2     
  18 N18           -3.2070    -6.4201    -0.1270 N.am    
  19 C19           -6.6053    -8.2824     0.2214 C.2     
  20 C20           -5.6068    -9.1409     0.0128 C.2     
  21 C21           -4.3566    -8.5620    -0.1235 C.2     
  22 C22           -5.8229   -10.6302    -0.0680 C.3     
  23 H23           -0.3391     0.2081    -2.3318 H       
  24 H24            0.5744    -0.0001     1.8432 H       
  25 H25            3.1610     2.0225    -0.6944 H       
  26 H26            1.7441     1.5260    -2.6452 H       
  27 H27            1.0416    -2.1116    -0.4125 H       
  28 H28            1.1181    -4.5634    -0.6085 H       
  29 H29           -3.1932    -2.3943     0.1807 H       
  30 H30           -2.3391    -6.8245    -0.2822 H       
  31 H31           -7.6424    -8.5548     0.3505 H       
  32 H32           -3.4620    -9.1419    -0.2965 H       
  33 H33           -6.0208   -10.9131    -1.1019 H       
  34 H34           -4.9303   -11.1465     0.2854 H       
  35 H35           -6.6737   -10.9082     0.5541 H       
@<TRIPOS>BOND
   1    1    2 ar
   2    1    6 ar
   3    1   23 1
   4    2    3 ar
   5    2    7 1
   6    3    4 ar
   7    3   24 1
   8    4    5 ar
   9    5    6 ar
  10    5   25 1
  11    6   26 1
  12    7    8 1
  13    8    9 ar
  14    8   13 ar
  15    9   10 ar
  16    9   27 1
  17   10   11 ar
  18   10   28 1
  19   11   12 ar
  20   12   13 ar
  21   12   14 1
  22   13   29 1
  23   14   15 2
  24   14   18 am
  25   16   17 1
  26   16   19 1
  27   17   18 1
  28   17   21 2
  29   18   30 1
  30   19   20 2
  31   19   31 1
  32   20   21 1
  33   20   22 1
  34   21   32 1
  35   22   33 1
  36   22   34 1
  37   22   35 1

#	End of record

