#	Name: ASD05790001
#	Creating user name:	WinNT
#	Creation time:	15. 06. 2019 21:03

#	Modifying user name:	WinNT
#	Modification time:	15. 06. 2019 21:03

#	Program:	/corina/corina34_cracker 3.40 0067  02.08.2006

@<TRIPOS>MOLECULE
ASD05790001
  45   48    0    0    0
SMALL
NO_CHARGES


@<TRIPOS>ATOM
   1 C1            -0.1753     1.4739    -0.5693 C.2     
   2 C2            -0.1532    -0.0033    -0.5731 C.ar    
   3 C3             0.8987    -0.6881    -1.1875 C.ar    
   4 C4             0.9123    -2.0691    -1.1870 C.ar    
   5 C5            -0.1123    -2.7733    -0.5806 C.ar    
   6 C6            -1.1568    -2.1008     0.0290 C.ar    
   7 C7            -1.1801    -0.7216     0.0419 C.ar    
   8 O8             0.7230     2.0966    -1.1015 O.2     
   9 N9            -1.1942     2.1310     0.0193 N.am    
  10 C10           -1.1619     3.5234     0.1191 C.ar    
  11 C11           -2.3411     4.2537     0.0191 C.ar    
  12 C12           -2.3127     5.6275     0.1171 C.ar    
  13 C13           -1.0980     6.2868     0.3177 C.ar    
  14 C14            0.0844     5.5504     0.4183 C.ar    
  15 C15            0.0486     4.1764     0.3242 C.ar    
  16 O16           -2.1301     8.5748     0.3426 O.3     
  17 C17           -1.0638     7.7600     0.4229 C.2     
  18 N18            0.0115     8.4868     0.6103 N.2     
  19 C19           -0.3498     9.7862     0.6534 C.2     
  20 C20           -1.6951     9.8419     0.4853 C.2     
  21 C21           -2.5433    11.0873     0.4617 C.3     
  22 F22           -2.6386    11.5618    -0.8509 F       
  23 F23           -3.8223    10.7897     0.9440 F       
  24 F24           -1.9563    12.0667     1.2701 F       
  25 C25            0.5585    10.9433     0.8485 C.ar    
  26 C26            1.6704    10.8270     1.6803 C.ar    
  27 C27            2.5118    11.9064     1.8583 C.ar    
  28 C28            2.2531    13.1021     1.2127 C.ar    
  29 C29            1.1506    13.2233     0.3862 C.ar    
  30 C30            0.3059    12.1484     0.1962 C.ar    
  31 Cl31           2.1846     0.1946    -1.9498 Cl      
  32 H32            1.7242    -2.6003    -1.6612 H       
  33 H33           -0.0971    -3.8531    -0.5833 H       
  34 H34           -1.9535    -2.6573     0.5001 H       
  35 H35           -1.9938    -0.1987     0.5224 H       
  36 H36           -1.9499     1.6368     0.3736 H       
  37 H37           -3.2802     3.7433    -0.1361 H       
  38 H38           -3.2288     6.1941     0.0386 H       
  39 H39            1.0255     6.0573     0.5731 H       
  40 H40            0.9621     3.6061     0.4059 H       
  41 H41            1.8731     9.8940     2.1852 H       
  42 H42            3.3737    11.8175     2.5030 H       
  43 H43            2.9141    13.9442     1.3547 H       
  44 H44            0.9528    14.1593    -0.1149 H       
  45 H45           -0.5518    12.2425    -0.4534 H       
@<TRIPOS>BOND
   1    1    2 1
   2    1    8 2
   3    1    9 am
   4    2    3 ar
   5    2    7 ar
   6    3    4 ar
   7    3   31 1
   8    4    5 ar
   9    4   32 1
  10    5    6 ar
  11    5   33 1
  12    6    7 ar
  13    6   34 1
  14    7   35 1
  15    9   10 1
  16    9   36 1
  17   10   11 ar
  18   10   15 ar
  19   11   12 ar
  20   11   37 1
  21   12   13 ar
  22   12   38 1
  23   13   14 ar
  24   13   17 1
  25   14   15 ar
  26   14   39 1
  27   15   40 1
  28   16   17 1
  29   16   20 1
  30   17   18 2
  31   18   19 1
  32   19   20 2
  33   19   25 1
  34   20   21 1
  35   21   22 1
  36   21   23 1
  37   21   24 1
  38   25   26 ar
  39   25   30 ar
  40   26   27 ar
  41   26   41 1
  42   27   28 ar
  43   27   42 1
  44   28   29 ar
  45   28   43 1
  46   29   30 ar
  47   29   44 1
  48   30   45 1

#	End of record

