#	Name: ASD01120337
#	Creating user name:	WinNT
#	Creation time:	15. 06. 2019 18:59

#	Modifying user name:	WinNT
#	Modification time:	15. 06. 2019 18:59

#	Program:	/corina/corina34_cracker 3.40 0067  02.08.2006

@<TRIPOS>MOLECULE
ASD01120337
  40   42    0    0    0
SMALL
NO_CHARGES


@<TRIPOS>ATOM
   1 C1            -0.0173     1.4248     0.0099 C.3     
   2 O2             0.0021    -0.0041     0.0020 O.3     
   3 C3             0.6058    -0.6071    -1.0557 C.ar    
   4 C4             1.1679     0.1605    -2.0651 C.ar    
   5 C5             1.7810    -0.4550    -3.1394 C.ar    
   6 C6             1.8346    -1.8347    -3.2089 C.ar    
   7 C7             1.2746    -2.6022    -2.2041 C.ar    
   8 C8             0.6659    -1.9916    -1.1249 C.ar    
   9 C9             1.3344    -4.1059    -2.2832 C.3     
  10 N10            2.5563    -4.5811    -1.6294 N.pl3   
  11 C11            2.8320    -5.9444    -1.5762 C.ar    
  12 C12            1.9558    -6.8543    -2.1388 C.ar    
  13 C13            2.2277    -8.2135    -2.0880 C.ar    
  14 C14            3.3713    -8.6810    -1.4783 C.ar    
  15 C15            4.2712    -7.7883    -0.9030 C.ar    
  16 C16            4.0078    -6.4060    -0.9542 C.ar    
  17 C17            5.0778    -5.7549    -0.3003 C.2     
  18 C18            5.9474    -6.7110     0.1253 C.2     
  19 N19            5.4658    -7.9551    -0.2423 N.pl3   
  20 C20            7.1972    -6.4625     0.8520 C.2     
  21 O21            7.5282    -5.3237     1.1206 O.2     
  22 O22            7.9791    -7.4972     1.2223 O.3     
  23 N23            3.6435   -10.1354    -1.4345 N.pl3   
  24 O24            2.8567   -10.9176    -1.9372 O.2     
  25 O25            4.6542   -10.5500    -0.8959 O.2     
  26 H26            1.0053     1.8021     0.0021 H       
  27 H27           -0.5445     1.7859    -0.8732 H       
  28 H28           -0.5275     1.7763     0.9067 H       
  29 H29            1.1260     1.2383    -2.0115 H       
  30 H30            2.2185     0.1422    -3.9258 H       
  31 H31            2.3144    -2.3139    -4.0495 H       
  32 H32            0.2291    -2.5914    -0.3402 H       
  33 H33            0.4650    -4.5310    -1.7816 H       
  34 H34            1.3379    -4.4149    -3.3285 H       
  35 H35            3.1731    -3.9457    -1.2337 H       
  36 H36            1.0546    -6.5046    -2.6203 H       
  37 H37            1.5347    -8.9134    -2.5311 H       
  38 H38            5.1864    -4.6891    -0.1634 H       
  39 H39            5.8967    -8.8046    -0.0594 H       
  40 H40            8.7929    -7.2839     1.6991 H       
@<TRIPOS>BOND
   1    1    2 1
   2    1   26 1
   3    1   27 1
   4    1   28 1
   5    2    3 1
   6    3    4 ar
   7    3    8 ar
   8    4    5 ar
   9    4   29 1
  10    5    6 ar
  11    5   30 1
  12    6    7 ar
  13    6   31 1
  14    7    8 ar
  15    7    9 1
  16    8   32 1
  17    9   10 1
  18    9   33 1
  19    9   34 1
  20   10   11 1
  21   10   35 1
  22   11   12 ar
  23   11   16 ar
  24   12   13 ar
  25   12   36 1
  26   13   14 ar
  27   13   37 1
  28   14   15 ar
  29   14   23 1
  30   15   16 ar
  31   15   19 1
  32   16   17 1
  33   17   18 2
  34   17   38 1
  35   18   19 1
  36   18   20 1
  37   19   39 1
  38   20   21 2
  39   20   22 1
  40   22   40 1
  41   23   24 2
  42   23   25 2

#	End of record

