#	Name: ASD01901011
#	Creating user name:	WinNT
#	Creation time:	15. 06. 2019 19:53

#	Modifying user name:	WinNT
#	Modification time:	15. 06. 2019 19:53

#	Program:	/corina/corina34_cracker 3.40 0067  02.08.2006

@<TRIPOS>MOLECULE
ASD01901011
  28   29    0    0    0
SMALL
NO_CHARGES


@<TRIPOS>ATOM
   1 C1            -0.0159     1.3210     0.0093 C.ar    
   2 N2             0.0021    -0.0041     0.0020 N.ar    
   3 C3             1.1521    -0.6723    -0.0125 C.ar    
   4 C4             2.3503     0.0390    -0.0201 C.ar    
   5 C5             2.2929     1.4346    -0.0121 C.ar    
   6 N6             1.0984     2.0338     0.0025 N.ar    
   7 N7            -1.2344     1.9773     0.0186 N.pl3   
   8 N8             1.1585    -2.0583    -0.0196 N.pl3   
   9 C9             3.5301     2.2337    -0.0191 C.2     
  10 C10            3.4632     3.5752    -0.0113 C.2     
  11 C11            4.7011     4.3747    -0.0183 C.ar    
  12 C12            4.6354     5.7706    -0.0102 C.ar    
  13 C13            5.7981     6.5123    -0.0169 C.ar    
  14 C14            7.0277     5.8775    -0.0316 C.ar    
  15 C15            7.1006     4.4956    -0.0401 C.ar    
  16 C16            5.9464     3.7407    -0.0273 C.ar    
  17 H17            3.2996    -0.4759    -0.0316 H       
  18 H18           -2.0598     1.4677     0.0197 H       
  19 H19           -1.2630     2.9469     0.0240 H       
  20 H20            0.3207    -2.5472    -0.0139 H       
  21 H21            2.0007    -2.5393    -0.0302 H       
  22 H22            4.4911     1.7410    -0.0305 H       
  23 H23            2.5022     4.0678     0.0002 H       
  24 H24            3.6765     6.2674     0.0010 H       
  25 H25            5.7489     7.5912    -0.0109 H       
  26 H26            7.9349     6.4635    -0.0367 H       
  27 H27            8.0637     4.0071    -0.0520 H       
  28 H28            6.0049     2.6623    -0.0288 H       
@<TRIPOS>BOND
   1    1    2 ar
   2    1    6 ar
   3    1    7 1
   4    2    3 ar
   5    3    4 ar
   6    3    8 1
   7    4    5 ar
   8    4   17 1
   9    5    6 ar
  10    5    9 1
  11    7   18 1
  12    7   19 1
  13    8   20 1
  14    8   21 1
  15    9   10 2
  16    9   22 1
  17   10   11 1
  18   10   23 1
  19   11   12 ar
  20   11   16 ar
  21   12   13 ar
  22   12   24 1
  23   13   14 ar
  24   13   25 1
  25   14   15 ar
  26   14   26 1
  27   15   16 ar
  28   15   27 1
  29   16   28 1

#	End of record

