#	Name: ASD01320006
#	Creating user name:	WinNT
#	Creation time:	15. 06. 2019 19:15

#	Modifying user name:	WinNT
#	Modification time:	15. 06. 2019 19:15

#	Program:	/corina/corina34_cracker 3.40 0067  02.08.2006

@<TRIPOS>MOLECULE
ASD01320006
  46   48    0    0    0
SMALL
NO_CHARGES


@<TRIPOS>ATOM
   1 C1             0.8499     1.3507     0.5116 C.ar    
   2 C2             0.6089    -0.0097     0.4658 C.ar    
   3 C3             1.6392    -0.8865     0.1654 C.ar    
   4 C4             2.9170    -0.3929    -0.0904 C.ar    
   5 C5             3.1507     0.9739    -0.0429 C.ar    
   6 C6             2.1178     1.8412     0.2579 C.ar    
   7 O7             1.4041    -2.2247     0.1208 O.3     
   8 C8             0.1366    -2.6565     0.3405 C.ar    
   9 C9            -0.8009    -2.5994    -0.6834 C.ar    
  10 C10           -2.0995    -3.0417    -0.4601 C.ar    
  11 C11           -2.4561    -3.5458     0.8064 C.ar    
  12 C12           -1.5038    -3.5964     1.8233 C.ar    
  13 C13           -0.2169    -3.1593     1.5873 C.ar    
  14 N14            3.9621    -1.2737    -0.3940 N.am    
  15 C15            5.2315    -0.9468    -0.0805 C.2     
  16 C16            6.3198    -1.9253    -0.2891 C.ar    
  17 O17            5.4815     0.1528     0.3737 O.2     
  18 C18            7.6323    -1.5890     0.0343 C.ar    
  19 C19            8.6524    -2.5177    -0.1650 C.ar    
  20 C20            8.3525    -3.7784    -0.6872 C.ar    
  21 C21            7.0492    -4.1049    -1.0060 C.ar    
  22 C22            6.0334    -3.1916    -0.8056 C.ar    
  23 C23           -3.8320    -4.0179     1.0556 C.2     
  24 O24           -4.7750    -3.2836     0.8375 O.2     
  25 O25           -4.0424    -5.2633     1.5249 O.3     
  26 C26           -3.1017    -2.9830    -1.5458 C.2     
  27 O27           -4.2008    -3.4740    -1.3849 O.2     
  28 O28           -2.7957    -2.3849    -2.7133 O.3     
  29 C29           10.0474    -2.1696     0.1747 C.2     
  30 O30           10.3066    -1.0730     0.6283 O.2     
  31 O31           11.0321    -3.0684    -0.0186 O.3     
  32 H32            0.0448     2.0327     0.7418 H       
  33 H33           -0.3825    -0.3894     0.6645 H       
  34 H34            4.1398     1.3599    -0.2406 H       
  35 H35            2.3009     2.9049     0.2942 H       
  36 H36           -0.5209    -2.2115    -1.6517 H       
  37 H37           -1.7727    -3.9821     2.7956 H       
  38 H38            0.5177    -3.2002     2.3779 H       
  39 H39            3.7726    -2.1193    -0.8299 H       
  40 H40            7.8586    -0.6129     0.4374 H       
  41 H41            9.1418    -4.4991    -0.8422 H       
  42 H42            6.8229    -5.0805    -1.4100 H       
  43 H43            5.0161    -3.4535    -1.0567 H       
  44 H44           -4.9608    -5.5275     1.6726 H       
  45 H45           -3.4832    -2.3714    -3.3931 H       
  46 H46           11.9288    -2.7950     0.2185 H       
@<TRIPOS>BOND
   1    1    2 ar
   2    1    6 ar
   3    1   32 1
   4    2    3 ar
   5    2   33 1
   6    3    4 ar
   7    3    7 1
   8    4    5 ar
   9    4   14 1
  10    5    6 ar
  11    5   34 1
  12    6   35 1
  13    7    8 1
  14    8    9 ar
  15    8   13 ar
  16    9   10 ar
  17    9   36 1
  18   10   11 ar
  19   10   26 1
  20   11   12 ar
  21   11   23 1
  22   12   13 ar
  23   12   37 1
  24   13   38 1
  25   14   15 am
  26   14   39 1
  27   15   16 1
  28   15   17 2
  29   16   18 ar
  30   16   22 ar
  31   18   19 ar
  32   18   40 1
  33   19   20 ar
  34   19   29 1
  35   20   21 ar
  36   20   41 1
  37   21   22 ar
  38   21   42 1
  39   22   43 1
  40   23   24 2
  41   23   25 1
  42   25   44 1
  43   26   27 2
  44   26   28 1
  45   28   45 1
  46   29   30 2
  47   29   31 1
  48   31   46 1

#	End of record

