#	Name: ASD03091648
#	Creating user name:	WinNT
#	Creation time:	15. 06. 2019 20:31

#	Modifying user name:	WinNT
#	Modification time:	15. 06. 2019 20:31

#	Program:	/corina/corina34_cracker 3.40 0067  02.08.2006

@<TRIPOS>MOLECULE
ASD03091648
  64   67    0    0    0
SMALL
NO_CHARGES


@<TRIPOS>ATOM
   1 C1            -0.0645     1.3755    -0.2015 C.2     
   2 C2             0.0346     0.0515     0.0403 C.2     
   3 N3            -1.1175    -0.5493     0.2449 N.2     
   4 C4            -2.1862     0.1874     0.1907 C.2     
   5 S5            -1.7703     1.8120    -0.1408 S.3     
   6 N6            -3.4756    -0.2754     0.3802 N.3     
   7 C7            -4.4515     0.8166     0.2515 C.3     
   8 C8            -3.7870    -1.3653    -0.5560 C.3     
   9 C9            -5.1984    -1.8866    -0.2725 C.3     
  10 O10           -6.1293    -0.8054    -0.3714 O.3     
  11 C11           -5.8562     0.2734     0.5269 C.3     
  12 C12           -6.8847     1.3864     0.3163 C.3     
  13 C13           -5.5590    -2.9664    -1.2947 C.3     
  14 C14            1.0585     2.2964    -0.4642 C.ar    
  15 C15            1.0176     3.1939    -1.5397 C.ar    
  16 C16            2.1930     2.3020     0.3583 C.ar    
  17 C17            3.2179     3.1790     0.0763 C.ar    
  18 N18            3.1404     4.0051    -0.9506 N.ar    
  19 C19            2.0884     4.0361    -1.7476 C.ar    
  20 C20            1.3534    -0.6769     0.0732 C.3     
  21 C21            4.4438     3.1957     0.9526 C.3     
  22 N22            1.8256    -0.7698     1.4569 N.am    
  23 C23            2.9932    -1.3848     1.7306 C.2     
  24 C24            3.4684    -1.4784     3.1230 C.2     
  25 O25            3.6549    -1.8625     0.8289 O.2     
  26 C26            2.0603     5.0021    -2.9039 C.3     
  27 N27            2.8376    -0.9931     4.2267 N.2     
  28 C28            4.6175    -2.0715     3.5470 C.2     
  29 O29            4.6617    -1.9300     4.8814 O.3     
  30 C30            3.5624    -1.2681     5.2695 C.2     
  31 C31            3.2216    -0.9002     6.6906 C.3     
  32 C32            3.1101    -2.1720     7.5338 C.3     
  33 C33            4.3213    -0.0035     7.2630 C.3     
  34 H34           -4.2171     1.6009     0.9712 H       
  35 H35           -4.4105     1.2243    -0.7585 H       
  36 H36           -3.7354    -0.9924    -1.5789 H       
  37 H37           -3.0675    -2.1737    -0.4258 H       
  38 H38           -5.2357    -2.3083     0.7319 H       
  39 H39           -5.9127    -0.0855     1.5545 H       
  40 H40           -7.8848     0.9981     0.5087 H       
  41 H41           -6.6760     2.2083     1.0012 H       
  42 H42           -6.8259     1.7458    -0.7111 H       
  43 H43           -4.8470    -3.7884    -1.2215 H       
  44 H44           -6.5639    -3.3371    -1.0924 H       
  45 H45           -5.5232    -2.5430    -2.2985 H       
  46 H46            0.1603     3.2247    -2.1958 H       
  47 H47            2.2630     1.6295     1.2005 H       
  48 H48            1.2251    -1.6793    -0.3351 H       
  49 H49            2.0844    -0.1320    -0.5243 H       
  50 H50            5.1792     2.4924     0.5620 H       
  51 H51            4.8699     4.1990     0.9622 H       
  52 H52            4.1690     2.9080     1.9674 H       
  53 H53            1.2979    -0.3888     2.1761 H       
  54 H54            2.4895     4.5259    -3.7856 H       
  55 H55            1.0299     5.2901    -3.1119 H       
  56 H56            2.6415     5.8888    -2.6508 H       
  57 H57            5.3536    -2.5628     2.9280 H       
  58 H58            2.2712    -0.3669     6.7099 H       
  59 H59            4.0605    -2.7053     7.5145 H       
  60 H60            2.8635    -1.9059     8.5617 H       
  61 H61            2.3266    -2.8108     7.1260 H       
  62 H62            5.2717    -0.5368     7.2437 H       
  63 H63            4.4007     0.9025     6.6622 H       
  64 H64            4.0747     0.2625     8.2909 H       
@<TRIPOS>BOND
   1    1    2 2
   2    1   14 1
   3    1    5 1
   4    2    3 1
   5    2   20 1
   6    3    4 2
   7    4    5 1
   8    4    6 1
   9    6    7 1
  10    6    8 1
  11    7   11 1
  12    7   34 1
  13    7   35 1
  14    8    9 1
  15    8   36 1
  16    8   37 1
  17    9   10 1
  18    9   13 1
  19    9   38 1
  20   10   11 1
  21   11   12 1
  22   11   39 1
  23   12   40 1
  24   12   41 1
  25   12   42 1
  26   13   43 1
  27   13   44 1
  28   13   45 1
  29   14   15 ar
  30   14   16 ar
  31   15   19 ar
  32   15   46 1
  33   16   17 ar
  34   16   47 1
  35   17   18 ar
  36   17   21 1
  37   18   19 ar
  38   19   26 1
  39   20   22 1
  40   20   48 1
  41   20   49 1
  42   21   50 1
  43   21   51 1
  44   21   52 1
  45   22   23 am
  46   22   53 1
  47   23   24 1
  48   23   25 2
  49   24   27 1
  50   24   28 2
  51   26   54 1
  52   26   55 1
  53   26   56 1
  54   27   30 2
  55   28   29 1
  56   28   57 1
  57   29   30 1
  58   30   31 1
  59   31   32 1
  60   31   33 1
  61   31   58 1
  62   32   59 1
  63   32   60 1
  64   32   61 1
  65   33   62 1
  66   33   63 1
  67   33   64 1

#	End of record

