#	Name: ASD05570003
#	Creating user name:	WinNT
#	Creation time:	15. 06. 2019 21:01

#	Modifying user name:	WinNT
#	Modification time:	15. 06. 2019 21:01

#	Program:	/corina/corina34_cracker 3.40 0067  02.08.2006

@<TRIPOS>MOLECULE
ASD05570003
  44   48    0    0    0
SMALL
NO_CHARGES


@<TRIPOS>ATOM
   1 O1            -0.1053     1.5857     0.0427 O.3     
   2 C2            -0.0968     0.1573     0.0798 C.3     
   3 C3            -1.5290    -0.3925     0.0855 C.3     
   4 O4            -1.9945    -0.8292     1.3660 O.3     
   5 P5            -3.3774    -1.6954     1.3846 P.3     
   6 O6            -3.4460    -2.5120     2.6170 O.2     
   7 O7            -4.6464    -0.7075     1.3085 O.3     
   8 O8            -3.3450    -2.6614     0.0803 O.3     
   9 C9            -2.7235    -2.2088    -1.1466 C.3     
  10 C10           -1.3550    -1.6755    -0.7718 C.3     
  11 O11           -0.5266    -1.2338    -1.8442 O.3     
  12 C12            0.5012    -0.4198    -1.2279 C.3     
  13 N13            0.8790     0.6725    -2.1281 N.pl3   
  14 C14            0.1115     1.1989    -3.1241 C.2     
  15 N15            0.7579     2.1554    -3.7250 N.2     
  16 C16            1.9775     2.3031    -3.1546 C.ar    
  17 C17            2.0679     1.3571    -2.1196 C.ar    
  18 N18            3.1810     1.2960    -1.3958 N.ar    
  19 C19            4.1868     2.1086    -1.6419 C.ar    
  20 N20            4.1485     3.0133    -2.6032 N.ar    
  21 C21            3.0760     3.1515    -3.3758 C.ar    
  22 N22            3.0451     4.1031    -4.3814 N.pl3   
  23 C23            4.0973     5.0134    -4.5148 C.ar    
  24 C24            4.4605     5.4782    -5.7725 C.ar    
  25 C25            5.5003     6.3779    -5.9006 C.ar    
  26 C26            6.1798     6.8162    -4.7787 C.ar    
  27 C27            5.8208     6.3554    -3.5252 C.ar    
  28 C28            4.7785     5.4597    -3.3894 C.ar    
  29 H29            0.7757     1.9843     0.0377 H       
  30 H30            0.4558    -0.2003     0.9487 H       
  31 H31           -2.2253     0.3137    -0.3668 H       
  32 H32           -5.4998    -1.1622     1.3158 H       
  33 H33           -2.6214    -3.0418    -1.8421 H       
  34 H34           -3.3216    -1.4167    -1.5973 H       
  35 H35           -0.8156    -2.4277    -0.1961 H       
  36 H36            1.3725    -1.0332    -0.9985 H       
  37 H37           -0.8857     0.8704    -3.3774 H       
  38 H38            5.0768     2.0328    -1.0347 H       
  39 H39            2.2932     4.1379    -4.9933 H       
  40 H40            3.9305     5.1361    -6.6491 H       
  41 H41            5.7834     6.7394    -6.8782 H       
  42 H42            6.9928     7.5195    -4.8818 H       
  43 H43            6.3535     6.6997    -2.6511 H       
  44 H44            4.4987     5.1002    -2.4102 H       
@<TRIPOS>BOND
   1    1    2 1
   2    1   29 1
   3    2    3 1
   4    2   12 1
   5    2   30 1
   6    3    4 1
   7    3   10 1
   8    3   31 1
   9    4    5 1
  10    5    6 2
  11    5    7 1
  12    5    8 1
  13    7   32 1
  14    8    9 1
  15    9   10 1
  16    9   33 1
  17    9   34 1
  18   10   11 1
  19   10   35 1
  20   11   12 1
  21   12   13 1
  22   12   36 1
  23   13   14 1
  24   13   17 1
  25   14   15 2
  26   14   37 1
  27   15   16 1
  28   16   17 ar
  29   16   21 ar
  30   17   18 ar
  31   18   19 ar
  32   19   20 ar
  33   19   38 1
  34   20   21 ar
  35   21   22 1
  36   22   23 1
  37   22   39 1
  38   23   24 ar
  39   23   28 ar
  40   24   25 ar
  41   24   40 1
  42   25   26 ar
  43   25   41 1
  44   26   27 ar
  45   26   42 1
  46   27   28 ar
  47   27   43 1
  48   28   44 1

#	End of record

