#	Name: ASD05143309
#	Creating user name:	WinNT
#	Creation time:	15. 06. 2019 20:57

#	Modifying user name:	WinNT
#	Modification time:	15. 06. 2019 20:57

#	Program:	/corina/corina34_cracker 3.40 0067  02.08.2006

@<TRIPOS>MOLECULE
ASD05143309
  52   54    0    0    0
SMALL
NO_CHARGES


@<TRIPOS>ATOM
   1 C1             0.3461     1.2372     0.2637 C.2     
   2 N2             0.3475    -0.0293    -0.1022 N.2     
   3 S3            -1.2872    -0.4837    -0.1939 S.3     
   4 C4            -1.8912     1.0620     0.2673 C.2     
   5 N5            -0.8263     1.8079     0.4623 N.2     
   6 N6            -3.2149     1.4372     0.4077 N.pl3   
   7 C7            -3.5332     2.7090     0.8924 C.ar    
   8 C8            -4.8524     3.0329     1.1841 C.ar    
   9 C9            -5.1633     4.2900     1.6632 C.ar    
  10 C10           -4.1631     5.2263     1.8529 C.ar    
  11 C11           -2.8492     4.9073     1.5637 C.ar    
  12 C12           -2.5306     3.6499     1.0891 C.ar    
  13 C13            1.4420    -0.8170    -0.3567 C.ar    
  14 C14            1.6300    -2.0043     0.3529 C.ar    
  15 C15            2.3674    -0.4361    -1.3299 C.ar    
  16 C16            3.4656    -1.2307    -1.5829 C.ar    
  17 C17            3.6516    -2.4081    -0.8712 C.ar    
  18 C18            2.7309    -2.7932     0.0938 C.ar    
  19 C19            1.6097     1.9870     0.4502 C.ar    
  20 C20            1.6605     3.3525     0.1693 C.ar    
  21 C21            2.7505     1.3305     0.9127 C.ar    
  22 C22            3.9250     2.0315     1.0851 C.ar    
  23 C23            3.9733     3.3895     0.7995 C.ar    
  24 C24            2.8384     4.0473     0.3440 C.ar    
  25 O25            4.7355    -3.1886    -1.1236 O.3     
  26 C26            4.8656    -4.3863    -0.3551 C.3     
  27 O27            5.1323     4.0774     0.9714 O.3     
  28 C28            5.1116     5.4716     0.6586 C.3     
  29 C29           -5.9428     2.0135     0.9772 C.3     
  30 H30           -3.9224     0.8177     0.1698 H       
  31 H31           -6.1886     4.5425     1.8898 H       
  32 H32           -4.4090     6.2090     2.2275 H       
  33 H33           -2.0707     5.6408     1.7126 H       
  34 H34           -1.5041     3.4013     0.8633 H       
  35 H35            0.9144    -2.3044     1.1041 H       
  36 H36            2.2232     0.4795    -1.8842 H       
  37 H37            4.1818    -0.9369    -2.3359 H       
  38 H38            2.8794    -3.7097     0.6456 H       
  39 H39            0.7781     3.8647    -0.1849 H       
  40 H40            2.7134     0.2744     1.1357 H       
  41 H41            4.8085     1.5239     1.4431 H       
  42 H42            2.8796     5.1035     0.1225 H       
  43 H43            5.7707    -4.9142    -0.6554 H       
  44 H44            4.9265    -4.1339     0.7035 H       
  45 H45            3.9987    -5.0244    -0.5271 H       
  46 H46            6.0978     5.8993     0.8396 H       
  47 H47            4.8447     5.6049    -0.3898 H       
  48 H48            4.3767     5.9742     1.2873 H       
  49 H49           -6.0752     1.4327     1.8901 H       
  50 H50           -6.8748     2.5230     0.7324 H       
  51 H51           -5.6672     1.3474     0.1596 H       
  52 Br52          11.0978    11.2090     7.2275 Br      
@<TRIPOS>BOND
   1    1    2 2
   2    1   19 1
   3    1    5 1
   4    2    3 1
   5    2   13 1
   6    3    4 1
   7    4    5 2
   8    4    6 1
   9    6    7 1
  10    6   30 1
  11    7    8 ar
  12    7   12 ar
  13    8    9 ar
  14    8   29 1
  15    9   10 ar
  16    9   31 1
  17   10   11 ar
  18   10   32 1
  19   11   12 ar
  20   11   33 1
  21   12   34 1
  22   13   14 ar
  23   13   15 ar
  24   14   18 ar
  25   14   35 1
  26   15   16 ar
  27   15   36 1
  28   16   17 ar
  29   16   37 1
  30   17   18 ar
  31   17   25 1
  32   18   38 1
  33   19   20 ar
  34   19   21 ar
  35   20   24 ar
  36   20   39 1
  37   21   22 ar
  38   21   40 1
  39   22   23 ar
  40   22   41 1
  41   23   24 ar
  42   23   27 1
  43   24   42 1
  44   25   26 1
  45   26   43 1
  46   26   44 1
  47   26   45 1
  48   27   28 1
  49   28   46 1
  50   28   47 1
  51   28   48 1
  52   29   49 1
  53   29   50 1
  54   29   51 1

#	End of record

