#	Name: ASD03331498
#	Creating user name:	WinNT
#	Creation time:	15. 06. 2019 20:39

#	Modifying user name:	WinNT
#	Modification time:	15. 06. 2019 20:39

#	Program:	/corina/corina34_cracker 3.40 0067  02.08.2006

@<TRIPOS>MOLECULE
ASD03331498
  60   62    0    0    0
SMALL
NO_CHARGES


@<TRIPOS>ATOM
   1 C1             0.3396     0.7998     1.7734 C.ar    
   2 C2             0.2642    -0.6120     1.3382 C.2     
   3 N3            -0.7819    -1.4596     1.5628 N.pl3   
   4 C4            -0.4502    -2.6642     1.0264 C.2     
   5 C5             0.7797    -2.5271     0.4592 C.2     
   6 N6             1.1894    -1.2564     0.6668 N.2     
   7 C7             1.5279    -3.5752    -0.2571 C.2     
   8 N8             2.7430    -3.3028    -0.7726 N.am    
   9 C9             1.5759     1.4404     1.8593 C.ar    
  10 O10            1.0490    -4.6860    -0.3830 O.2     
  11 C11            3.4869    -4.3448    -1.4847 C.3     
  12 C12            3.0374    -4.3837    -2.9467 C.3     
  13 C13            4.9618    -4.0420    -1.4205 C.2     
  14 C14            3.2490    -3.0080    -3.5820 C.3     
  15 C15            3.8593    -5.4277    -3.7054 C.3     
  16 C16            1.5545    -4.7542    -3.0146 C.3     
  17 C17            1.6420     2.7573     2.2653 C.ar    
  18 C18            0.4837     3.4447     2.5877 C.ar    
  19 C19           -0.7495     2.8129     2.5042 C.ar    
  20 C20           -0.8262     1.4966     2.0939 C.ar    
  21 N21            5.8609    -5.0157    -1.6654 N.am    
  22 O22            5.3397    -2.9222    -1.1485 O.2     
  23 C23            7.2923    -4.7483    -1.5048 C.3     
  24 C24           -2.0439    -1.1380     2.2364 C.3     
  25 C25           -2.6218    -2.4119     2.8590 C.3     
  26 C26           -3.4505    -3.1652     1.8207 C.3     
  27 O27           -2.6416    -3.5732     0.7238 O.3     
  28 C28           -1.2968    -3.9087     1.0830 C.3     
  29 F29           -1.8763     3.4880     2.8203 F       
  30 F30            0.5543     4.7340     2.9850 F       
  31 C31            8.0881    -6.0105    -1.8429 C.3     
  32 O32            7.9154    -6.3264    -3.2258 O.3     
  33 H33            3.1250    -2.4169    -0.6722 H       
  34 H34            2.4802     0.9059     1.6087 H       
  35 H35            3.2939    -5.3114    -1.0194 H       
  36 H36            4.3054    -2.7440    -3.5336 H       
  37 H37            2.9288    -3.0357    -4.6235 H       
  38 H38            2.6635    -2.2642    -3.0415 H       
  39 H39            3.7120    -6.4070    -3.2501 H       
  40 H40            3.5361    -5.4584    -4.7459 H       
  41 H41            4.9153    -5.1613    -3.6606 H       
  42 H42            0.9690    -4.0105    -2.4741 H       
  43 H43            1.2343    -4.7819    -4.0562 H       
  44 H44            1.4038    -5.7343    -2.5620 H       
  45 H45            2.5992     3.2532     2.3321 H       
  46 H46           -1.7857     1.0051     2.0290 H       
  47 H47            5.5603    -5.8936    -1.9481 H       
  48 H48            7.5887    -3.9415    -2.1752 H       
  49 H49            7.4941    -4.4568    -0.4741 H       
  50 H50           -1.8617    -0.4009     3.0184 H       
  51 H51           -2.7508    -0.7339     1.5117 H       
  52 H52           -1.8070    -3.0486     3.2036 H       
  53 H53           -3.2556    -2.1464     3.7051 H       
  54 H54           -3.8934    -4.0457     2.2861 H       
  55 H55           -4.2460    -2.5149     1.4568 H       
  56 H56           -0.9060    -4.6479     0.3837 H       
  57 H57           -1.2800    -4.3158     2.0939 H       
  58 H58            9.1450    -5.8394    -1.6386 H       
  59 H59            7.7299    -6.8401    -1.2333 H       
  60 H60            8.3929    -7.1173    -3.5113 H       
@<TRIPOS>BOND
   1    1    2 1
   2    1    9 ar
   3    1   20 ar
   4    2    3 1
   5    2    6 2
   6    3    4 1
   7    3   24 1
   8    4    5 2
   9    4   28 1
  10    5    6 1
  11    5    7 1
  12    7    8 am
  13    7   10 2
  14    8   11 1
  15    8   33 1
  16    9   17 ar
  17    9   34 1
  18   11   12 1
  19   11   13 1
  20   11   35 1
  21   12   14 1
  22   12   15 1
  23   12   16 1
  24   13   21 am
  25   13   22 2
  26   14   36 1
  27   14   37 1
  28   14   38 1
  29   15   39 1
  30   15   40 1
  31   15   41 1
  32   16   42 1
  33   16   43 1
  34   16   44 1
  35   17   18 ar
  36   17   45 1
  37   18   19 ar
  38   18   30 1
  39   19   20 ar
  40   19   29 1
  41   20   46 1
  42   21   23 1
  43   21   47 1
  44   23   31 1
  45   23   48 1
  46   23   49 1
  47   24   25 1
  48   24   50 1
  49   24   51 1
  50   25   26 1
  51   25   52 1
  52   25   53 1
  53   26   27 1
  54   26   54 1
  55   26   55 1
  56   27   28 1
  57   28   56 1
  58   28   57 1
  59   31   32 1
  60   31   58 1
  61   31   59 1
  62   32   60 1

#	End of record

