#	Name: ASD07930199
#	Creating user name:	WinNT
#	Creation time:	15. 06. 2019 21:11

#	Modifying user name:	WinNT
#	Modification time:	15. 06. 2019 21:11

#	Program:	/corina/corina34_cracker 3.40 0067  02.08.2006

@<TRIPOS>MOLECULE
ASD07930199
  58   62    0    0    0
SMALL
NO_CHARGES


@<TRIPOS>ATOM
   1 C1            -0.0180     1.4754     0.0102 C.2     
   2 C2             0.0021    -0.0041     0.0020 C.2     
   3 N3             1.1814     2.1509     0.0023 N.am    
   4 N4             1.1194    -0.6400     0.4288 N.am    
   5 C5             2.2493     0.1650     0.9143 C.3     
   6 C6             2.4261     1.3707    -0.0208 C.3     
   7 C7            -1.2008     2.1485     0.0195 C.2     
   8 C8            -1.2247     3.5486     0.0291 C.2     
   9 C9            -0.0458     4.2425     0.0303 C.2     
  10 C10            1.2139     3.4948     0.0143 C.2     
  11 O11           -0.9642    -0.6358    -0.3794 O.2     
  12 O12            2.2807     4.0852     0.0118 O.2     
  13 C13            0.4239     6.4402     1.0348 C.2     
  14 N14            0.2552     7.6848     0.6804 N.2     
  15 C15           -0.3161     7.7283    -0.5326 C.2     
  16 C16           -0.5113     6.4636    -0.9513 C.2     
  17 N17           -0.0431     5.6402     0.0404 N.pl3   
  18 C18           -0.6774     8.9771    -1.2948 C.3     
  19 C19            1.2002    -2.1026     0.4064 C.3     
  20 C20            1.0276    -2.6010    -1.0298 C.3     
  21 C21            0.0936    -2.6880     1.2859 C.3     
  22 O22           -0.2894    -2.2881    -1.4875 O.3     
  23 C23           -4.4822    -2.1872    -4.1990 C.3     
  24 C24           -3.9919    -1.0941    -3.2407 C.3     
  25 C25           -2.8685    -1.6781    -2.3804 C.3     
  26 C26           -1.8733    -2.3910    -3.2603 C.ar    
  27 C27           -0.6084    -2.6651    -2.7536 C.ar    
  28 C28            0.3289    -3.3216    -3.5359 C.ar    
  29 C29            0.0050    -3.7053    -4.8234 C.ar    
  30 C30           -1.2498    -3.4341    -5.3296 C.ar    
  31 C31           -2.1948    -2.7736    -4.5495 C.ar    
  32 O32           -3.4151    -2.5175    -5.0889 O.3     
  33 F33           -3.5069    -0.0063    -3.9747 F       
  34 F34           -5.0463    -0.6782    -2.4207 F       
  35 H35            2.0426     0.5136     1.9261 H       
  36 H36            3.1572    -0.4381     0.9099 H       
  37 H37            2.6247     1.0242    -1.0350 H       
  38 H38            3.2543     1.9881     0.3270 H       
  39 H39           -2.1297     1.5976     0.0190 H       
  40 H40           -2.1668     4.0767     0.0353 H       
  41 H41            0.8650     6.1025     1.9610 H       
  42 H42           -0.9521     6.1566    -1.8883 H       
  43 H43            0.1651     9.2797    -1.9167 H       
  44 H44           -1.5430     8.7793    -1.9270 H       
  45 H45           -0.9156     9.7756    -0.5921 H       
  46 H46            2.1717    -2.4186     0.7864 H       
  47 H47            1.7609    -2.1153    -1.6736 H       
  48 H48            1.1759    -3.6804    -1.0601 H       
  49 H49            0.1537    -3.7762     1.2692 H       
  50 H50            0.2165    -2.3329     2.3091 H       
  51 H51           -0.8779    -2.3720     0.9059 H       
  52 H52           -4.7729    -3.0706    -3.6304 H       
  53 H53           -5.3354    -1.8198    -4.7692 H       
  54 H54           -2.3668    -0.8730    -1.8437 H       
  55 H55           -3.2897    -2.3834    -1.6639 H       
  56 H56            1.3112    -3.5326    -3.1398 H       
  57 H57            0.7340    -4.2178    -5.4336 H       
  58 H58           -1.4999    -3.7355    -6.3360 H       
@<TRIPOS>BOND
   1    1    2 1
   2    1    3 1
   3    1    7 2
   4    2    4 am
   5    2   11 2
   6    3    6 1
   7    3   10 am
   8    4    5 1
   9    4   19 1
  10    5    6 1
  11    5   35 1
  12    5   36 1
  13    6   37 1
  14    6   38 1
  15    7    8 1
  16    7   39 1
  17    8    9 2
  18    8   40 1
  19    9   10 1
  20    9   17 1
  21   10   12 2
  22   13   14 2
  23   13   17 1
  24   13   41 1
  25   14   15 1
  26   15   16 2
  27   15   18 1
  28   16   17 1
  29   16   42 1
  30   18   43 1
  31   18   44 1
  32   18   45 1
  33   19   20 1
  34   19   21 1
  35   19   46 1
  36   20   22 1
  37   20   47 1
  38   20   48 1
  39   21   49 1
  40   21   50 1
  41   21   51 1
  42   22   27 1
  43   23   24 1
  44   23   32 1
  45   23   52 1
  46   23   53 1
  47   24   25 1
  48   24   33 1
  49   24   34 1
  50   25   26 1
  51   25   54 1
  52   25   55 1
  53   26   27 ar
  54   26   31 ar
  55   27   28 ar
  56   28   29 ar
  57   28   56 1
  58   29   30 ar
  59   29   57 1
  60   30   31 ar
  61   30   58 1
  62   31   32 1

#	End of record

