#	Name: ASD04230089
#	Creating user name:	WinNT
#	Creation time:	15. 06. 2019 20:48

#	Modifying user name:	WinNT
#	Modification time:	15. 06. 2019 20:48

#	Program:	/corina/corina34_cracker 3.40 0067  02.08.2006

@<TRIPOS>MOLECULE
ASD04230089
  48   52    0    0    0
SMALL
NO_CHARGES


@<TRIPOS>ATOM
   1 C1             1.5358     4.6863     1.7197 C.ar    
   2 C2             2.5436     5.3841     2.3696 C.ar    
   3 C3             3.8002     4.8590     2.4684 C.ar    
   4 C4             4.0822     3.6081     1.9007 C.ar    
   5 C5             3.0562     2.8818     1.2694 C.ar    
   6 C6             1.7830     3.4397     1.1727 C.ar    
   7 C7             5.3931     3.0678     1.9625 C.2     
   8 C8             5.6627     1.9284     1.2160 C.2     
   9 C9             4.5671     1.3877     0.3908 C.2     
  10 O10            3.2977     1.6422     0.7797 O.3     
  11 C11            6.9877     1.2871     1.2470 C.2     
  12 N12            7.2188     0.1818     0.5112 N.am    
  13 O13            7.8738     1.7548     1.9366 O.2     
  14 C14            8.5059    -0.3623     0.4518 C.ar    
  15 C15            8.6753    -1.7390     0.3696 C.ar    
  16 C16            9.9457    -2.2804     0.3113 C.ar    
  17 C17           11.0532    -1.4567     0.3339 C.ar    
  18 C18           10.8928    -0.0742     0.4157 C.ar    
  19 C19            9.6134     0.4724     0.4692 C.ar    
  20 C20           12.0820     0.8124     0.4406 C.ar    
  21 O21            4.7981     0.7331    -0.6086 O.2     
  22 O22            0.7868     2.7610     0.5435 O.3     
  23 C23           11.9115     2.2035     0.5231 C.ar    
  24 C24           12.9838     3.0369     0.5475 C.ar    
  25 C25           14.2857     2.5087     0.4901 C.ar    
  26 C26           14.4698     1.1051     0.4070 C.ar    
  27 C27           13.3487     0.2614     0.3880 C.ar    
  28 C28           15.4114     3.3495     0.5131 C.ar    
  29 C29           16.6589     2.8081     0.4558 C.ar    
  30 C30           16.8400     1.4286     0.3742 C.ar    
  31 C31           15.7743     0.5828     0.3495 C.ar    
  32 H32            0.5487     5.1179     1.6442 H       
  33 H33            2.3325     6.3515     2.8008 H       
  34 H34            4.5760     5.4066     2.9828 H       
  35 H35            6.1573     3.5287     2.5708 H       
  36 H36            6.4924    -0.2364     0.0228 H       
  37 H37            7.8121    -2.3878     0.3516 H       
  38 H38           10.0723    -3.3511     0.2482 H       
  39 H39           12.0443    -1.8834     0.2884 H       
  40 H40            9.4840     1.5428     0.5327 H       
  41 H41            0.2741     2.1849     1.1269 H       
  42 H42           10.9145     2.6164     0.5676 H       
  43 H43           12.8365     4.1050     0.6105 H       
  44 H44           13.4743    -0.8094     0.3250 H       
  45 H45           15.2872     4.4205     0.5757 H       
  46 H46           17.5217     3.4576     0.4733 H       
  47 H47           17.8408     1.0250     0.3299 H       
  48 H48           15.9294    -0.4841     0.2861 H       
@<TRIPOS>BOND
   1    1    2 ar
   2    1    6 ar
   3    1   32 1
   4    2    3 ar
   5    2   33 1
   6    3    4 ar
   7    3   34 1
   8    4    5 ar
   9    4    7 1
  10    5    6 ar
  11    5   10 1
  12    6   22 1
  13    7    8 2
  14    7   35 1
  15    8    9 1
  16    8   11 1
  17    9   10 1
  18    9   21 2
  19   11   12 am
  20   11   13 2
  21   12   14 1
  22   12   36 1
  23   14   15 ar
  24   14   19 ar
  25   15   16 ar
  26   15   37 1
  27   16   17 ar
  28   16   38 1
  29   17   18 ar
  30   17   39 1
  31   18   19 ar
  32   18   20 1
  33   19   40 1
  34   20   23 ar
  35   20   27 ar
  36   22   41 1
  37   23   24 ar
  38   23   42 1
  39   24   25 ar
  40   24   43 1
  41   25   26 ar
  42   25   28 ar
  43   26   27 ar
  44   26   31 ar
  45   27   44 1
  46   28   29 ar
  47   28   45 1
  48   29   30 ar
  49   29   46 1
  50   30   31 ar
  51   30   47 1
  52   31   48 1

#	End of record

