#	Name: ASD03331499
#	Creating user name:	WinNT
#	Creation time:	15. 06. 2019 20:39

#	Modifying user name:	WinNT
#	Modification time:	15. 06. 2019 20:39

#	Program:	/corina/corina34_cracker 3.40 0067  02.08.2006

@<TRIPOS>MOLECULE
ASD03331499
  55   57    0    0    0
SMALL
NO_CHARGES


@<TRIPOS>ATOM
   1 C1            -1.3973    -0.1790     0.7296 C.ar    
   2 C2            -0.9454    -1.5695     0.5046 C.2     
   3 N3            -1.6890    -2.6940     0.7239 N.pl3   
   4 C4            -0.9098    -3.7622     0.4098 C.2     
   5 C5             0.2905    -3.2754    -0.0109 C.2     
   6 N6             0.2344    -1.9274     0.0560 N.2     
   7 C7             1.4422    -4.0756    -0.4633 C.2     
   8 N8             2.5767    -3.4624    -0.8551 N.am    
   9 C9            -0.4621     0.8468     0.8687 C.ar    
  10 O10            1.3690    -5.2895    -0.4833 O.2     
  11 C11            3.7216    -4.2580    -1.3049 C.3     
  12 C12            4.5915    -3.4162    -2.2406 C.3     
  13 C13            4.5360    -4.6858    -0.1112 C.2     
  14 C14            5.0200    -2.1346    -1.5231 C.3     
  15 C15            3.7916    -3.0558    -3.4940 C.3     
  16 C16           -0.8897     2.1435     1.0781 C.ar    
  17 C17           -2.2466     2.4250     1.1504 C.ar    
  18 C18           -3.1777     1.4085     1.0126 C.ar    
  19 C19           -2.7604     0.1115     0.7975 C.ar    
  20 N20            5.3597    -5.7487    -0.2034 N.am    
  21 O21            4.4503    -4.0737     0.9323 O.2     
  22 C22           -3.0749    -2.7452     1.1978 C.3     
  23 C23           -3.3113    -4.0632     1.9387 C.3     
  24 C24           -3.7732    -5.1364     0.9542 C.3     
  25 C25           -2.7011    -5.3902    -0.1009 C.3     
  26 C26           -1.3148    -5.2081     0.5249 C.3     
  27 F27            0.0141     3.1386     1.2132 F       
  28 F28           -2.6609     3.6944     1.3562 F       
  29 C29            5.9994    -1.3588    -2.4061 C.3     
  30 H30            2.6350    -2.4943    -0.8391 H       
  31 H31            0.5940     0.6276     0.8132 H       
  32 H32            3.3647    -5.1402    -1.8363 H       
  33 H33            5.4759    -3.9862    -2.5253 H       
  34 H34            4.1429    -1.5184    -1.3250 H       
  35 H35            5.5046    -2.3903    -0.5808 H       
  36 H36            2.9072    -2.4858    -3.2092 H       
  37 H37            4.4113    -2.4561    -4.1606 H       
  38 H38            3.4863    -3.9688    -4.0052 H       
  39 H39           -4.2327     1.6327     1.0696 H       
  40 H40           -3.4877    -0.6796     0.6903 H       
  41 H41            5.4834    -6.1939    -1.0562 H       
  42 H42            5.8287    -6.0683     0.5832 H       
  43 H43           -3.2590    -1.9102     1.8739 H       
  44 H44           -3.7528    -2.6801     0.3467 H       
  45 H45           -2.3839    -4.3829     2.4141 H       
  46 H46           -4.0764    -3.9179     2.7013 H       
  47 H47           -3.9715    -6.0611     1.4961 H       
  48 H48           -4.6893    -4.8058     0.4646 H       
  49 H49           -2.7979    -6.4077    -0.4796 H       
  50 H50           -2.8248    -4.6838    -0.9217 H       
  51 H51           -0.5924    -5.8321    -0.0013 H       
  52 H52           -1.3487    -5.4947     1.5760 H       
  53 H53            6.8765    -1.9749    -2.6042 H       
  54 H54            5.5148    -1.1030    -3.3484 H       
  55 H55            6.3047    -0.4457    -1.8950 H       
@<TRIPOS>BOND
   1    1    2 1
   2    1    9 ar
   3    1   19 ar
   4    2    3 1
   5    2    6 2
   6    3    4 1
   7    3   22 1
   8    4    5 2
   9    4   26 1
  10    5    6 1
  11    5    7 1
  12    7    8 am
  13    7   10 2
  14    8   11 1
  15    8   30 1
  16    9   16 ar
  17    9   31 1
  18   11   12 1
  19   11   13 1
  20   11   32 1
  21   12   14 1
  22   12   15 1
  23   12   33 1
  24   13   20 am
  25   13   21 2
  26   14   29 1
  27   14   34 1
  28   14   35 1
  29   15   36 1
  30   15   37 1
  31   15   38 1
  32   16   17 ar
  33   16   27 1
  34   17   18 ar
  35   17   28 1
  36   18   19 ar
  37   18   39 1
  38   19   40 1
  39   20   41 1
  40   20   42 1
  41   22   23 1
  42   22   43 1
  43   22   44 1
  44   23   24 1
  45   23   45 1
  46   23   46 1
  47   24   25 1
  48   24   47 1
  49   24   48 1
  50   25   26 1
  51   25   49 1
  52   25   50 1
  53   26   51 1
  54   26   52 1
  55   29   53 1
  56   29   54 1
  57   29   55 1

#	End of record

