#	Name: ASD00070050
#	Creating user name:	WinNT
#	Creation time:	15. 06. 2019 18:30

#	Modifying user name:	WinNT
#	Modification time:	15. 06. 2019 18:30

#	Program:	/corina/corina34_cracker 3.40 0067  02.08.2006

@<TRIPOS>MOLECULE
ASD00070050
  68   72    0    0    0
SMALL
NO_CHARGES


@<TRIPOS>ATOM
   1 C1            -0.0180     1.4736     0.0101 C.2     
   2 C2             0.0021    -0.0041     0.0020 C.ar    
   3 C3             1.2189    -0.6884    -0.0133 C.ar    
   4 C4             1.2313    -2.0673    -0.0203 C.ar    
   5 C5             0.0396    -2.7733    -0.0123 C.ar    
   6 C6            -1.1707    -2.1000     0.0029 C.ar    
   7 C7            -1.1957    -0.7213     0.0154 C.ar    
   8 O8             1.0264     2.0957     0.0035 O.2     
   9 N9            -1.1942     2.1316     0.0193 N.am    
  10 C10           -1.2141     3.5964     0.0274 C.3     
  11 C11           -2.5311     4.0919    -0.5733 C.3     
  12 C12           -2.5518     5.6217    -0.5649 C.3     
  13 C13           -2.4262     6.1256     0.8743 C.3     
  14 C14           -1.1092     5.6301     1.4750 C.3     
  15 C15           -1.0885     4.1003     1.4665 C.3     
  16 C16           -2.4470     7.6554     0.8827 C.3     
  17 C17           -2.4471     8.1575     2.3279 C.3     
  18 N18           -2.4670     9.6264     2.3360 N.3     
  19 C19           -2.7058    10.1420     3.6901 C.3     
  20 C20           -2.8648    11.6632     3.6374 C.3     
  21 C21           -1.5940    12.2844     3.0513 C.3     
  22 C22           -1.3415    11.6947     1.6609 C.3     
  23 C23           -1.2266    10.1726     1.7709 C.3     
  24 O24           -0.1296    16.6447     4.2827 O.3     
  25 C25            0.9563    15.7454     4.5636 C.3     
  26 C26            0.2720    14.3585     4.5230 C.3     
  27 C27           -0.9147    14.6215     3.6163 C.ar    
  28 C28           -1.0646    16.0001     3.5321 C.ar    
  29 C29           -1.7677    13.7773     2.9412 C.ar    
  30 C30           -2.7843    14.3002     2.1613 C.ar    
  31 C31           -2.9388    15.6705     2.0635 C.ar    
  32 C32           -2.0871    16.5182     2.7415 C.ar    
  33 Cl33           0.0632    -4.5091    -0.0218 Cl      
  34 H34            2.1487    -0.1389    -0.0199 H       
  35 H35            2.1719    -2.5977    -0.0325 H       
  36 H36           -2.0966    -2.6558     0.0088 H       
  37 H37           -2.1400    -0.1973     0.0318 H       
  38 H38           -2.0276     1.6352     0.0206 H       
  39 H39           -0.3801     3.9744    -0.5640 H       
  40 H40           -2.6206     3.7330    -1.5987 H       
  41 H41           -3.3651     3.7140     0.0180 H       
  42 H42           -1.7178     5.9997    -1.1563 H       
  43 H43           -3.4901     5.9747    -0.9929 H       
  44 H44           -3.2602     5.7476     1.4656 H       
  45 H45           -0.2752     6.0080     0.8836 H       
  46 H46           -1.0197     5.9890     2.5003 H       
  47 H47           -1.9225     3.7223     2.0579 H       
  48 H48           -0.1502     3.7473     1.8945 H       
  49 H49           -1.5645     8.0336     0.3667 H       
  50 H50           -3.3442     8.0094     0.3750 H       
  51 H51           -3.3296     7.7793     2.8439 H       
  52 H52           -1.5498     7.8035     2.8356 H       
  53 H53           -3.6146     9.6956     4.0937 H       
  54 H54           -1.8610     9.8871     4.3300 H       
  55 H55           -3.7179    11.9183     3.0088 H       
  56 H56           -3.0265    12.0472     4.6446 H       
  57 H57           -0.7471    12.0621     3.7005 H       
  58 H58           -2.1706    11.9503     1.0012 H       
  59 H59           -0.4148    12.1013     1.2560 H       
  60 H60           -0.3887     9.9176     2.4198 H       
  61 H61           -1.0610     9.7484     0.7806 H       
  62 H62            1.7266    15.8185     3.7959 H       
  63 H63            1.3740    15.9411     5.5512 H       
  64 H64            0.9349    13.6095     4.0898 H       
  65 H65           -0.0569    14.0570     5.5175 H       
  66 H66           -3.4544    13.6401     1.6306 H       
  67 H67           -3.7300    16.0796     1.4528 H       
  68 H68           -2.2149    17.5875     2.6600 H       
@<TRIPOS>BOND
   1    1    2 1
   2    1    8 2
   3    1    9 am
   4    2    3 ar
   5    2    7 ar
   6    3    4 ar
   7    3   34 1
   8    4    5 ar
   9    4   35 1
  10    5    6 ar
  11    5   33 1
  12    6    7 ar
  13    6   36 1
  14    7   37 1
  15    9   10 1
  16    9   38 1
  17   10   11 1
  18   10   15 1
  19   10   39 1
  20   11   12 1
  21   11   40 1
  22   11   41 1
  23   12   13 1
  24   12   42 1
  25   12   43 1
  26   13   14 1
  27   13   16 1
  28   13   44 1
  29   14   15 1
  30   14   45 1
  31   14   46 1
  32   15   47 1
  33   15   48 1
  34   16   17 1
  35   16   49 1
  36   16   50 1
  37   17   18 1
  38   17   51 1
  39   17   52 1
  40   18   19 1
  41   18   23 1
  42   19   20 1
  43   19   53 1
  44   19   54 1
  45   20   21 1
  46   20   55 1
  47   20   56 1
  48   21   22 1
  49   21   29 1
  50   21   57 1
  51   22   23 1
  52   22   58 1
  53   22   59 1
  54   23   60 1
  55   23   61 1
  56   24   25 1
  57   24   28 1
  58   25   26 1
  59   25   62 1
  60   25   63 1
  61   26   27 1
  62   26   64 1
  63   26   65 1
  64   27   28 ar
  65   27   29 ar
  66   28   32 ar
  67   29   30 ar
  68   30   31 ar
  69   30   66 1
  70   31   32 ar
  71   31   67 1
  72   32   68 1

#	End of record

