#	Name: ASD02560023
#	Creating user name:	WinNT
#	Creation time:	15. 06. 2019 20:24

#	Modifying user name:	WinNT
#	Modification time:	15. 06. 2019 20:24

#	Program:	/corina/corina34_cracker 3.40 0067  02.08.2006

@<TRIPOS>MOLECULE
ASD02560023
  36   37    0    0    0
SMALL
NO_CHARGES


@<TRIPOS>ATOM
   1 C1            -0.0427     1.3553    -0.0435 C.ar    
   2 C2             1.1434     2.0647    -0.0610 C.ar    
   3 C3             2.3523     1.3918    -0.0668 C.ar    
   4 C4             2.3737     0.0087    -0.0546 C.ar    
   5 C5             1.1863    -0.7007    -0.0366 C.ar    
   6 C6            -0.0220    -0.0267    -0.0314 C.ar    
   7 Cl7            1.2122    -2.4365    -0.0219 Cl      
   8 Cl8            3.8419     2.2830    -0.0899 Cl      
   9 C9             3.6901    -0.7249    -0.0613 C.3     
  10 N10            4.5501    -0.1752    -1.1123 N.pl3   
  11 C11            5.6161    -0.9192    -1.5958 C.ar    
  12 C12            4.3639    -0.5600     1.2765 C.2     
  13 O13            5.4551    -0.0351     1.3453 O.2     
  14 N14            3.7540    -0.9960     2.3965 N.am    
  15 C15            5.9397    -2.1376    -1.0121 C.ar    
  16 C16            7.0004    -2.8761    -1.4951 C.ar    
  17 C17            7.7518    -2.4121    -2.5641 C.ar    
  18 C18            7.4491    -1.2073    -3.1574 C.ar    
  19 C19            6.3726    -0.4472    -2.6841 C.ar    
  20 C20            6.0435     0.8374    -3.3106 C.2     
  21 C21            6.7843     1.2860    -4.5439 C.3     
  22 O22            5.1750     1.5388    -2.8359 O.2     
  23 H23           -0.9861     1.8811    -0.0348 H       
  24 H24            1.1266     3.1446    -0.0705 H       
  25 H25           -0.9491    -0.5804    -0.0174 H       
  26 H26            3.5150    -1.7837    -0.2519 H       
  27 H27            4.3739     0.7090    -1.4700 H       
  28 H28            2.8813    -1.4158     2.3415 H       
  29 H29            4.1877    -0.8899     3.2576 H       
  30 H30            5.3605    -2.5070    -0.1788 H       
  31 H31            7.2474    -3.8224    -1.0370 H       
  32 H32            8.5797    -2.9993    -2.9333 H       
  33 H33            8.0385    -0.8509    -3.9893 H       
  34 H34            7.5208     0.5314    -4.8199 H       
  35 H35            6.0780     1.4210    -5.3630 H       
  36 H36            7.2899     2.2300    -4.3407 H       
@<TRIPOS>BOND
   1    1    2 ar
   2    1    6 ar
   3    1   23 1
   4    2    3 ar
   5    2   24 1
   6    3    4 ar
   7    3    8 1
   8    4    5 ar
   9    4    9 1
  10    5    6 ar
  11    5    7 1
  12    6   25 1
  13    9   10 1
  14    9   12 1
  15    9   26 1
  16   10   11 1
  17   10   27 1
  18   11   15 ar
  19   11   19 ar
  20   12   13 2
  21   12   14 am
  22   14   28 1
  23   14   29 1
  24   15   16 ar
  25   15   30 1
  26   16   17 ar
  27   16   31 1
  28   17   18 ar
  29   17   32 1
  30   18   19 ar
  31   18   33 1
  32   19   20 1
  33   20   21 1
  34   20   22 2
  35   21   34 1
  36   21   35 1
  37   21   36 1

#	End of record

