#	Name: ASD02198472
#	Creating user name:	WinNT
#	Creation time:	15. 06. 2019 20:19

#	Modifying user name:	WinNT
#	Modification time:	15. 06. 2019 20:19

#	Program:	/corina/corina34_cracker 3.40 0067  02.08.2006

@<TRIPOS>MOLECULE
ASD02198472
  45   48    0    0    0
SMALL
NO_CHARGES


@<TRIPOS>ATOM
   1 C1             0.2527     1.0684     0.3972 C.2     
   2 C2             0.2735    -0.2718     0.6071 C.2     
   3 N3             1.4446    -0.9440     0.6803 N.pl3   
   4 N4             2.5891    -0.3795     0.5597 N.2     
   5 C5             2.7122     0.9138     0.3528 C.2     
   6 C6             1.4940     1.7348     0.2579 C.2     
   7 C7             1.4051    -2.3249     0.8992 C.ar    
   8 C8             0.1636    -4.3130     1.4065 C.ar    
   9 C9             1.3268    -5.0568     1.3320 C.ar    
  10 C10            2.5304    -4.4375     1.0472 C.ar    
  11 C11            2.5730    -3.0745     0.8307 C.ar    
  12 C12            4.0475     1.5306     0.2192 C.2     
  13 N13            5.1215     1.0061    -0.4428 N.pl3   
  14 N14            6.1814     1.9135    -0.3229 N.2     
  15 C15            5.7770     2.9431     0.3778 C.2     
  16 C16            4.4430     2.7463     0.7336 C.2     
  17 C17            5.1564    -0.2208    -1.1199 C.ar    
  18 C18            6.1910    -1.1227    -0.8788 C.ar    
  19 O19            1.5517     2.9401     0.0663 O.2     
  20 C20            0.1991    -2.9492     1.1910 C.ar    
  21 C21            4.1581    -0.5429    -2.0275 C.ar    
  22 C22            4.1947    -1.7532    -2.6938 C.ar    
  23 C23            5.2245    -2.6451    -2.4585 C.ar    
  24 C24            6.2201    -2.3337    -1.5511 C.ar    
  25 O25            7.1694    -0.8148     0.0133 O.3     
  26 C26            8.1979    -1.7872     0.2095 C.3     
  27 C27           -1.1454    -4.9921     1.7171 C.3     
  28 F28           -0.9301    -6.3639     1.8878 F       
  29 F29           -1.6824    -4.4546     2.8918 F       
  30 F30           -2.0388    -4.7883     0.6600 F       
  31 H31           -0.6804     1.6086     0.3341 H       
  32 H32           -0.6572    -0.8086     0.7174 H       
  33 H33            1.2957    -6.1237     1.4969 H       
  34 H34            3.4372    -5.0213     0.9901 H       
  35 H35            3.5130    -2.5916     0.6080 H       
  36 H36            6.3763     3.8041     0.6347 H       
  37 H37            3.8318     3.4220     1.3134 H       
  38 H38           -0.7098    -2.3688     1.2497 H       
  39 H39            3.3522     0.1517    -2.2131 H       
  40 H40            3.4166    -2.0029    -3.4000 H       
  41 H41            5.2489    -3.5897    -2.9816 H       
  42 H42            7.0231    -3.0328    -1.3696 H       
  43 H43            8.7099    -1.9702    -0.7352 H       
  44 H44            8.9126    -1.4169     0.9444 H       
  45 H45            7.7556    -2.7164     0.5689 H       
@<TRIPOS>BOND
   1    1    2 2
   2    1    6 1
   3    1   31 1
   4    2    3 1
   5    2   32 1
   6    3    4 1
   7    3    7 1
   8    4    5 2
   9    5    6 1
  10    5   12 1
  11    6   19 2
  12    7   20 ar
  13    7   11 ar
  14    8    9 ar
  15    8   27 1
  16    8   20 ar
  17    9   10 ar
  18    9   33 1
  19   10   11 ar
  20   10   34 1
  21   11   35 1
  22   12   13 1
  23   12   16 2
  24   13   14 1
  25   13   17 1
  26   14   15 2
  27   15   16 1
  28   15   36 1
  29   16   37 1
  30   17   21 ar
  31   17   18 ar
  32   18   25 1
  33   18   24 ar
  34   20   38 1
  35   21   22 ar
  36   21   39 1
  37   22   23 ar
  38   22   40 1
  39   23   24 ar
  40   23   41 1
  41   24   42 1
  42   25   26 1
  43   26   43 1
  44   26   44 1
  45   26   45 1
  46   27   28 1
  47   27   29 1
  48   27   30 1

#	End of record

