#	Name: ASD04882108
#	Creating user name:	WinNT
#	Creation time:	15. 06. 2019 20:54

#	Modifying user name:	WinNT
#	Modification time:	15. 06. 2019 20:54

#	Program:	/corina/corina34_cracker 3.40 0067  02.08.2006

@<TRIPOS>MOLECULE
ASD04882108
  73   77    0    0    0
SMALL
NO_CHARGES


@<TRIPOS>ATOM
   1 C1             0.4800     1.0607    -0.4870 C.2     
   2 O2             0.5573    -0.2113    -0.9097 O.3     
   3 C3             1.7885    -0.4167    -1.3983 C.2     
   4 N4             2.4787     0.6793    -1.2950 N.2     
   5 C5             1.6915     1.6327    -0.7267 C.2     
   6 C6             2.0780     3.0233    -0.4275 C.2     
   7 O7             1.2758     3.7806     0.0846 O.2     
   8 N8             3.3203     3.4555    -0.7212 N.am    
   9 C9             3.6544     4.8040    -0.5384 C.ar    
  10 C10            4.9528     5.1579    -0.1599 C.ar    
  11 C11            5.2855     6.4950     0.0218 C.ar    
  12 C12            4.3378     7.4761    -0.1702 C.ar    
  13 C13            3.0380     7.1293    -0.5482 C.ar    
  14 C14            2.7023     5.7853    -0.7376 C.ar    
  15 N15            5.9138     4.1694     0.0357 N.3     
  16 C16            5.5790     3.3316     1.1958 C.3     
  17 C17            6.6140     2.2120     1.3287 C.3     
  18 N18            7.9523     2.8006     1.4766 N.3     
  19 C19            8.2872     3.6384     0.3166 C.3     
  20 C20            7.2522     4.7580     0.1836 C.3     
  21 C21            8.9163     1.8091     1.6728 C.ar    
  22 C22            8.9103     1.0532     2.8385 C.ar    
  23 C23           10.8257    -0.1555     2.0614 C.ar    
  24 C24            9.8796     1.5727     0.7006 C.ar    
  25 C25            9.8645     0.0734     3.0291 C.ar    
  26 C26           10.8312     0.5911     0.8977 C.ar    
  27 C27            7.8639     1.3026     3.8939 C.3     
  28 C28            2.0231     8.1801    -0.7533 C.2     
  29 N29            2.3493     9.4758    -0.5762 N.am    
  30 O30            0.8923     7.8773    -1.0822 O.2     
  31 C31            1.3415    10.5193    -0.7800 C.3     
  32 C32            1.9667    11.8906    -0.5162 C.3     
  33 C33            0.9141    12.9804    -0.7290 C.3     
  34 N34            1.5128    14.2935    -0.4765 N.am    
  35 C35            2.1135    15.0462    -1.4142 C.2     
  36 C36            2.6241    16.3315    -0.8012 C.3     
  37 C37            2.6112    16.0572     0.7205 C.3     
  38 C38            1.5281    14.9588     0.8316 C.3     
  39 O39            2.2297    14.7393    -2.5818 O.2     
  40 H40           -0.3810     1.5400    -0.0452 H       
  41 H41            2.1500    -1.3466    -1.8119 H       
  42 H42            3.9831     2.8332    -1.0592 H       
  43 H43            6.2893     6.7654     0.3146 H       
  44 H44            4.5995     8.5143    -0.0282 H       
  45 H45            1.6999     5.5146    -1.0347 H       
  46 H46            5.5853     3.9418     2.0990 H       
  47 H47            4.5890     2.8972     1.0569 H       
  48 H48            6.3841     1.6065     2.2055 H       
  49 H49            6.5886     1.5856     0.4370 H       
  50 H50            9.2771     4.0729     0.4554 H       
  51 H51            8.2809     3.0282    -0.5866 H       
  52 H52            7.4821     5.3635    -0.6932 H       
  53 H53            7.2775     5.3844     1.0753 H       
  54 H54           11.5711    -0.9222     2.2132 H       
  55 H55            9.8844     2.1555    -0.2086 H       
  56 H56            9.8603    -0.5145     3.9350 H       
  57 H57           11.5832     0.4098     0.1441 H       
  58 H58            7.0260     0.6220     3.7428 H       
  59 H59            8.2955     1.1340     4.8805 H       
  60 H60            7.5133     2.3321     3.8218 H       
  61 H61            3.2514     9.7173    -0.3139 H       
  62 H62            0.9774    10.4774    -1.8065 H       
  63 H63            0.5103    10.3607    -0.0929 H       
  64 H64            2.3307    11.9326     0.5103 H       
  65 H65            2.7979    12.0492    -1.2033 H       
  66 H66            0.5500    12.9385    -1.7555 H       
  67 H67            0.0829    12.8219    -0.0419 H       
  68 H68            3.6379    16.5406    -1.1426 H       
  69 H69            1.9599    17.1606    -1.0450 H       
  70 H70            3.5803    15.6907     1.0590 H       
  71 H71            2.3175    16.9485     1.2750 H       
  72 H72            0.5552    15.4042     1.0396 H       
  73 H73            1.7930    14.2473     1.6137 H       
@<TRIPOS>BOND
   1    1    2 1
   2    1    5 2
   3    1   40 1
   4    2    3 1
   5    3    4 2
   6    3   41 1
   7    4    5 1
   8    5    6 1
   9    6    7 2
  10    6    8 am
  11    8    9 1
  12    8   42 1
  13    9   10 ar
  14    9   14 ar
  15   10   11 ar
  16   10   15 1
  17   11   12 ar
  18   11   43 1
  19   12   13 ar
  20   12   44 1
  21   13   14 ar
  22   13   28 1
  23   14   45 1
  24   15   16 1
  25   15   20 1
  26   16   17 1
  27   16   46 1
  28   16   47 1
  29   17   18 1
  30   17   48 1
  31   17   49 1
  32   18   19 1
  33   18   21 1
  34   19   20 1
  35   19   50 1
  36   19   51 1
  37   20   52 1
  38   20   53 1
  39   21   22 ar
  40   21   24 ar
  41   22   25 ar
  42   22   27 1
  43   23   25 ar
  44   23   26 ar
  45   23   54 1
  46   24   26 ar
  47   24   55 1
  48   25   56 1
  49   26   57 1
  50   27   58 1
  51   27   59 1
  52   27   60 1
  53   28   29 am
  54   28   30 2
  55   29   31 1
  56   29   61 1
  57   31   32 1
  58   31   62 1
  59   31   63 1
  60   32   33 1
  61   32   64 1
  62   32   65 1
  63   33   34 1
  64   33   66 1
  65   33   67 1
  66   34   35 am
  67   34   38 1
  68   35   36 1
  69   35   39 2
  70   36   37 1
  71   36   68 1
  72   36   69 1
  73   37   38 1
  74   37   70 1
  75   37   71 1
  76   38   72 1
  77   38   73 1

#	End of record

