#	Name: ASD01884704
#	Creating user name:	WinNT
#	Creation time:	15. 06. 2019 19:48

#	Modifying user name:	WinNT
#	Modification time:	15. 06. 2019 19:48

#	Program:	/corina/corina34_cracker 3.40 0067  02.08.2006

@<TRIPOS>MOLECULE
ASD01884704
  44   46    0    0    0
SMALL
NO_CHARGES


@<TRIPOS>ATOM
   1 C1            -0.0168     1.3861     0.0097 C.2     
   2 C2             0.0021    -0.0041     0.0020 C.2     
   3 C3            -1.2196    -0.6996     0.0099 C.2     
   4 C4            -2.4058     0.0016     0.0249 C.2     
   5 N5            -2.4135     1.3557     0.0323 N.am    
   6 C6            -1.2662     2.0590     0.0311 C.2     
   7 O7            -1.3003     3.2775     0.0385 O.2     
   8 C8            -3.6938     2.0676     0.0478 C.3     
   9 C9             1.2076     2.1287     0.0020 C.1     
  10 N10            2.1789     2.7178    -0.0042 N.1     
  11 C11           -4.1263     2.3077     1.4956 C.3     
  12 C12           -5.4634     3.0513     1.5118 C.3     
  13 C13           -5.9570     3.1816     2.9541 C.3     
  14 C14           -5.2792     4.4450     0.9080 C.3     
  15 C15           -1.2317    -2.1838     0.0016 C.ar    
  16 C16           -0.7393    -2.8826    -1.0983 C.ar    
  17 C17           -0.7521    -4.2623    -1.1027 C.ar    
  18 C18           -1.2523    -4.9671    -0.0179 C.ar    
  19 C19           -1.7457    -4.2631     1.0844 C.ar    
  20 C20           -1.7306    -2.8872     1.0966 C.ar    
  21 C21           -0.2881    -5.2530    -2.1470 C.3     
  22 C22           -0.5825    -6.6302    -1.5304 C.3     
  23 N23           -1.1745    -6.3462    -0.2206 N.pl3   
  24 H24            0.9394    -0.5405    -0.0101 H       
  25 H25           -3.3423    -0.5363     0.0306 H       
  26 H26           -3.5834     3.0248    -0.4619 H       
  27 H27           -4.4485     1.4692    -0.4624 H       
  28 H28           -4.2367     1.3506     2.0053 H       
  29 H29           -3.3715     2.9062     2.0058 H       
  30 H30           -6.1954     2.4954     0.9260 H       
  31 H31           -5.2250     3.7375     3.5399 H       
  32 H32           -6.9096     3.7113     2.9656 H       
  33 H33           -6.0882     2.1887     3.3843 H       
  34 H34           -4.9275     4.3522    -0.1196 H       
  35 H35           -6.2318     4.9747     0.9195 H       
  36 H36           -4.5472     5.0010     1.4937 H       
  37 H37           -0.3476    -2.3440    -1.9485 H       
  38 H38           -2.1372    -4.8027     1.9340 H       
  39 H39           -2.1138    -2.3514     1.9524 H       
  40 H40           -0.8502    -5.1222    -3.0717 H       
  41 H41            0.7802    -5.1392    -2.3311 H       
  42 H42           -1.2882    -7.1802    -2.1531 H       
  43 H43            0.3410    -7.1971    -1.4130 H       
  44 H44           -1.4698    -7.0185     0.4132 H       
@<TRIPOS>BOND
   1    1    2 2
   2    1    9 1
   3    1    6 1
   4    2    3 1
   5    2   24 1
   6    3    4 2
   7    3   15 1
   8    4    5 1
   9    4   25 1
  10    5    8 1
  11    5    6 am
  12    6    7 2
  13    8   11 1
  14    8   26 1
  15    8   27 1
  16    9   10 3
  17   11   12 1
  18   11   28 1
  19   11   29 1
  20   12   13 1
  21   12   14 1
  22   12   30 1
  23   13   31 1
  24   13   32 1
  25   13   33 1
  26   14   34 1
  27   14   35 1
  28   14   36 1
  29   15   16 ar
  30   15   20 ar
  31   16   17 ar
  32   16   37 1
  33   17   18 ar
  34   17   21 1
  35   18   19 ar
  36   18   23 1
  37   19   20 ar
  38   19   38 1
  39   20   39 1
  40   21   22 1
  41   21   40 1
  42   21   41 1
  43   22   23 1
  44   22   42 1
  45   22   43 1
  46   23   44 1

#	End of record

