#	Name: ASD01030010
#	Creating user name:	WinNT
#	Creation time:	15. 06. 2019 18:58

#	Modifying user name:	WinNT
#	Modification time:	15. 06. 2019 18:58

#	Program:	/corina/corina34_cracker 3.40 0067  02.08.2006

@<TRIPOS>MOLECULE
ASD01030010
  82   85    0    0    0
SMALL
NO_CHARGES


@<TRIPOS>ATOM
   1 S1            -1.7637     0.5776     0.6534 S.o2    
   2 O2            -3.6442    15.8484    10.3608 O.3     
   3 O3            -2.3599     5.4108     2.7872 O.2     
   4 O4            -1.8096    -0.9316     0.8446 O.3     
   5 O5            -0.4020     0.8515     0.3533 O.2     
   6 O6            -2.7901     0.8423    -0.2931 O.2     
   7 N7            -2.5519     3.3277     3.5262 N.am    
   8 C8            -3.9599     9.4199     7.5867 C.3     
   9 C9            -4.7682    10.6680     7.1394 C.3     
  10 C10           -5.5958    11.1110     8.3313 C.3     
  11 C11           -4.6138    11.5551     9.4266 C.3     
  12 C12           -5.4019    12.0107    10.6553 C.3     
  13 C13           -3.4463     8.8450     6.2707 C.3     
  14 C14           -2.9113     9.8886     8.5763 C.3     
  15 C15           -6.2988    13.1908    10.2730 C.3     
  16 C16           -3.6548    10.4327     9.8079 C.3     
  17 C17           -5.5555    10.1159     5.9462 C.3     
  18 C18           -6.4895    12.2917     7.9492 C.3     
  19 C19           -4.5034     9.2418     5.2102 C.3     
  20 C20           -7.2747    12.7552     9.1780 C.3     
  21 C21           -4.4278    12.4476    11.7517 C.3     
  22 C22           -4.8940     8.4131     8.2611 C.3     
  23 C23           -3.3357     7.3219     6.3649 C.3     
  24 C24           -5.4318    14.3399     9.7536 C.3     
  25 C25           -6.2664    10.8559    11.1652 C.3     
  26 C26           -3.5602    13.5963    11.2331 C.3     
  27 C27           -4.4543    14.7762    10.8467 C.3     
  28 C28           -2.9627     6.7519     4.9949 C.3     
  29 C29           -2.2554     6.9510     7.3829 C.3     
  30 C30           -2.9739     5.2233     5.0582 C.3     
  31 C31           -2.6065     4.6619     3.7088 C.2     
  32 C32           -2.1947     2.7820     2.2144 C.3     
  33 C33           -2.2059     1.2533     2.2777 C.3     
  34 H34           -4.0950    11.4665     6.8277 H       
  35 H35           -6.1975    10.2769     8.6923 H       
  36 H36           -4.0265    12.3943     9.0539 H       
  37 H37           -2.4787     9.2799     6.0206 H       
  38 H38           -6.8579    13.5214    11.1483 H       
  39 H39           -5.0127    15.1104    11.7211 H       
  40 S40           -3.2851    16.8817    11.4190 S.o2    
  41 O41           -2.6622    17.9590    10.7329 O.2     
  42 O42           -4.4397    17.0417    12.2318 O.2     
  43 O43           -2.2160    16.2630    12.3083 O.3     
  44 H44           -1.5922    -1.4358     0.0486 H       
  45 H45           -2.7491     2.7288     4.2633 H       
  46 H46           -2.2754     9.0523     8.8666 H       
  47 H47           -2.3066    10.6779     8.1297 H       
  48 H48           -2.9270    10.8135    10.5245 H       
  49 H49           -4.2191     9.6230    10.2704 H       
  50 H50           -6.3935     9.5070     6.2855 H       
  51 H51           -5.9011    10.9260     5.3040 H       
  52 H52           -5.8716    13.1113     7.5824 H       
  53 H53           -7.1849    11.9833     7.1686 H       
  54 H54           -4.0343     9.8150     4.4105 H       
  55 H55           -4.9779     8.3491     4.8026 H       
  56 H56           -7.8910    11.9349     9.5459 H       
  57 H57           -7.9134    13.5954     8.9053 H       
  58 H58           -4.9889    12.7812    12.6247 H       
  59 H59           -3.7910    11.6072    12.0281 H       
  60 H60           -5.7089     8.1623     7.5821 H       
  61 H61           -4.3365     7.5099     8.5090 H       
  62 H62           -5.3019     8.8500     9.1726 H       
  63 H63           -4.2922     6.9071     6.6828 H       
  64 H64           -4.8735    14.0071     8.8787 H       
  65 H65           -6.0692    15.1807     9.4796 H       
  66 H66           -5.6272    10.0153    11.4352 H       
  67 H67           -6.8277    11.1814    12.0410 H       
  68 H68           -6.9600    10.5483    10.3827 H       
  69 H69           -2.8651    13.9073    12.0129 H       
  70 H70           -3.0005    13.2630    10.3592 H       
  71 H71           -3.6849     7.0901     4.2518 H       
  72 H72           -1.9667     7.0968     4.7169 H       
  73 H73           -1.2860     7.3008     7.0277 H       
  74 H74           -2.4822     7.4198     8.3405 H       
  75 H75           -2.2283     5.8683     7.5058 H       
  76 H76           -2.2517     4.8851     5.8013 H       
  77 H77           -3.9698     4.8785     5.3363 H       
  78 H78           -2.9169     3.1202     1.4713 H       
  79 H79           -1.1988     3.1268     1.9363 H       
  80 H80           -3.2019     0.9085     2.5557 H       
  81 H81           -1.4837     0.9152     3.0208 H       
  82 H82           -1.9138    16.8423    13.0212 H       
@<TRIPOS>BOND
   1    1    4 1
   2    1    5 2
   3    1    6 2
   4    1   33 1
   5    2   40 1
   6    2   27 1
   7    3   31 2
   8    4   44 1
   9    7   31 am
  10    7   32 1
  11    7   45 1
  12    8    9 1
  13    8   14 1
  14    8   22 1
  15    8   13 1
  16    9   10 1
  17    9   17 1
  18    9   34 1
  19   10   11 1
  20   10   18 1
  21   10   35 1
  22   11   12 1
  23   11   16 1
  24   11   36 1
  25   12   15 1
  26   12   21 1
  27   12   25 1
  28   13   19 1
  29   13   23 1
  30   13   37 1
  31   14   16 1
  32   14   46 1
  33   14   47 1
  34   15   20 1
  35   15   24 1
  36   15   38 1
  37   16   48 1
  38   16   49 1
  39   17   19 1
  40   17   50 1
  41   17   51 1
  42   18   20 1
  43   18   52 1
  44   18   53 1
  45   19   54 1
  46   19   55 1
  47   20   56 1
  48   20   57 1
  49   21   26 1
  50   21   58 1
  51   21   59 1
  52   22   60 1
  53   22   61 1
  54   22   62 1
  55   23   28 1
  56   23   29 1
  57   23   63 1
  58   24   27 1
  59   24   64 1
  60   24   65 1
  61   25   66 1
  62   25   67 1
  63   25   68 1
  64   26   27 1
  65   26   69 1
  66   26   70 1
  67   27   39 1
  68   28   30 1
  69   28   71 1
  70   28   72 1
  71   29   73 1
  72   29   74 1
  73   29   75 1
  74   30   31 1
  75   30   76 1
  76   30   77 1
  77   32   33 1
  78   32   78 1
  79   32   79 1
  80   33   80 1
  81   33   81 1
  82   40   41 2
  83   40   42 2
  84   40   43 1
  85   43   82 1

#	End of record

