#	Name: ASD03731828
#	Creating user name:	WinNT
#	Creation time:	15. 06. 2019 20:46

#	Modifying user name:	WinNT
#	Modification time:	15. 06. 2019 20:46

#	Program:	/corina/corina34_cracker 3.40 0067  02.08.2006

@<TRIPOS>MOLECULE
ASD03731828
  36   37    0    0    0
SMALL
NO_CHARGES


@<TRIPOS>ATOM
   1 C1            -0.4032     1.1042    -1.9601 C.2     
   2 C2            -0.2819    -0.2739    -1.4499 C.ar    
   3 C3             0.9019    -0.9946    -1.6486 C.ar    
   4 C4             1.0102    -2.2842    -1.1686 C.ar    
   5 C5            -0.0529    -2.8658    -0.4903 C.ar    
   6 C6            -1.2312    -2.1524    -0.2914 C.ar    
   7 C7            -1.3464    -0.8629    -0.7613 C.ar    
   8 O8             0.5258     1.6165    -2.5544 O.2     
   9 N9            -1.5457     1.7941    -1.7725 N.am    
  10 S10           -1.6819     3.3419    -2.3454 S.o2    
  11 O11           -2.9840     3.7493    -1.9481 O.2     
  12 O12           -0.5248     4.0018    -1.8506 O.2     
  13 C13           -1.5924     3.1665    -4.1487 C.3     
  14 O14            0.0574    -4.1342    -0.0202 O.3     
  15 C15            1.2595    -4.7565    -0.1396 C.ar    
  16 C16            2.2111    -4.6282     0.8622 C.ar    
  17 C17            3.4323    -5.2618     0.7383 C.ar    
  18 C18            3.7070    -6.0230    -0.3829 C.ar    
  19 C19            2.7607    -6.1521    -1.3828 C.ar    
  20 C20            1.5354    -5.5260    -1.2608 C.ar    
  21 C21            5.0403    -6.7127    -0.5156 C.3     
  22 F22            1.9358    -0.4292    -2.3093 F       
  23 Cl23          -2.5558    -2.8868     0.5570 Cl      
  24 H24            1.9226    -2.8416    -1.3209 H       
  25 H25           -2.2599    -0.3091    -0.6022 H       
  26 H26           -2.2882     1.3841    -1.3019 H       
  27 H27           -2.4090     2.5318    -4.4930 H       
  28 H28           -1.6749     4.1489    -4.6138 H       
  29 H29           -0.6397     2.7135    -4.4229 H       
  30 H30            1.9972    -4.0332     1.7377 H       
  31 H31            4.1733    -5.1623     1.5177 H       
  32 H32            2.9779    -6.7469    -2.2576 H       
  33 H33            0.7948    -5.6311    -2.0398 H       
  34 H34            4.9791    -7.7091    -0.0778 H       
  35 H35            5.3036    -6.7948    -1.5701 H       
  36 H36            5.8026    -6.1332     0.0052 H       
@<TRIPOS>BOND
   1    1    2 1
   2    1    8 2
   3    1    9 am
   4    2    3 ar
   5    2    7 ar
   6    3    4 ar
   7    3   22 1
   8    4    5 ar
   9    4   24 1
  10    5    6 ar
  11    5   14 1
  12    6    7 ar
  13    6   23 1
  14    7   25 1
  15    9   10 am
  16    9   26 1
  17   10   11 2
  18   10   12 2
  19   10   13 1
  20   13   27 1
  21   13   28 1
  22   13   29 1
  23   14   15 1
  24   15   16 ar
  25   15   20 ar
  26   16   17 ar
  27   16   30 1
  28   17   18 ar
  29   17   31 1
  30   18   19 ar
  31   18   21 1
  32   19   20 ar
  33   19   32 1
  34   20   33 1
  35   21   34 1
  36   21   35 1
  37   21   36 1

#	End of record

