#	Name: ASD01231392
#	Creating user name:	WinNT
#	Creation time:	15. 06. 2019 19:15

#	Modifying user name:	WinNT
#	Modification time:	15. 06. 2019 19:15

#	Program:	/corina/corina34_cracker 3.40 0067  02.08.2006

@<TRIPOS>MOLECULE
ASD01231392
  36   37    0    0    0
SMALL
NO_CHARGES


@<TRIPOS>ATOM
   1 C1             0.0179     1.5810    -0.1486 C.3     
   2 C2            -0.0106     0.0391    -0.0876 C.3     
   3 C3             1.3562    -0.2930     0.5474 C.3     
   4 C4             2.2549     0.8700     0.1846 C.ar    
   5 C5             3.6331     0.9739     0.2041 C.ar    
   6 C6             4.2503     2.1647    -0.1791 C.ar    
   7 C7             3.4680     3.2489    -0.5821 C.ar    
   8 C8             2.0950     3.1337    -0.5980 C.ar    
   9 C9             1.4854     1.9482    -0.2159 C.ar    
  10 C10            5.7231     2.2783    -0.1580 C.2     
  11 O11            6.4002     1.3331     0.1936 O.2     
  12 O12            6.3151     3.4301    -0.5288 O.3     
  13 S13           -2.5507    -0.8734     0.0845 S.o2    
  14 O14           -2.1866    -1.7714    -0.9549 O.2     
  15 O15           -3.3371    -1.3075     1.1856 O.2     
  16 N16           -1.1075    -0.4281     0.7636 N.am    
  17 C17           -3.2188     0.6644    -0.6079 C.3     
  18 C18           -4.5597     0.3778    -1.2868 C.3     
  19 C19           -3.4232     1.6829     0.5153 C.3     
  20 H20           -0.5015     1.9338    -1.0395 H       
  21 H21           -0.4369     2.0033     0.7475 H       
  22 H22           -0.0867    -0.3868    -1.0880 H       
  23 H23            1.2606    -0.3736     1.6303 H       
  24 H24            1.7511    -1.2201     0.1318 H       
  25 H25            4.2329     0.1319     0.5167 H       
  26 H26            3.9375     4.1747    -0.8801 H       
  27 H27            1.4898     3.9722    -0.9094 H       
  28 H28            7.2813     3.4567    -0.4986 H       
  29 H29           -0.9885    -0.4767     1.7251 H       
  30 H30           -2.5193     1.0669    -1.3406 H       
  31 H31           -5.2591    -0.0248    -0.5541 H       
  32 H32           -4.9611     1.3019    -1.7028 H       
  33 H33           -4.4140    -0.3478    -2.0870 H       
  34 H34           -2.4570     1.9513     0.9427 H       
  35 H35           -3.9033     2.5752     0.1137 H       
  36 H36           -4.0548     1.2478     1.2898 H       
@<TRIPOS>BOND
   1    1    2 1
   2    1    9 1
   3    1   20 1
   4    1   21 1
   5    2    3 1
   6    2   16 1
   7    2   22 1
   8    3    4 1
   9    3   23 1
  10    3   24 1
  11    4    5 ar
  12    4    9 ar
  13    5    6 ar
  14    5   25 1
  15    6    7 ar
  16    6   10 1
  17    7    8 ar
  18    7   26 1
  19    8    9 ar
  20    8   27 1
  21   10   11 2
  22   10   12 1
  23   12   28 1
  24   13   14 2
  25   13   15 2
  26   13   16 am
  27   13   17 1
  28   16   29 1
  29   17   18 1
  30   17   19 1
  31   17   30 1
  32   18   31 1
  33   18   32 1
  34   18   33 1
  35   19   34 1
  36   19   35 1
  37   19   36 1

#	End of record

