#	Name: ASD03091611
#	Creating user name:	WinNT
#	Creation time:	15. 06. 2019 20:31

#	Modifying user name:	WinNT
#	Modification time:	15. 06. 2019 20:31

#	Program:	/corina/corina34_cracker 3.40 0067  02.08.2006

@<TRIPOS>MOLECULE
ASD03091611
  62   65    0    0    0
SMALL
NO_CHARGES


@<TRIPOS>ATOM
   1 C1            -0.0201     1.3504     0.0178 C.2     
   2 C2            -0.0032     0.0119     0.1885 C.2     
   3 N3            -1.1893    -0.5548     0.1431 N.2     
   4 C4            -2.2095     0.2245    -0.0560 C.2     
   5 S5            -1.6956     1.8483    -0.2025 S.3     
   6 N6            -3.5241    -0.1983    -0.1322 N.3     
   7 C7            -4.4298     0.9361    -0.3648 C.3     
   8 C8            -3.6893    -1.2195    -1.1769 C.3     
   9 C9            -5.1424    -1.7014    -1.1866 C.3     
  10 O10           -6.0096    -0.5811    -1.3826 O.3     
  11 C11           -5.8755     0.4326    -0.3827 C.3     
  12 C12           -6.8173     1.5948    -0.7039 C.3     
  13 C13           -5.3400    -2.7055    -2.3239 C.3     
  14 C14            1.1569     2.2410     0.0214 C.ar    
  15 C15            2.2822     1.9507    -0.7616 C.ar    
  16 C16            1.1781     3.4036     0.8034 C.ar    
  17 C17            2.2977     4.2065     0.7760 C.ar    
  18 N18            3.3388     3.8931     0.0271 N.ar    
  19 C19            3.3588     2.8103    -0.7279 C.ar    
  20 C20            1.2670    -0.7676     0.4122 C.3     
  21 C21            2.3341     5.4597     1.6121 C.3     
  22 N22            1.6150    -0.7363     1.8349 N.am    
  23 C23            2.7205    -1.3710     2.2724 C.2     
  24 C24            3.0706    -1.3396     3.7036 C.2     
  25 O25            3.4292    -1.9697     1.4861 O.2     
  26 C26            4.5779     2.5072    -1.5603 C.3     
  27 C27            3.8487    -0.4188     4.3422 C.2     
  28 O28            3.9179    -0.7492     5.6354 O.3     
  29 C29            3.2106    -1.8625     5.8838 C.2     
  30 C30            2.6490    -2.2903     4.7428 C.2     
  31 C31            1.7727    -3.5029     4.5616 C.3     
  32 C32            4.5174     0.7685     3.6987 C.3     
  33 H33           -4.3091     1.6679     0.4340 H       
  34 H34           -4.1940     1.3997    -1.3227 H       
  35 H35           -3.4416    -0.7904    -2.1477 H       
  36 H36           -3.0281    -2.0612    -0.9709 H       
  37 H37           -5.3740    -2.1787    -0.2344 H       
  38 H38           -6.1284     0.0173     0.5928 H       
  39 H39           -7.8461     1.2349    -0.7203 H       
  40 H40           -6.7147     2.3670     0.0585 H       
  41 H41           -6.5622     2.0104    -1.6787 H       
  42 H42           -4.6761    -3.5573    -2.1761 H       
  43 H43           -6.3748    -3.0482    -2.3304 H       
  44 H44           -5.1101    -2.2265    -3.2756 H       
  45 H45            2.3056     1.0667    -1.3816 H       
  46 H46            0.3298     3.6666     1.4179 H       
  47 H47            1.1198    -1.8005     0.0968 H       
  48 H48            2.0741    -0.3217    -0.1691 H       
  49 H49            2.7442     5.2289     2.5952 H       
  50 H50            2.9612     6.2049     1.1226 H       
  51 H51            1.3232     5.8519     1.7231 H       
  52 H52            1.0498    -0.2588     2.4621 H       
  53 H53            5.2711     1.8975    -0.9808 H       
  54 H54            4.2796     1.9648    -2.4575 H       
  55 H55            5.0648     3.4400    -1.8447 H       
  56 H56            3.1070    -2.3363     6.8488 H       
  57 H57            0.7301    -3.2236     4.7133 H       
  58 H58            1.9005    -3.8961     3.5531 H       
  59 H59            2.0537    -4.2659     5.2875 H       
  60 H60            3.8461     1.6266     3.7335 H       
  61 H61            5.4359     1.0038     4.2363 H       
  62 H62            4.7538     0.5341     2.6608 H       
@<TRIPOS>BOND
   1    1    2 2
   2    1   14 1
   3    1    5 1
   4    2    3 1
   5    2   20 1
   6    3    4 2
   7    4    5 1
   8    4    6 1
   9    6    7 1
  10    6    8 1
  11    7   11 1
  12    7   33 1
  13    7   34 1
  14    8    9 1
  15    8   35 1
  16    8   36 1
  17    9   10 1
  18    9   13 1
  19    9   37 1
  20   10   11 1
  21   11   12 1
  22   11   38 1
  23   12   39 1
  24   12   40 1
  25   12   41 1
  26   13   42 1
  27   13   43 1
  28   13   44 1
  29   14   15 ar
  30   14   16 ar
  31   15   19 ar
  32   15   45 1
  33   16   17 ar
  34   16   46 1
  35   17   18 ar
  36   17   21 1
  37   18   19 ar
  38   19   26 1
  39   20   22 1
  40   20   47 1
  41   20   48 1
  42   21   49 1
  43   21   50 1
  44   21   51 1
  45   22   23 am
  46   22   52 1
  47   23   24 1
  48   23   25 2
  49   24   27 2
  50   24   30 1
  51   26   53 1
  52   26   54 1
  53   26   55 1
  54   27   28 1
  55   27   32 1
  56   28   29 1
  57   29   30 2
  58   29   56 1
  59   30   31 1
  60   31   57 1
  61   31   58 1
  62   31   59 1
  63   32   60 1
  64   32   61 1
  65   32   62 1

#	End of record

