#	Name: ASD01913813
#	Creating user name:	WinNT
#	Creation time:	15. 06. 2019 20:02

#	Modifying user name:	WinNT
#	Modification time:	15. 06. 2019 20:02

#	Program:	/corina/corina34_cracker 3.40 0067  02.08.2006

@<TRIPOS>MOLECULE
ASD01913813
  39   41    0    0    0
SMALL
NO_CHARGES


@<TRIPOS>ATOM
   1 C1            -0.0226     1.4278    -0.0313 C.ar    
   2 C2            -0.0016    -0.0041    -0.0269 C.1     
   3 C3             0.0156    -1.1780    -0.0233 C.1     
   4 C4             0.0365    -2.6098    -0.0190 C.ar    
   5 C5            -1.1336    -3.3383     0.2422 C.ar    
   6 C6             0.1561    -5.3344    -0.0290 C.ar    
   7 N7             1.2427    -4.6189    -0.2773 N.ar    
   8 C8             1.2210    -3.3023    -0.2803 C.ar    
   9 C9            -1.0629    -4.7170     0.2348 C.ar    
  10 N10            0.2332    -6.7251    -0.0380 N.am    
  11 C11           -0.8328    -7.5439    -0.0326 C.2     
  12 C12           -0.3802    -8.9874    -0.0354 C.3     
  13 C13            1.1087    -8.9187     0.3763 C.3     
  14 C14            1.4888    -7.4847    -0.0609 C.3     
  15 O15           -1.9892    -7.1786    -0.0260 O.2     
  16 C16            1.1419     2.1547    -0.2912 C.ar    
  17 N17            1.1225     3.4713    -0.2957 N.ar    
  18 C18            0.0184     4.1531    -0.0584 C.ar    
  19 C19           -1.1775     3.5077     0.2084 C.ar    
  20 C20           -1.2128     2.1239     0.2193 C.ar    
  21 C21            1.2678    -9.0965     1.8876 C.3     
  22 C22            1.9358    -9.9565    -0.3851 C.3     
  23 Cl23          -2.6188     4.4244     0.5186 Cl      
  24 H24           -2.0665    -2.8331     0.4443 H       
  25 H25            2.1274    -2.7528    -0.4872 H       
  26 H26           -1.9438    -5.3098     0.4321 H       
  27 H27           -0.9502    -9.5673     0.6904 H       
  28 H28           -0.4809    -9.4168    -1.0321 H       
  29 H29            1.9114    -7.4962    -1.0656 H       
  30 H30            2.1993    -7.0515     0.6430 H       
  31 H31            2.0661     1.6322    -0.4898 H       
  32 H32            0.0478     5.2326    -0.0719 H       
  33 H33           -2.1316     1.5947     0.4242 H       
  34 H34            0.8910   -10.0768     2.1797 H       
  35 H35            2.3219    -9.0183     2.1537 H       
  36 H36            0.7037    -8.3212     2.4060 H       
  37 H37            1.8391    -9.7830    -1.4568 H       
  38 H38            2.9831    -9.8697    -0.0960 H       
  39 H39            1.5743   -10.9564    -0.1449 H       
@<TRIPOS>BOND
   1    1    2 1
   2    1   16 ar
   3    1   20 ar
   4    2    3 3
   5    3    4 1
   6    4    5 ar
   7    4    8 ar
   8    5    9 ar
   9    5   24 1
  10    6    7 ar
  11    6   10 1
  12    6    9 ar
  13    7    8 ar
  14    8   25 1
  15    9   26 1
  16   10   11 am
  17   10   14 1
  18   11   12 1
  19   11   15 2
  20   12   13 1
  21   12   27 1
  22   12   28 1
  23   13   14 1
  24   13   21 1
  25   13   22 1
  26   14   29 1
  27   14   30 1
  28   16   17 ar
  29   16   31 1
  30   17   18 ar
  31   18   19 ar
  32   18   32 1
  33   19   20 ar
  34   19   23 1
  35   20   33 1
  36   21   34 1
  37   21   35 1
  38   21   36 1
  39   22   37 1
  40   22   38 1
  41   22   39 1

#	End of record

