#	Name: ASD02030036
#	Creating user name:	WinNT
#	Creation time:	15. 06. 2019 20:14

#	Modifying user name:	WinNT
#	Modification time:	15. 06. 2019 20:14

#	Program:	/corina/corina34_cracker 3.40 0067  02.08.2006

@<TRIPOS>MOLECULE
ASD02030036
  59   62    0    0    0
SMALL
NO_CHARGES


@<TRIPOS>ATOM
   1 C1             0.3187     3.0648    -0.2391 C.3     
   2 C2            -0.1369     1.6220    -0.4641 C.3     
   3 C3             0.1687     0.7897     0.7848 C.3     
   4 C4             1.6486     0.9266     1.1013 C.2     
   5 C5             2.2203     2.3101     1.1943 C.3     
   6 C6             1.8374     3.1039    -0.0580 C.3     
   7 C7             2.3434    -0.1587     1.2788 C.2     
   8 C8             3.8119    -0.1478     1.5888 C.3     
   9 C9             4.1703     1.1691     2.2864 C.3     
  10 C10            3.7282     2.3270     1.3810 C.3     
  11 C11            5.6767     1.2631     2.4488 C.3     
  12 C12            5.9781     2.5940     3.1885 C.3     
  13 C13            5.6738     3.7207     2.2194 C.3     
  14 C14            4.1638     3.6798     1.9373 C.3     
  15 C15            6.3114     0.2335     3.3900 C.3     
  16 C16            7.6458     0.9143     3.8005 C.3     
  17 C17            7.4353     2.4373     3.6116 C.3     
  18 O18           -1.5429     1.6006    -0.7184 O.3     
  19 S19           -1.9754     0.5355    -1.7159 S.o2    
  20 O20           -1.9222    -0.8043    -0.9958 O.3     
  21 O21           -3.3453     0.7843    -1.9999 O.2     
  22 O22           -0.9692     0.4924    -2.7184 O.2     
  23 C23            1.5956     3.0038     2.4065 C.3     
  24 C24            5.0834     2.7160     4.4236 C.3     
  25 C25            7.6833     3.1635     4.9085 C.2     
  26 O26            7.5358     2.5886     5.9602 O.2     
  27 C27            8.1155     4.6071     4.8931 C.3     
  28 H28            0.0405     3.6715    -1.1008 H       
  29 H29           -0.1634     3.4622     0.6541 H       
  30 H30            0.3935     1.2027    -1.3190 H       
  31 H31           -0.4218     1.1568     1.6242 H       
  32 H32           -0.0711    -0.2567     0.5963 H       
  33 H33            2.3191     2.6618    -0.9302 H       
  34 H34            2.1639     4.1379     0.0530 H       
  35 H35            1.8405    -1.1112     1.1997 H       
  36 H36            4.0517    -0.9845     2.2449 H       
  37 H37            4.3802    -0.2357     0.6628 H       
  38 H38            3.6686     1.2326     3.2520 H       
  39 H39            4.1968     2.1989     0.4052 H       
  40 H40            6.1637     1.2513     1.4737 H       
  41 H41            5.9423     4.6778     2.6664 H       
  42 H42            6.2288     3.5737     1.2928 H       
  43 H43            3.9162     4.4574     1.2147 H       
  44 H44            3.6239     3.8732     2.8642 H       
  45 H45            5.6792     0.0669     4.2622 H       
  46 H46            6.5016    -0.7029     2.8656 H       
  47 H47            7.8725     0.6945     4.8437 H       
  48 H48            8.4559     0.5663     3.1597 H       
  49 H49            8.0974     2.8163     2.8331 H       
  50 H50           -2.1808    -1.5567    -1.5453 H       
  51 H51            1.9363     2.5161     3.3198 H       
  52 H52            1.8960     4.0515     2.4203 H       
  53 H53            0.5094     2.9381     2.3429 H       
  54 H54            5.2813     1.8838     5.0992 H       
  55 H55            5.2941     3.6560     4.9335 H       
  56 H56            4.0373     2.6949     4.1179 H       
  57 H57            7.2356     5.2501     4.9125 H       
  58 H58            8.7336     4.8107     5.7675 H       
  59 H59            8.6900     4.8047     3.9881 H       
@<TRIPOS>BOND
   1    1    2 1
   2    1    6 1
   3    1   28 1
   4    1   29 1
   5    2    3 1
   6    2   18 1
   7    2   30 1
   8    3    4 1
   9    3   31 1
  10    3   32 1
  11    4    5 1
  12    4    7 2
  13    5    6 1
  14    5   23 1
  15    5   10 1
  16    6   33 1
  17    6   34 1
  18    7    8 1
  19    7   35 1
  20    8    9 1
  21    8   36 1
  22    8   37 1
  23    9   10 1
  24    9   11 1
  25    9   38 1
  26   10   14 1
  27   10   39 1
  28   11   12 1
  29   11   15 1
  30   11   40 1
  31   12   13 1
  32   12   24 1
  33   12   17 1
  34   13   14 1
  35   13   41 1
  36   13   42 1
  37   14   43 1
  38   14   44 1
  39   15   16 1
  40   15   45 1
  41   15   46 1
  42   16   17 1
  43   16   47 1
  44   16   48 1
  45   17   25 1
  46   17   49 1
  47   18   19 1
  48   19   20 1
  49   19   21 2
  50   19   22 2
  51   20   50 1
  52   23   51 1
  53   23   52 1
  54   23   53 1
  55   24   54 1
  56   24   55 1
  57   24   56 1
  58   25   26 2
  59   25   27 1
  60   27   57 1
  61   27   58 1
  62   27   59 1

#	End of record

