#	Name: ASD08070311
#	Creating user name:	WinNT
#	Creation time:	15. 06. 2019 21:14

#	Modifying user name:	WinNT
#	Modification time:	15. 06. 2019 21:14

#	Program:	/corina/corina34_cracker 3.40 0067  02.08.2006

@<TRIPOS>MOLECULE
ASD08070311
  40   42    0    0    0
SMALL
NO_CHARGES


@<TRIPOS>ATOM
   1 C1            -0.0182     1.4903     0.0102 C.2     
   2 C2             0.0021    -0.0041     0.0020 C.2     
   3 O3             1.0244     2.1113     0.0036 O.2     
   4 N4            -1.1944     2.1482     0.0194 N.am    
   5 O5            -1.0405    -0.6251     0.0086 O.2     
   6 N6             1.1783    -0.6620    -0.0127 N.am    
   7 C7             1.1981    -2.1268    -0.0208 C.3     
   8 C8             2.6473    -2.6171    -0.0373 C.3     
   9 C9             2.6678    -4.1240    -0.0456 C.ar    
  10 C10            3.3568    -4.7924    -1.0401 C.ar    
  11 C11            3.3697    -6.1786    -1.0384 C.ar    
  12 C12            2.6860    -6.8437    -0.0318 C.ar    
  13 C13            2.0194    -6.1080     0.9292 C.ar    
  14 N14            2.0327    -4.7895     0.8991 N.ar    
  15 C15           -1.2143     3.6131     0.0274 C.3     
  16 S16           -3.5578     4.4114    -1.3680 S.3     
  17 C17           -2.6418     4.0960     0.0368 C.2     
  18 N18           -3.3186     4.3205     1.0989 N.2     
  19 C19           -4.5871     4.7499     0.9575 C.ar    
  20 C20           -4.9458     4.8766    -0.3894 C.ar    
  21 C21           -6.2229     5.3097    -0.7380 C.ar    
  22 C22           -7.1376     5.6149     0.2449 C.ar    
  23 C23           -6.7884     5.4914     1.5820 C.ar    
  24 C24           -5.5439     5.0701     1.9414 C.ar    
  25 H25           -2.0278     1.6519     0.0206 H       
  26 H26            2.0116    -0.1656    -0.0180 H       
  27 H27            0.6978    -2.5019     0.8720 H       
  28 H28            0.6808    -2.4923    -0.9079 H       
  29 H29            3.1477    -2.2421    -0.9301 H       
  30 H30            3.1647    -2.2516     0.8498 H       
  31 H31            3.8782    -4.2416    -1.8091 H       
  32 H32            3.8993    -6.7275    -1.8030 H       
  33 H33            2.6745    -7.9232     0.0004 H       
  34 H34            1.4846    -6.6184     1.7165 H       
  35 H35           -0.7012     3.9785     0.9170 H       
  36 H36           -0.7097     3.9882    -0.8629 H       
  37 H37           -6.4954     5.4064    -1.7786 H       
  38 H38           -8.1278     5.9511    -0.0252 H       
  39 H39           -7.5116     5.7328     2.3469 H       
  40 H40           -5.2891     4.9797     2.9870 H       
@<TRIPOS>BOND
   1    1    2 1
   2    1    3 2
   3    1    4 am
   4    2    5 2
   5    2    6 am
   6    4   15 1
   7    4   25 1
   8    6    7 1
   9    6   26 1
  10    7    8 1
  11    7   27 1
  12    7   28 1
  13    8    9 1
  14    8   29 1
  15    8   30 1
  16    9   10 ar
  17    9   14 ar
  18   10   11 ar
  19   10   31 1
  20   11   12 ar
  21   11   32 1
  22   12   13 ar
  23   12   33 1
  24   13   14 ar
  25   13   34 1
  26   15   17 1
  27   15   35 1
  28   15   36 1
  29   16   17 1
  30   16   20 1
  31   17   18 2
  32   18   19 1
  33   19   20 ar
  34   19   24 ar
  35   20   21 ar
  36   21   22 ar
  37   21   37 1
  38   22   23 ar
  39   22   38 1
  40   23   24 ar
  41   23   39 1
  42   24   40 1

#	End of record

