#	Name: ASD03090924
#	Creating user name:	WinNT
#	Creation time:	15. 06. 2019 20:29

#	Modifying user name:	WinNT
#	Modification time:	15. 06. 2019 20:29

#	Program:	/corina/corina34_cracker 3.40 0067  02.08.2006

@<TRIPOS>MOLECULE
ASD03090924
  37   40    0    0    0
SMALL
NO_CHARGES


@<TRIPOS>ATOM
   1 N1            -0.0187     1.4678    -0.0838 N.am    
   2 C2             0.0010    -0.0023    -0.1191 C.3     
   3 C3             1.3775     0.0539     0.5578 C.3     
   4 C4             1.4513     1.4339    -0.1103 C.3     
   5 C5            -0.9668     2.4251    -0.0487 C.2     
   6 O6            -2.1456     2.1153    -0.0408 O.2     
   7 N7            -0.6145     3.7136    -0.0226 N.2     
   8 S8            -3.2576     4.4304     0.0293 S.3     
   9 C9            -1.5508     4.6589     0.0120 C.2     
  10 N10           -1.3576     6.0017     0.0415 N.pl3   
  11 C11           -2.4717     6.7839     0.0750 C.2     
  12 C12           -3.6420     6.1596     0.0757 C.2     
  13 C13           -5.0109     6.7888     0.1094 C.3     
  14 O14            3.6010     8.4276     0.0080 O.3     
  15 C15            3.1535     9.7626     0.3087 C.3     
  16 O16            1.7878     9.7765    -0.1471 O.3     
  17 C17            1.3620     8.4822    -0.0629 C.ar    
  18 C18            2.4770     7.6521     0.0325 C.ar    
  19 C19            0.0910     7.9335    -0.0601 C.ar    
  20 C20           -0.0706     6.5579     0.0381 C.ar    
  21 C21            1.0420     5.7335     0.1332 C.ar    
  22 C22            2.3113     6.2803     0.1309 C.ar    
  23 F23            3.2146    10.0031     1.6855 F       
  24 F24            3.9146    10.7054    -0.3905 F       
  25 H25           -0.7690    -0.4617     0.5007 H       
  26 H26            0.0302    -0.4119    -1.1287 H       
  27 H27            1.3392     0.0860     1.6467 H       
  28 H28            2.0957    -0.6690     0.1708 H       
  29 H29            1.8668     1.4067    -1.1177 H       
  30 H30            1.9145     2.1956     0.5169 H       
  31 H31           -2.4055     7.8616     0.0998 H       
  32 H32           -5.7704     6.0069     0.1016 H       
  33 H33           -5.1140     7.3864     1.0151 H       
  34 H34           -5.1386     7.4280    -0.7642 H       
  35 H35           -0.7745     8.5752    -0.1336 H       
  36 H36            0.9157     4.6637     0.2095 H       
  37 H37            3.1756     5.6368     0.2045 H       
@<TRIPOS>BOND
   1    1    2 1
   2    1    4 1
   3    1    5 am
   4    2    3 1
   5    2   25 1
   6    2   26 1
   7    3    4 1
   8    3   27 1
   9    3   28 1
  10    4   29 1
  11    4   30 1
  12    5    6 2
  13    5    7 1
  14    7    9 2
  15    8    9 1
  16    8   12 1
  17    9   10 1
  18   10   11 1
  19   10   20 1
  20   11   12 2
  21   11   31 1
  22   12   13 1
  23   13   32 1
  24   13   33 1
  25   13   34 1
  26   14   15 1
  27   14   18 1
  28   15   16 1
  29   15   23 1
  30   15   24 1
  31   16   17 1
  32   17   18 ar
  33   17   19 ar
  34   18   22 ar
  35   19   20 ar
  36   19   35 1
  37   20   21 ar
  38   21   22 ar
  39   21   36 1
  40   22   37 1

#	End of record

