#	Name: ASD09740412
#	Creating user name:	WinNT
#	Creation time:	15. 06. 2019 21:23

#	Modifying user name:	WinNT
#	Modification time:	15. 06. 2019 21:23

#	Program:	/corina/corina34_cracker 3.40 0067  02.08.2006

@<TRIPOS>MOLECULE
ASD09740412
  69   73    0    0    0
SMALL
NO_CHARGES


@<TRIPOS>ATOM
   1 N1            -0.0151     1.3053     0.0121 N.2     
   2 C2             0.0028    -0.0042     0.0021 C.2     
   3 C3             1.1360     1.9169    -0.0038 C.2     
   4 S4             2.4286     0.7206    -0.0357 S.3     
   5 C5             1.2290    -0.5707    -0.0239 C.2     
   6 C6             1.3265     3.3822     0.0030 C.ar    
   7 C7             0.2206     4.2279     0.0287 C.ar    
   8 C8             2.6175     3.9196    -0.0106 C.ar    
   9 C9             2.8009     5.2852    -0.0040 C.ar    
  10 C10            1.7059     6.1376     0.0163 C.ar    
  11 C11            0.4063     5.6097     0.0349 C.ar    
  12 O12            1.8923     7.4813     0.0232 O.3     
  13 C13            3.2384     7.9489     0.1299 C.3     
  14 C14            3.8769     7.9868    -1.2600 C.3     
  15 C15            3.2435     9.3555     0.7320 C.3     
  16 C16           -0.7254     6.4869     0.0558 C.1     
  17 N17           -1.6232     7.1827     0.0724 N.1     
  18 C18            1.5148    -2.0206    -0.0391 C.ar    
  19 C19            2.3970    -2.5504    -0.9858 C.ar    
  20 C20            2.6598    -3.9044    -0.9943 C.ar    
  21 C21            2.0489    -4.7337    -0.0659 C.ar    
  22 C22            1.1754    -4.2150     0.8713 C.ar    
  23 C23            0.9094    -2.8614     0.8946 C.ar    
  24 C24            3.1786    -1.8686    -2.0880 C.3     
  25 C25            4.2759    -2.8778    -2.4881 C.3     
  26 C26            3.6373    -4.2294    -2.1039 C.3     
  27 N27            4.6631    -5.1576    -1.6219 N.am    
  28 S28            4.5345    -6.7760    -1.9485 S.o2    
  29 C29            4.6866    -6.8872    -3.7527 C.3     
  30 O30            5.6690    -7.3523    -1.3160 O.2     
  31 O31            3.2167    -7.1129    -1.5374 O.2     
  32 C32            4.5826    -8.3515    -4.1840 C.3     
  33 N33            4.7057    -8.4415    -5.6450 N.3     
  34 C34            4.8490    -9.8437    -6.0778 C.3     
  35 C35            3.7109   -10.1316    -7.0794 C.3     
  36 C36            3.3284    -8.7174    -7.5898 C.3     
  37 C37            3.5214    -7.8613    -6.3133 C.3     
  38 H38           -0.9029    -0.5924     0.0141 H       
  39 H39           -0.7773     3.8151     0.0433 H       
  40 H40            3.4739     3.2618    -0.0261 H       
  41 H41            3.8006     5.6937    -0.0142 H       
  42 H42            3.8067     7.2766     0.7726 H       
  43 H43            4.9037     8.3435    -1.1785 H       
  44 H44            3.8733     6.9848    -1.6889 H       
  45 H45            3.3086     8.6592    -1.9027 H       
  46 H46            2.7886     9.3285     1.7222 H       
  47 H47            4.2702     9.7122     0.8134 H       
  48 H48            2.6751    10.0279     0.0893 H       
  49 H49            2.2572    -5.7934    -0.0753 H       
  50 H50            0.7045    -4.8696     1.5898 H       
  51 H51            0.2268    -2.4558     1.6268 H       
  52 H52            2.5295    -1.6589    -2.9381 H       
  53 H53            3.6287    -0.9473    -1.7184 H       
  54 H54            4.4723    -2.8325    -3.5593 H       
  55 H55            5.1886    -2.7043    -1.9179 H       
  56 H56            3.1116    -4.6558    -2.9582 H       
  57 H57            5.4176    -4.8243    -1.1116 H       
  58 H58            3.8871    -6.3129    -4.2208 H       
  59 H59            5.6516    -6.4852    -4.0614 H       
  60 H60            5.3820    -8.9258    -3.7159 H       
  61 H61            3.6176    -8.7535    -3.8752 H       
  62 H62            5.8147    -9.9851    -6.5631 H       
  63 H63            4.7629   -10.5078    -5.2178 H       
  64 H64            4.0679   -10.7539    -7.9000 H       
  65 H65            2.8654   -10.6018    -6.5773 H       
  66 H66            4.0021    -8.3931    -8.3830 H       
  67 H67            2.2915    -8.6904    -7.9250 H       
  68 H68            2.6460    -7.9386    -5.6686 H       
  69 H69            3.7074    -6.8206    -6.5789 H       
@<TRIPOS>BOND
   1    1    2 1
   2    1    3 2
   3    2    5 2
   4    2   38 1
   5    3    4 1
   6    3    6 1
   7    4    5 1
   8    5   18 1
   9    6    7 ar
  10    6    8 ar
  11    7   11 ar
  12    7   39 1
  13    8    9 ar
  14    8   40 1
  15    9   10 ar
  16    9   41 1
  17   10   11 ar
  18   10   12 1
  19   11   16 1
  20   12   13 1
  21   13   14 1
  22   13   15 1
  23   13   42 1
  24   14   43 1
  25   14   44 1
  26   14   45 1
  27   15   46 1
  28   15   47 1
  29   15   48 1
  30   16   17 3
  31   18   19 ar
  32   18   23 ar
  33   19   20 ar
  34   19   24 1
  35   20   21 ar
  36   20   26 1
  37   21   22 ar
  38   21   49 1
  39   22   23 ar
  40   22   50 1
  41   23   51 1
  42   24   25 1
  43   24   52 1
  44   24   53 1
  45   25   26 1
  46   25   54 1
  47   25   55 1
  48   26   27 1
  49   26   56 1
  50   27   28 am
  51   27   57 1
  52   28   29 1
  53   28   30 2
  54   28   31 2
  55   29   32 1
  56   29   58 1
  57   29   59 1
  58   32   33 1
  59   32   60 1
  60   32   61 1
  61   33   34 1
  62   33   37 1
  63   34   35 1
  64   34   62 1
  65   34   63 1
  66   35   36 1
  67   35   64 1
  68   35   65 1
  69   36   37 1
  70   36   66 1
  71   36   67 1
  72   37   68 1
  73   37   69 1

#	End of record

