#	Name: ASD01410614
#	Creating user name:	WinNT
#	Creation time:	15. 06. 2019 19:18

#	Modifying user name:	WinNT
#	Modification time:	15. 06. 2019 19:18

#	Program:	/corina/corina34_cracker 3.40 0067  02.08.2006

@<TRIPOS>MOLECULE
ASD01410614
  67   69    0    0    0
SMALL
NO_CHARGES


@<TRIPOS>ATOM
   1 C1            -0.0970    -1.3445     2.2632 C.ar    
   2 C2             0.6178    -1.8592     3.3358 C.ar    
   3 C3             1.9882    -1.9945     3.2318 C.ar    
   4 N4             2.6209    -1.6413     2.1293 N.ar    
   5 C5             1.9745    -1.1470     1.0861 C.ar    
   6 C6             0.5957    -0.9833     1.1206 C.ar    
   7 O7             2.6651    -0.7967    -0.0279 O.3     
   8 C8             4.0201    -0.9056     0.0005 C.ar    
   9 C9             4.6174    -2.1540    -0.1268 C.ar    
  10 C10            5.9919    -2.2758    -0.0994 C.ar    
  11 C11            6.7883    -1.1498     0.0563 C.ar    
  12 C12            6.1914     0.1136     0.1853 C.ar    
  13 C13            4.7995     0.2270     0.1502 C.ar    
  14 N14            8.1766    -1.2736     0.0848 N.am    
  15 C15            8.8762    -1.2823    -1.0671 C.2     
  16 C16            8.8750    -1.3942     1.3670 C.3     
  17 O17           10.0754    -1.4625    -1.0469 O.2     
  18 C18            8.1684    -1.0682    -2.3802 C.3     
  19 C19            8.9950    -1.6832    -3.5113 C.3     
  20 C20            8.2764    -1.4658    -4.8445 C.3     
  21 C21            8.1069     0.0342    -5.0939 C.3     
  22 C22            7.2803     0.6491    -3.9627 C.3     
  23 C23            7.9989     0.4318    -2.6296 C.3     
  24 C24            7.3883     0.2516    -6.4270 C.3     
  25 C25            9.0879    -2.8735     1.6946 C.3     
  26 C26            9.7143    -3.0030     3.0845 C.3     
  27 O27            9.9131    -4.3846     3.3905 O.3     
  28 C28           10.4967    -4.6175     4.6739 C.3     
  29 C29           10.6623    -6.1226     4.8933 C.3     
  30 C30           -0.1364    -0.4198    -0.0701 C.3     
  31 F31           -1.5051    -0.3549     0.2120 F       
  32 F32            0.3439     0.8645    -0.3478 F       
  33 F33            0.0725    -1.2459    -1.1796 F       
  34 C34            7.0287     1.3152     0.3516 C.2     
  35 O35            8.2393     1.2133     0.3772 O.2     
  36 O36            6.4517     2.5266     0.4752 O.3     
  37 H37           -1.1699    -1.2327     2.3172 H       
  38 H38            0.1078    -2.1505     4.2421 H       
  39 H39            2.5492    -2.3941     4.0637 H       
  40 H40            4.0026    -3.0337    -0.2475 H       
  41 H41            6.4487    -3.2493    -0.1989 H       
  42 H42            4.3328     1.1959     0.2489 H       
  43 H43            9.8412    -0.8936     1.3029 H       
  44 H44            8.2770    -0.9307     2.1515 H       
  45 H45            7.1882    -1.5439    -2.3464 H       
  46 H46            9.9751    -1.2075    -3.5451 H       
  47 H47            9.1157    -2.7518    -3.3336 H       
  48 H48            8.8652    -1.9039    -5.6503 H       
  49 H49            7.2962    -1.9415    -4.8107 H       
  50 H50            9.0871     0.5099    -5.1277 H       
  51 H51            7.1596     1.7177    -4.1404 H       
  52 H52            6.3002     0.1734    -3.9289 H       
  53 H53            7.4101     0.8698    -1.8238 H       
  54 H54            8.9791     0.9075    -2.6634 H       
  55 H55            6.4082    -0.2241    -6.3932 H       
  56 H56            7.2676     1.3202    -6.6047 H       
  57 H57            7.9772    -0.1865    -7.2329 H       
  58 H58            8.1286    -3.3908     1.6788 H       
  59 H59            9.7525    -3.3178     0.9537 H       
  60 H60           10.6736    -2.4857     3.1003 H       
  61 H61            9.0497    -2.5587     3.8254 H       
  62 H62           11.4722    -4.1337     4.7227 H       
  63 H63            9.8483    -4.2067     5.4478 H       
  64 H64           11.1074    -6.3003     5.8723 H       
  65 H65            9.6868    -6.6064     4.8445 H       
  66 H66           11.3107    -6.5334     4.1194 H       
  67 H67            7.0419     3.2852     0.5821 H       
@<TRIPOS>BOND
   1    1    2 ar
   2    1    6 ar
   3    1   37 1
   4    2    3 ar
   5    2   38 1
   6    3    4 ar
   7    3   39 1
   8    4    5 ar
   9    5    6 ar
  10    5    7 1
  11    6   30 1
  12    7    8 1
  13    8    9 ar
  14    8   13 ar
  15    9   10 ar
  16    9   40 1
  17   10   11 ar
  18   10   41 1
  19   11   12 ar
  20   11   14 1
  21   12   13 ar
  22   12   34 1
  23   13   42 1
  24   14   15 am
  25   14   16 1
  26   15   17 2
  27   15   18 1
  28   16   25 1
  29   16   43 1
  30   16   44 1
  31   18   19 1
  32   18   23 1
  33   18   45 1
  34   19   20 1
  35   19   46 1
  36   19   47 1
  37   20   21 1
  38   20   48 1
  39   20   49 1
  40   21   22 1
  41   21   24 1
  42   21   50 1
  43   22   23 1
  44   22   51 1
  45   22   52 1
  46   23   53 1
  47   23   54 1
  48   24   55 1
  49   24   56 1
  50   24   57 1
  51   25   26 1
  52   25   58 1
  53   25   59 1
  54   26   27 1
  55   26   60 1
  56   26   61 1
  57   27   28 1
  58   28   29 1
  59   28   62 1
  60   28   63 1
  61   29   64 1
  62   29   65 1
  63   29   66 1
  64   30   31 1
  65   30   32 1
  66   30   33 1
  67   34   35 2
  68   34   36 1
  69   36   67 1

#	End of record

