#	Name: ASD01882545
#	Creating user name:	WinNT
#	Creation time:	15. 06. 2019 19:44

#	Modifying user name:	WinNT
#	Modification time:	15. 06. 2019 19:44

#	Program:	/corina/corina34_cracker 3.40 0067  02.08.2006

@<TRIPOS>MOLECULE
ASD01882545
  56   60    0    0    0
SMALL
NO_CHARGES


@<TRIPOS>ATOM
   1 C1             0.0372     1.3189     0.1360 C.2     
   2 C2             0.1144    -0.0545     0.4374 C.2     
   3 C3             1.2997    -0.7031     0.2811 C.2     
   4 C4             2.4257     0.0024    -0.1768 C.2     
   5 C5             2.3368     1.3187    -0.4613 C.2     
   6 N6             1.1546     1.9815    -0.3096 N.pl3   
   7 N7            -0.5009     3.3530    -0.2027 N.2     
   8 N8            -0.9434     2.2061     0.1776 N.2     
   9 C9             0.7677     3.2704    -0.5106 C.2     
  10 C10           -1.1019    -0.7968     0.9278 C.3     
  11 F11           -0.9830    -1.0304     2.3021 F       
  12 F12           -2.2463    -0.0306     0.6823 F       
  13 F13           -1.2055    -2.0187     0.2544 F       
  14 C14            1.4053    -2.1726     0.5981 C.3     
  15 N15            1.6683    -2.9224    -0.6375 N.3     
  16 C16            2.1381    -4.2813    -0.3386 C.3     
  17 C17            2.5393    -4.9813    -1.6390 C.3     
  18 C18            1.3313    -5.0339    -2.5783 C.3     
  19 C19            0.8319    -3.6094    -2.8350 C.3     
  20 C20            0.4801    -2.9491    -1.4999 C.3     
  21 O21            1.7149    -5.6357    -3.8164 O.3     
  22 C22            0.7323    -6.2309    -4.5442 C.ar    
  23 C23            1.0516    -6.9375    -5.6970 C.ar    
  24 C24            0.0507    -7.5423    -6.4351 C.ar    
  25 C25           -1.2684    -7.4432    -6.0251 C.ar    
  26 C26           -1.5868    -6.7390    -4.8769 C.ar    
  27 C27           -0.5882    -6.1381    -4.1336 C.ar    
  28 F28           -2.2455    -8.0344    -6.7469 F       
  29 F29            2.3385    -7.0334    -6.0967 F       
  30 C30            1.6408     4.3966    -1.0011 C.3     
  31 C31            1.5824     4.4591    -2.5287 C.3     
  32 C32            2.3125     5.6142    -3.2169 C.3     
  33 C33            2.8792     4.1952    -3.2966 C.3     
  34 H34            3.3674    -0.5115    -0.3013 H       
  35 H35            3.2085     1.8511    -0.8121 H       
  36 H36            2.2215    -2.3347     1.3021 H       
  37 H37            0.4704    -2.5171     1.0401 H       
  38 H38            2.9998    -4.2294     0.3268 H       
  39 H39            1.3393    -4.8435     0.1450 H       
  40 H40            3.3476    -4.4271    -2.1162 H       
  41 H41            2.8732    -5.9952    -1.4184 H       
  42 H42            0.5369    -5.6210    -2.1176 H       
  43 H43            1.6132    -3.0336    -3.3310 H       
  44 H44           -0.0542    -3.6431    -3.4689 H       
  45 H45           -0.3109    -3.5176    -1.0109 H       
  46 H46            0.1376    -1.9297    -1.6780 H       
  47 H47            0.2976    -8.0915    -7.3316 H       
  48 H48           -2.6162    -6.6626    -4.5590 H       
  49 H49           -0.8374    -5.5929    -3.2352 H       
  50 H50            1.2855     5.3394    -0.5850 H       
  51 H51            2.6691     4.2239    -0.6835 H       
  52 H52            0.6516     4.1130    -2.9781 H       
  53 H53            1.8623     6.0278    -4.1193 H       
  54 H54            2.8344     6.3296    -2.5813 H       
  55 H55            3.7739     3.9771    -2.7135 H       
  56 H56            2.8017     3.6753    -4.2514 H       
@<TRIPOS>BOND
   1    1    2 1
   2    1    6 1
   3    1    8 2
   4    2    3 2
   5    2   10 1
   6    3    4 1
   7    3   14 1
   8    4    5 2
   9    4   34 1
  10    5    6 1
  11    5   35 1
  12    6    9 1
  13    7    8 1
  14    7    9 2
  15    9   30 1
  16   10   11 1
  17   10   12 1
  18   10   13 1
  19   14   15 1
  20   14   36 1
  21   14   37 1
  22   15   16 1
  23   15   20 1
  24   16   17 1
  25   16   38 1
  26   16   39 1
  27   17   18 1
  28   17   40 1
  29   17   41 1
  30   18   19 1
  31   18   21 1
  32   18   42 1
  33   19   20 1
  34   19   43 1
  35   19   44 1
  36   20   45 1
  37   20   46 1
  38   21   22 1
  39   22   23 ar
  40   22   27 ar
  41   23   24 ar
  42   23   29 1
  43   24   25 ar
  44   24   47 1
  45   25   26 ar
  46   25   28 1
  47   26   27 ar
  48   26   48 1
  49   27   49 1
  50   30   31 1
  51   30   50 1
  52   30   51 1
  53   31   32 1
  54   31   33 1
  55   31   52 1
  56   32   33 1
  57   32   53 1
  58   32   54 1
  59   33   55 1
  60   33   56 1

#	End of record

