#	Name: ASD01813699
#	Creating user name:	WinNT
#	Creation time:	15. 06. 2019 19:30

#	Modifying user name:	WinNT
#	Modification time:	15. 06. 2019 19:30

#	Program:	/corina/corina34_cracker 3.40 0067  02.08.2006

@<TRIPOS>MOLECULE
ASD01813699
  50   53    0    0    0
SMALL
NO_CHARGES


@<TRIPOS>ATOM
   1 C1            -0.0168     1.3834    -0.0446 C.ar    
   2 C2             0.0020    -0.0038    -0.0517 C.ar    
   3 C3             1.1976    -0.6920    -0.0489 C.ar    
   4 C4             2.4035     0.0084    -0.0389 C.ar    
   5 C5             2.3796     1.4130    -0.0318 C.ar    
   6 C6             1.1627     2.0947    -0.0347 C.ar    
   7 N7             3.6056    -0.6668    -0.0350 N.pl3   
   8 C8             4.7891    -0.0410    -0.0241 C.2     
   9 C9             4.8932     1.3356    -0.0159 C.2     
  10 C10            3.6619     2.1417    -0.0212 C.2     
  11 O11            3.7002     3.3596    -0.0147 O.2     
  12 C12            6.2116     1.9851    -0.0029 C.2     
  13 O13            6.3002     3.3303     0.0050 O.3     
  14 O14            7.2221     1.3094     0.0006 O.2     
  15 C15            3.5871    -2.1316    -0.0427 C.3     
  16 C16            3.4445    -2.6248    -1.4595 C.ar    
  17 N17            4.5320    -2.8477    -2.1706 N.ar    
  18 C18            4.4523    -3.2806    -3.4171 C.ar    
  19 C19            3.1913    -3.5011    -3.9772 C.ar    
  20 C20            2.0661    -3.2516    -3.1871 C.ar    
  21 N21            2.2364    -2.8249    -1.9476 N.ar    
  22 F22            1.2003    -2.0430    -0.0555 F       
  23 C23            3.0510    -3.9861    -5.3721 C.ar    
  24 C24            1.7839    -4.1999    -5.9126 C.ar    
  25 C25            1.6557    -4.6502    -7.2092 C.ar    
  26 C26            2.7889    -4.8910    -7.9777 C.ar    
  27 C27            4.0534    -4.6789    -7.4405 C.ar    
  28 C28            4.1858    -4.2231    -6.1461 C.ar    
  29 N29            2.6568    -5.3469    -9.2902 N.pl3   
  30 C30            1.3248    -5.5712    -9.8572 C.3     
  31 C31            3.8503    -5.6010   -10.1009 C.3     
  32 H32           -0.9608     1.9081    -0.0514 H       
  33 H33           -0.9293    -0.5507    -0.0591 H       
  34 H34            1.1454     3.1745    -0.0295 H       
  35 H35            5.6925    -0.6328    -0.0212 H       
  36 H36            7.1887     3.7117     0.0134 H       
  37 H37            4.5175    -2.5090     0.3815 H       
  38 H38            2.7459    -2.4875     0.5522 H       
  39 H39            5.3476    -3.4607    -3.9936 H       
  40 H40            1.0731    -3.4088    -3.5816 H       
  41 H41            0.9033    -4.0133    -5.3158 H       
  42 H42            0.6742    -4.8163    -7.6282 H       
  43 H43            4.9325    -4.8672    -8.0389 H       
  44 H44            5.1684    -4.0581    -5.7292 H       
  45 H45            0.9735    -4.6557   -10.3330 H       
  46 H46            1.3749    -6.3695   -10.5978 H       
  47 H47            0.6349    -5.8556    -9.0626 H       
  48 H48            4.1672    -6.6352    -9.9668 H       
  49 H49            3.6200    -5.4249   -11.1517 H       
  50 H50            4.6517    -4.9319    -9.7875 H       
@<TRIPOS>BOND
   1    1    2 ar
   2    1    6 ar
   3    1   32 1
   4    2    3 ar
   5    2   33 1
   6    3    4 ar
   7    3   22 1
   8    4    5 ar
   9    4    7 1
  10    5    6 ar
  11    5   10 1
  12    6   34 1
  13    7    8 1
  14    7   15 1
  15    8    9 2
  16    8   35 1
  17    9   10 1
  18    9   12 1
  19   10   11 2
  20   12   13 1
  21   12   14 2
  22   13   36 1
  23   15   16 1
  24   15   37 1
  25   15   38 1
  26   16   17 ar
  27   16   21 ar
  28   17   18 ar
  29   18   19 ar
  30   18   39 1
  31   19   20 ar
  32   19   23 1
  33   20   21 ar
  34   20   40 1
  35   23   24 ar
  36   23   28 ar
  37   24   25 ar
  38   24   41 1
  39   25   26 ar
  40   25   42 1
  41   26   27 ar
  42   26   29 1
  43   27   28 ar
  44   27   43 1
  45   28   44 1
  46   29   30 1
  47   29   31 1
  48   30   45 1
  49   30   46 1
  50   30   47 1
  51   31   48 1
  52   31   49 1
  53   31   50 1

#	End of record

