#	Name: ASD01150317
#	Creating user name:	WinNT
#	Creation time:	15. 06. 2019 19:04

#	Modifying user name:	WinNT
#	Modification time:	15. 06. 2019 19:04

#	Program:	/corina/corina34_cracker 3.40 0067  02.08.2006

@<TRIPOS>MOLECULE
ASD01150317
  66   68    0    0    0
SMALL
NO_CHARGES


@<TRIPOS>ATOM
   1 N1            -0.0005     1.2848     1.1016 N.pl3   
   2 C2             0.0143    -0.0827     0.8177 C.2     
   3 C3            -1.3163    -0.4813     0.7844 C.2     
   4 N4            -2.0703     0.5926     1.0348 N.2     
   5 C5            -1.3050     1.6459     1.2302 C.2     
   6 C6             1.1481    -0.8931     0.6072 C.2     
   7 C7             1.1146     2.1223     1.2343 C.ar    
   8 C8             1.3226     3.1528     0.3272 C.ar    
   9 C9             2.4231     3.9767     0.4607 C.ar    
  10 C10            3.3172     3.7761     1.4962 C.ar    
  11 C11            3.1129     2.7507     2.4012 C.ar    
  12 C12            2.0112     1.9270     2.2764 C.ar    
  13 N13           -1.7551     2.9152     1.5115 N.3     
  14 C14           -3.2226     2.9530     1.5677 C.3     
  15 C15           -1.1674     3.4175     2.7606 C.3     
  16 O16            1.0126    -2.0791     0.3666 O.2     
  17 O17            2.3847    -0.3542     0.6723 O.3     
  18 C18            3.4883    -1.2340     0.4485 C.3     
  19 C19            3.3787    -1.8440    -0.9504 C.3     
  20 C20            4.7970    -0.4495     0.5618 C.3     
  21 C21            3.4707    -2.3505     1.4945 C.3     
  22 N22           -1.7799    -1.7673     0.5347 N.am    
  23 C23           -3.1043    -2.0175     0.5319 C.2     
  24 C24           -3.5974    -3.3853     0.2663 C.ar    
  25 O25           -3.8931    -1.1183     0.7478 O.2     
  26 O26            5.9006    -1.3293     0.3380 O.3     
  27 C27            7.1774    -0.6930     0.4217 C.3     
  28 C28           -2.6960    -4.4440     0.1442 C.ar    
  29 C29           -3.1630    -5.7184    -0.1038 C.ar    
  30 C30           -4.5213    -5.9480    -0.2314 C.ar    
  31 C31           -5.4203    -4.9028    -0.1114 C.ar    
  32 C32           -4.9672    -3.6250     0.1422 C.ar    
  33 C33           -5.9477    -2.4881     0.2730 C.3     
  34 C34           -5.0240    -7.3425    -0.5027 C.3     
  35 H35            0.6248     3.3098    -0.4820 H       
  36 H36            2.5856     4.7782    -0.2447 H       
  37 H37            4.1772     4.4215     1.5983 H       
  38 H38            3.8132     2.5963     3.2087 H       
  39 H39            1.8520     1.1265     2.9837 H       
  40 H40           -3.5739     2.2769     2.3471 H       
  41 H41           -3.5516     3.9678     1.7915 H       
  42 H42           -3.6311     2.6424     0.6060 H       
  43 H43           -0.0818     3.4445     2.6662 H       
  44 H44           -1.5400     4.4224     2.9592 H       
  45 H45           -1.4442     2.7582     3.5833 H       
  46 H46            3.3912    -1.0486    -1.6956 H       
  47 H47            4.2205    -2.5150    -1.1211 H       
  48 H48            2.4464    -2.4028    -1.0311 H       
  49 H49            4.8095     0.3458    -0.1834 H       
  50 H50            4.8750    -0.0150     1.5583 H       
  51 H51            2.5384    -2.9093     1.4138 H       
  52 H52            4.3125    -3.0215     1.3238 H       
  53 H53            3.5488    -1.9159     2.4911 H       
  54 H54           -1.1504    -2.4849     0.3624 H       
  55 H55            7.2393     0.0973    -0.3263 H       
  56 H56            7.3048    -0.2636     1.4154 H       
  57 H57            7.9620    -1.4276     0.2401 H       
  58 H58           -1.6354    -4.2660     0.2432 H       
  59 H59           -2.4667    -6.5384    -0.1989 H       
  60 H60           -6.4794    -5.0888    -0.2124 H       
  61 H61           -6.1607    -2.3115     1.3273 H       
  62 H62           -5.5203    -1.5872    -0.1673 H       
  63 H63           -6.8714    -2.7433    -0.2465 H       
  64 H64           -5.2109    -7.8517     0.4427 H       
  65 H65           -5.9495    -7.2899    -1.0762 H       
  66 H66           -4.2753    -7.8945    -1.0709 H       
@<TRIPOS>BOND
   1    1    2 1
   2    1    7 1
   3    1    5 1
   4    2    3 2
   5    2    6 1
   6    3    4 1
   7    3   22 1
   8    4    5 2
   9    5   13 1
  10    6   16 2
  11    6   17 1
  12    7    8 ar
  13    7   12 ar
  14    8    9 ar
  15    8   35 1
  16    9   10 ar
  17    9   36 1
  18   10   11 ar
  19   10   37 1
  20   11   12 ar
  21   11   38 1
  22   12   39 1
  23   13   14 1
  24   13   15 1
  25   14   40 1
  26   14   41 1
  27   14   42 1
  28   15   43 1
  29   15   44 1
  30   15   45 1
  31   17   18 1
  32   18   19 1
  33   18   20 1
  34   18   21 1
  35   19   46 1
  36   19   47 1
  37   19   48 1
  38   20   26 1
  39   20   49 1
  40   20   50 1
  41   21   51 1
  42   21   52 1
  43   21   53 1
  44   22   23 am
  45   22   54 1
  46   23   24 1
  47   23   25 2
  48   24   28 ar
  49   24   32 ar
  50   26   27 1
  51   27   55 1
  52   27   56 1
  53   27   57 1
  54   28   29 ar
  55   28   58 1
  56   29   30 ar
  57   29   59 1
  58   30   31 ar
  59   30   34 1
  60   31   32 ar
  61   31   60 1
  62   32   33 1
  63   33   61 1
  64   33   62 1
  65   33   63 1
  66   34   64 1
  67   34   65 1
  68   34   66 1

#	End of record

