#	Name: ASD01708034
#	Creating user name:	WinNT
#	Creation time:	15. 06. 2019 19:22

#	Modifying user name:	WinNT
#	Modification time:	15. 06. 2019 19:22

#	Program:	/corina/corina34_cracker 3.40 0067  02.08.2006

@<TRIPOS>MOLECULE
ASD01708034
  67   71    0    0    0
SMALL
NO_CHARGES


@<TRIPOS>ATOM
   1 C1             0.3019     1.5884    -0.1670 C.2     
   2 C2             0.2337     0.2277    -0.2126 C.2     
   3 C3             1.5524     2.2191    -0.0500 C.2     
   4 C4             2.6822     1.4866     0.0171 C.2     
   5 N5             2.6333     0.1198    -0.0276 N.pl3   
   6 C6             1.4295    -0.5281    -0.1410 C.2     
   7 C7             3.6447    -3.3641    -0.0519 C.2     
   8 N8             2.9059    -4.4906    -0.0112 N.am    
   9 O9             4.8584    -3.4337    -0.0781 O.2     
  10 C10            3.5285    -5.8197    -0.1287 C.3     
  11 C11            1.4499    -4.4424     0.1580 C.3     
  12 C12            1.0207    -5.4778     1.1680 C.ar    
  13 C13            1.8760    -6.4554     1.6287 C.ar    
  14 C14            3.3057    -6.5601     1.1889 C.3     
  15 C15           -0.2880    -5.4212     1.6323 C.ar    
  16 C16           -0.7506    -6.3396     2.5494 C.ar    
  17 C17            0.1074    -7.3395     3.0160 C.ar    
  18 C18            1.4201    -7.3895     2.5494 C.ar    
  19 Cl19           2.4922    -8.6284     3.1232 Cl      
  20 Cl20          -2.3873    -6.2551     3.1218 Cl      
  21 C21           -0.3729    -8.3352     3.9955 C.2     
  22 N22           -0.2551    -8.0927     5.3160 N.am    
  23 O23           -0.8746    -9.3735     3.6105 O.2     
  24 C24           -0.7315    -9.0803     6.2875 C.3     
  25 C25           -2.2051    -8.8773     6.5286 C.2     
  26 O26           -2.8605    -9.6735     7.3879 O.3     
  27 O27           -2.7968    -7.9979     5.9485 O.2     
  28 C28            0.0291    -8.9087     7.6039 C.3     
  29 C29            1.4853    -9.2316     7.3885 C.ar    
  30 C30            2.3670    -8.2337     7.0169 C.ar    
  31 C31            1.9403   -10.5243     7.5681 C.ar    
  32 C32            3.2762   -10.8206     7.3705 C.ar    
  33 C33            4.1566    -9.8242     6.9930 C.ar    
  34 C34            3.7025    -8.5299     6.8193 C.ar    
  35 C35            3.7726   -12.2298     7.5672 C.3     
  36 O36            4.8067   -12.5071     6.6208 O.3     
  37 C37            3.6042    -0.8334     0.0204 C.2     
  38 C38            2.9807    -2.0462    -0.0645 C.2     
  39 N39            1.6565    -1.8303    -0.1619 N.2     
  40 O40           -0.9681    -0.3967    -0.3252 O.3     
  41 C41            4.3251   -12.3826     8.9857 C.3     
  42 H42           -0.6004     2.1791    -0.2249 H       
  43 H43            1.6087     3.2970    -0.0140 H       
  44 H44            3.6366     1.9841     0.1069 H       
  45 H45            3.0654    -6.3730    -0.9457 H       
  46 H46            4.5971    -5.7113    -0.3148 H       
  47 H47            1.1580    -3.4520     0.5074 H       
  48 H48            0.9668    -4.6459    -0.7977 H       
  49 H49            3.5623    -7.6105     1.0512 H       
  50 H50            3.9494    -6.1326     1.9576 H       
  51 H51           -0.9499    -4.6483     1.2705 H       
  52 H52            0.1452    -7.2642     5.6231 H       
  53 H53           -0.5619   -10.0841     5.8981 H       
  54 H54           -3.8049    -9.5048     7.5097 H       
  55 H55           -0.0677    -7.8789     7.9479 H       
  56 H56           -0.3855    -9.5827     8.3536 H       
  57 H57            2.0122    -7.2228     6.8806 H       
  58 H58            1.2524   -11.3029     7.8631 H       
  59 H59            5.2002   -10.0556     6.8390 H       
  60 H60            4.3904    -7.7513     6.5243 H       
  61 H61            2.9492   -12.9288     7.4208 H       
  62 H62            5.5732   -11.9219     6.6930 H       
  63 H63            4.6670    -0.6629     0.1090 H       
  64 H64           -1.7225     0.2068    -0.3663 H       
  65 H65            3.5363   -12.1711     9.7076 H       
  66 H66            4.6841   -13.4019     9.1280 H       
  67 H67            5.1486   -11.6836     9.1321 H       
@<TRIPOS>BOND
   1    1    2 2
   2    1    3 1
   3    1   42 1
   4    2   40 1
   5    2    6 1
   6    3    4 2
   7    3   43 1
   8    4    5 1
   9    4   44 1
  10    5    6 1
  11    5   37 1
  12    6   39 2
  13    7    8 am
  14    7    9 2
  15    7   38 1
  16    8   10 1
  17    8   11 1
  18   10   14 1
  19   10   45 1
  20   10   46 1
  21   11   12 1
  22   11   47 1
  23   11   48 1
  24   12   13 ar
  25   12   15 ar
  26   13   14 1
  27   13   18 ar
  28   14   49 1
  29   14   50 1
  30   15   16 ar
  31   15   51 1
  32   16   17 ar
  33   16   20 1
  34   17   18 ar
  35   17   21 1
  36   18   19 1
  37   21   22 am
  38   21   23 2
  39   22   24 1
  40   22   52 1
  41   24   25 1
  42   24   28 1
  43   24   53 1
  44   25   26 1
  45   25   27 2
  46   26   54 1
  47   28   29 1
  48   28   55 1
  49   28   56 1
  50   29   30 ar
  51   29   31 ar
  52   30   34 ar
  53   30   57 1
  54   31   32 ar
  55   31   58 1
  56   32   33 ar
  57   32   35 1
  58   33   34 ar
  59   33   59 1
  60   34   60 1
  61   35   36 1
  62   35   41 1
  63   35   61 1
  64   36   62 1
  65   37   38 2
  66   37   63 1
  67   38   39 1
  68   40   64 1
  69   41   65 1
  70   41   66 1
  71   41   67 1

#	End of record

