#	Name: ASD03090176
#	Creating user name:	WinNT
#	Creation time:	15. 06. 2019 20:28

#	Modifying user name:	WinNT
#	Modification time:	15. 06. 2019 20:28

#	Program:	/corina/corina34_cracker 3.40 0067  02.08.2006

@<TRIPOS>MOLECULE
ASD03090176
  38   40    0    0    0
SMALL
NO_CHARGES


@<TRIPOS>ATOM
   1 N1            -0.0179     1.1275     1.2624 N.ar    
   2 C2             1.0402     1.8823     1.0310 C.ar    
   3 C3             2.2722     1.3147     0.7698 C.ar    
   4 C4             2.3866    -0.0791     0.7536 C.ar    
   5 C5             1.2391    -0.8392     1.0048 C.ar    
   6 C6             0.0479    -0.1901     1.2563 C.ar    
   7 C7             3.6860    -0.7322     0.4780 C.2     
   8 N8             5.7140    -3.4453    -0.4603 N.pl3   
   9 C9             4.8790    -4.4989    -0.8460 C.ar    
  10 C10            3.6739    -4.2333    -1.4830 C.ar    
  11 C11            2.8492    -5.2764    -1.8644 C.ar    
  12 C12            3.2251    -6.5863    -1.6106 C.ar    
  13 C13            4.4277    -6.8529    -0.9749 C.ar    
  14 C14            5.2570    -5.8119    -0.5975 C.ar    
  15 N15            3.8598    -1.9804     0.0926 N.2     
  16 C16            5.1614    -2.2268    -0.0611 C.2     
  17 N17            5.8398    -1.1388     0.2241 N.2     
  18 N18            4.9031    -0.1520     0.5715 N.pl3   
  19 C19            5.1890     1.2295     0.9665 C.3     
  20 C20            5.2367     2.1032    -0.2604 C.2     
  21 F21            4.7925    -8.1302    -0.7283 F       
  22 O22            5.4856     3.4166    -0.1398 O.3     
  23 F23            2.4183    -7.6041    -1.9829 F       
  24 O24            5.0510     1.6213    -1.3528 O.2     
  25 Cl25           0.8811     3.6109     1.0547 Cl      
  26 C26            5.5166     4.1968    -1.3640 C.3     
  27 F27            1.6768    -5.0183    -2.4841 F       
  28 H28            3.1338     1.9378     0.5805 H       
  29 H29            1.2849    -1.9182     1.0011 H       
  30 H30           -0.8430    -0.7686     1.4512 H       
  31 H31            6.6770    -3.5610    -0.4702 H       
  32 H32            3.3806    -3.2128    -1.6802 H       
  33 H33            6.1941    -6.0199    -0.1025 H       
  34 H34            4.4057     1.5855     1.6358 H       
  35 H35            6.1504     1.2694     1.4787 H       
  36 H36            6.2954     3.8104    -2.0215 H       
  37 H37            4.5508     4.1265    -1.8643 H       
  38 H38            5.7270     5.2393    -1.1252 H       
@<TRIPOS>BOND
   1    1    2 ar
   2    1    6 ar
   3    2    3 ar
   4    2   25 1
   5    3    4 ar
   6    3   28 1
   7    4    5 ar
   8    4    7 1
   9    5    6 ar
  10    5   29 1
  11    6   30 1
  12    7   15 2
  13    7   18 1
  14    8    9 1
  15    8   16 1
  16    8   31 1
  17    9   10 ar
  18    9   14 ar
  19   10   11 ar
  20   10   32 1
  21   11   12 ar
  22   11   27 1
  23   12   13 ar
  24   12   23 1
  25   13   14 ar
  26   13   21 1
  27   14   33 1
  28   15   16 1
  29   16   17 2
  30   17   18 1
  31   18   19 1
  32   19   20 1
  33   19   34 1
  34   19   35 1
  35   20   22 1
  36   20   24 2
  37   22   26 1
  38   26   36 1
  39   26   37 1
  40   26   38 1

#	End of record

