#	Name: ASD01911384
#	Creating user name:	WinNT
#	Creation time:	15. 06. 2019 19:57

#	Modifying user name:	WinNT
#	Modification time:	15. 06. 2019 19:57

#	Program:	/corina/corina34_cracker 3.40 0067  02.08.2006

@<TRIPOS>MOLECULE
ASD01911384
  40   43    0    0    0
SMALL
NO_CHARGES


@<TRIPOS>ATOM
   1 N1            -0.0168     1.3886     0.0097 N.am    
   2 C2             0.0021    -0.0041     0.0020 C.ar    
   3 C3             1.2190    -0.6741     0.0924 C.ar    
   4 C4             1.2316    -2.0540     0.0848 C.ar    
   5 C5             0.0066    -2.7312    -0.0146 C.ar    
   6 C6            -1.1723    -1.9883    -0.1015 C.ar    
   7 N7            -1.1382    -0.6716    -0.0856 N.ar    
   8 C8            -0.0338    -4.1626    -0.0271 C.1     
   9 C9            -0.0668    -5.3361    -0.0373 C.1     
  10 C10           -0.1072    -6.7675    -0.0498 C.ar    
  11 C11           -1.3315    -7.4340    -0.1491 C.ar    
  12 C12            1.0327    -8.8814     0.0189 C.ar    
  13 C13            1.0781    -7.5035     0.0314 C.ar    
  14 C14           -1.3637    -8.8123    -0.1606 C.ar    
  15 C15           -0.1852    -9.5368    -0.0739 C.ar    
  16 C16            1.1716     2.2584     0.0030 C.3     
  17 C17           -1.1198     2.1507     0.0185 C.2     
  18 N18           -0.8695     3.4693     0.0246 N.am    
  19 C19            0.5795     3.6740     0.0164 C.3     
  20 C20           -1.8806     4.5294     0.0339 C.3     
  21 O21           -2.2446     1.6892     0.0207 O.2     
  22 C22            1.2416     4.8095     0.7847 C.3     
  23 C23            1.2316     4.8188    -0.7468 C.3     
  24 F24           -0.2232   -10.8872    -0.0857 F       
  25 H25            2.1430    -0.1200     0.1673 H       
  26 H26            2.1614    -2.5992     0.1533 H       
  27 H27           -2.1214    -2.4979    -0.1784 H       
  28 H28           -2.2505    -6.8707    -0.2163 H       
  29 H29            1.9479    -9.4514     0.0816 H       
  30 H30            2.0276    -6.9940     0.1034 H       
  31 H31           -2.3093    -9.3286    -0.2369 H       
  32 H32            1.7774     2.0873     0.8929 H       
  33 H33            1.7602     2.0970    -0.9001 H       
  34 H34           -2.8750     4.0831     0.0355 H       
  35 H35           -1.7561     5.1425     0.9265 H       
  36 H36           -1.7630     5.1515    -0.8534 H       
  37 H37            0.5904     5.5179     1.2968 H       
  38 H38            2.1885     4.5970     1.2809 H       
  39 H39            2.1720     4.6123    -1.2578 H       
  40 H40            0.5738     5.5332    -1.2418 H       
@<TRIPOS>BOND
   1    1    2 1
   2    1   16 1
   3    1   17 am
   4    2    3 ar
   5    2    7 ar
   6    3    4 ar
   7    3   25 1
   8    4    5 ar
   9    4   26 1
  10    5    6 ar
  11    5    8 1
  12    6    7 ar
  13    6   27 1
  14    8    9 3
  15    9   10 1
  16   10   11 ar
  17   10   13 ar
  18   11   14 ar
  19   11   28 1
  20   12   13 ar
  21   12   15 ar
  22   12   29 1
  23   13   30 1
  24   14   15 ar
  25   14   31 1
  26   15   24 1
  27   16   19 1
  28   16   32 1
  29   16   33 1
  30   17   18 am
  31   17   21 2
  32   18   19 1
  33   18   20 1
  34   19   22 1
  35   19   23 1
  36   20   34 1
  37   20   35 1
  38   20   36 1
  39   22   23 1
  40   22   37 1
  41   22   38 1
  42   23   39 1
  43   23   40 1

#	End of record

