#	Name: ASD05872033
#	Creating user name:	WinNT
#	Creation time:	15. 06. 2019 21:04

#	Modifying user name:	WinNT
#	Modification time:	15. 06. 2019 21:04

#	Program:	/corina/corina34_cracker 3.40 0067  02.08.2006

@<TRIPOS>MOLECULE
ASD05872033
  79   82    0    0    0
SMALL
NO_CHARGES


@<TRIPOS>ATOM
   1 C1            -0.2395     2.3056     0.3641 C.ar    
   2 C2            -0.0073     0.9300     0.3847 C.ar    
   3 C3            -1.0713     0.0485     0.3686 C.ar    
   4 C4            -2.3723     0.5405     0.3317 C.ar    
   5 C5            -2.6085     1.9224     0.3109 C.ar    
   6 C6            -1.5302     2.7987     0.3332 C.ar    
   7 C7            -3.7093    -0.0878     0.3062 C.2     
   8 C8            -4.5996     0.9415     0.2734 C.2     
   9 O9            -3.9451     2.1084     0.2765 O.3     
  10 O10            0.8122     3.1678     0.3801 O.3     
  11 O11            1.2675     0.4563     0.4203 O.3     
  12 C12           -6.0986     0.7894     0.2393 C.3     
  13 O13           -6.6046     0.7563     1.5753 O.3     
  14 C14           -7.9503     0.6222     1.7229 C.ar    
  15 C15           -8.5110     0.5828     2.9998 C.ar    
  16 C16           -9.8767     0.4468     3.1622 C.ar    
  17 C17          -10.7025     0.3486     2.0489 C.ar    
  18 C18          -10.1365     0.3889     0.7668 C.ar    
  19 C19           -8.7614     0.5307     0.6080 C.ar    
  20 O20          -12.0375     0.2120     1.9025 O.3     
  21 C21          -12.3834     0.1602     0.6111 C.2     
  22 C22          -11.2725     0.2621    -0.1692 C.2     
  23 C23          -13.7922     0.0119     0.0971 C.3     
  24 C24          -11.2153     0.2486    -1.6370 C.2     
  25 O25          -11.2977     1.2905    -2.2581 O.2     
  26 O26           -7.7075     0.6785     4.0930 O.3     
  27 C27           -4.0145    -1.5247     0.3146 C.2     
  28 O28           -4.1663    -2.1078     1.3705 O.2     
  29 C29            0.5131     4.5585     0.2432 C.3     
  30 C30           -8.3510     0.7473     5.3670 C.3     
  31 C31            0.1643     5.1424     1.6137 C.3     
  32 C32           -8.6542    -0.6681     5.8624 C.3     
  33 C33            1.7309     5.2883    -0.3271 C.3     
  34 C34           -7.4303     1.4510     6.3661 C.3     
  35 O35            1.7954     0.2629     1.7775 O.3     
  36 S36            3.2215    -0.2671     1.8173 S.o2    
  37 O37            3.4949    -0.5818     3.1758 O.2     
  38 O38            3.3270    -1.2147     0.7636 O.2     
  39 O39            4.1419     0.8881     1.4501 O.3     
  40 Na40           4.3759     2.2294     2.9015 Du      
  41 O41          -11.0714    -0.9191    -2.2954 O.3     
  42 C42          -10.8573    -2.2686    -4.3111 C.3     
  43 C43          -11.0226    -0.8567    -3.7452 C.3     
  44 O44           -4.1263    -2.1968    -0.8488 O.3     
  45 C45           -4.5167    -4.2018    -2.1746 C.3     
  46 C46           -4.4294    -3.6143    -0.7646 C.3     
  47 H47           -0.8939    -1.0167     0.3842 H       
  48 H48           -1.7006     3.8650     0.3174 H       
  49 H49           -6.5372     1.6323    -0.2947 H       
  50 H50           -6.3580    -0.1384    -0.2706 H       
  51 H51          -10.3022     0.4165     4.1544 H       
  52 H52           -8.3295     0.5613    -0.3814 H       
  53 H53          -14.4820    -0.0459     0.9391 H       
  54 H54          -14.0457     0.8726    -0.5218 H       
  55 H55          -13.8680    -0.8983    -0.4978 H       
  56 H56           -0.3341     4.6832    -0.4312 H       
  57 H57           -9.2818     1.3070     5.2742 H       
  58 H58           -0.0639     6.2031     1.5093 H       
  59 H59           -0.7033     4.6224     2.0201 H       
  60 H60            1.0114     5.0176     2.2881 H       
  61 H61           -9.1451    -0.6156     6.8342 H       
  62 H62           -9.3102    -1.1694     5.1507 H       
  63 H63           -7.7235    -1.2278     5.9552 H       
  64 H64            1.9794     4.8723    -1.3035 H       
  65 H65            1.5027     6.3490    -0.4315 H       
  66 H66            2.5780     5.1635     0.3473 H       
  67 H67           -7.2143     2.4594     6.0132 H       
  68 H68           -7.9212     1.5035     7.3379 H       
  69 H69           -6.4996     0.8914     6.4589 H       
  70 H70           -9.9320    -2.7048    -3.9349 H       
  71 H71          -11.7016    -2.8849    -4.0022 H       
  72 H72          -10.8207    -2.2218    -5.3995 H       
  73 H73          -11.9479    -0.4204    -4.1215 H       
  74 H74          -10.1783    -0.2403    -4.0541 H       
  75 H75           -5.3044    -3.6943    -2.7316 H       
  76 H76           -3.5638    -4.0638    -2.6854 H       
  77 H77           -4.7443    -5.2659    -2.1114 H       
  78 H78           -3.6418    -4.1219    -0.2077 H       
  79 H79           -5.3824    -3.7524    -0.2538 H       
@<TRIPOS>BOND
   1    1    2 ar
   2    1   10 1
   3    1    6 ar
   4    2    3 ar
   5    2   11 1
   6    3    4 ar
   7    3   47 1
   8    4    5 ar
   9    4    7 1
  10    5    6 ar
  11    5    9 1
  12    6   48 1
  13    7    8 2
  14    7   27 1
  15    8    9 1
  16    8   12 1
  17   10   29 1
  18   11   35 1
  19   12   13 1
  20   12   49 1
  21   12   50 1
  22   13   14 1
  23   14   15 ar
  24   14   19 ar
  25   15   16 ar
  26   15   26 1
  27   16   17 ar
  28   16   51 1
  29   17   18 ar
  30   17   20 1
  31   18   19 ar
  32   18   22 1
  33   19   52 1
  34   20   21 1
  35   21   22 2
  36   21   23 1
  37   22   24 1
  38   23   53 1
  39   23   54 1
  40   23   55 1
  41   24   25 2
  42   24   41 1
  43   26   30 1
  44   27   28 2
  45   27   44 1
  46   29   31 1
  47   29   33 1
  48   29   56 1
  49   30   32 1
  50   30   34 1
  51   30   57 1
  52   31   58 1
  53   31   59 1
  54   31   60 1
  55   32   61 1
  56   32   62 1
  57   32   63 1
  58   33   64 1
  59   33   65 1
  60   33   66 1
  61   34   67 1
  62   34   68 1
  63   34   69 1
  64   35   36 1
  65   36   37 2
  66   36   38 2
  67   36   39 1
  68   39   40 1
  69   41   43 1
  70   42   43 1
  71   42   70 1
  72   42   71 1
  73   42   72 1
  74   43   73 1
  75   43   74 1
  76   44   46 1
  77   45   46 1
  78   45   75 1
  79   45   76 1
  80   45   77 1
  81   46   78 1
  82   46   79 1

#	End of record

