#	Name: ASD02560471
#	Creating user name:	WinNT
#	Creation time:	15. 06. 2019 20:25

#	Modifying user name:	WinNT
#	Modification time:	15. 06. 2019 20:25

#	Program:	/corina/corina34_cracker 3.40 0067  02.08.2006

@<TRIPOS>MOLECULE
ASD02560471
  52   55    0    0    0
SMALL
NO_CHARGES


@<TRIPOS>ATOM
   1 C1             0.2409    -2.1829    -2.6953 C.2     
   2 C2             0.2898    -2.7871    -1.4262 C.2     
   3 C3             1.1756    -2.3625    -0.5029 C.2     
   4 N4             2.0391    -1.3392    -0.7858 N.pl3   
   5 C5             2.0146    -0.7295    -2.0190 C.2     
   6 C6             1.0922    -1.1654    -2.9923 C.2     
   7 C7             3.0171    -0.7229    -0.0538 C.2     
   8 C8             3.5617     0.2365    -0.8438 C.2     
   9 N9             2.9409     0.2160    -2.0287 N.2     
  10 C10            4.6785     1.1694    -0.4519 C.3     
  11 N11            3.3862    -1.0251     1.2628 N.3     
  12 C12            4.8006    -1.4149     1.3367 C.3     
  13 C13            5.5070    -0.5718     2.4003 C.3     
  14 C14            5.3348     1.7167    -1.6931 C.ar    
  15 C15            6.6177     1.3247    -2.0268 C.ar    
  16 C16            4.6518     2.6064    -2.5011 C.ar    
  17 C17            5.2538     3.1085    -3.6397 C.ar    
  18 C18            6.5390     2.7212    -3.9701 C.ar    
  19 C19            7.2197     1.8268    -3.1654 C.ar    
  20 C20            4.1115     2.3240     0.3766 C.3     
  21 C21            4.9028    -2.8954     1.7088 C.3     
  22 C22            6.3760    -3.3014     1.7858 C.3     
  23 C23            7.0824    -2.4583     2.8494 C.3     
  24 C24            6.9801    -0.9778     2.4773 C.3     
  25 C25            1.2150    -3.0200     0.8525 C.3     
  26 H26           -0.4676    -2.5292    -3.4331 H       
  27 H27           -0.3863    -3.5955    -1.1899 H       
  28 H28            1.0626    -0.6958    -3.9645 H       
  29 H29            5.4155     0.6257     0.1392 H       
  30 H30            3.1918    -0.2506     1.8796 H       
  31 H31            5.2740    -1.2499     0.3689 H       
  32 H32            5.4342     0.4830     2.1352 H       
  33 H33            5.0336    -0.7368     3.3682 H       
  34 H34            7.1498     0.6265    -1.3978 H       
  35 H35            3.6477     2.9090    -2.2430 H       
  36 H36            4.7199     3.8030    -4.2713 H       
  37 H37            7.0092     3.1131    -4.8599 H       
  38 H38            8.2238     1.5242    -3.4236 H       
  39 H39            3.3745     2.8677    -0.2144 H       
  40 H40            3.6368     1.9281     1.2744 H       
  41 H41            4.9193     2.9987     0.6601 H       
  42 H42            4.4294    -3.0604     2.6767 H       
  43 H43            4.3996    -3.4961     0.9511 H       
  44 H44            6.4488    -4.3562     2.0509 H       
  45 H45            6.8494    -3.1365     0.8180 H       
  46 H46            6.6089    -2.6233     3.8172 H       
  47 H47            8.1319    -2.7475     2.9043 H       
  48 H48            7.4536    -0.8128     1.5095 H       
  49 H49            7.4834    -0.3772     3.2350 H       
  50 H50            0.3930    -3.7310     0.9354 H       
  51 H51            2.1627    -3.5445     0.9745 H       
  52 H52            1.1178    -2.2602     1.6279 H       
@<TRIPOS>BOND
   1    1    2 1
   2    1    6 2
   3    1   26 1
   4    2    3 2
   5    2   27 1
   6    3    4 1
   7    3   25 1
   8    4    5 1
   9    4    7 1
  10    5    6 1
  11    5    9 2
  12    6   28 1
  13    7    8 2
  14    7   11 1
  15    8    9 1
  16    8   10 1
  17   10   14 1
  18   10   20 1
  19   10   29 1
  20   11   12 1
  21   11   30 1
  22   12   21 1
  23   12   13 1
  24   12   31 1
  25   13   24 1
  26   13   32 1
  27   13   33 1
  28   14   15 ar
  29   14   16 ar
  30   15   19 ar
  31   15   34 1
  32   16   17 ar
  33   16   35 1
  34   17   18 ar
  35   17   36 1
  36   18   19 ar
  37   18   37 1
  38   19   38 1
  39   20   39 1
  40   20   40 1
  41   20   41 1
  42   21   22 1
  43   21   42 1
  44   21   43 1
  45   22   23 1
  46   22   44 1
  47   22   45 1
  48   23   24 1
  49   23   46 1
  50   23   47 1
  51   24   48 1
  52   24   49 1
  53   25   50 1
  54   25   51 1
  55   25   52 1

#	End of record

