#	Name: ASD01813791
#	Creating user name:	WinNT
#	Creation time:	15. 06. 2019 19:31

#	Modifying user name:	WinNT
#	Modification time:	15. 06. 2019 19:31

#	Program:	/corina/corina34_cracker 3.40 0067  02.08.2006

@<TRIPOS>MOLECULE
ASD01813791
  54   57    0    0    0
SMALL
NO_CHARGES


@<TRIPOS>ATOM
   1 C1            -0.0169     1.3972     0.0097 C.2     
   2 C2             0.0021    -0.0041     0.0020 C.2     
   3 C3             1.1986    -0.6593    -0.0129 C.2     
   4 C4             2.3918     0.0821    -0.0204 C.2     
   5 N5             2.3438     1.4497    -0.0122 N.am    
   6 C6             1.1421     2.0936     0.0024 C.2     
   7 C7             3.6227    -0.5889    -0.0356 C.2     
   8 C8             4.7877     0.1218    -0.0430 C.2     
   9 C9             4.7345     1.5280    -0.0351 C.2     
  10 C10            3.4812     2.1736    -0.0189 C.2     
  11 O11            3.4258     3.3917    -0.0123 O.2     
  12 C12            5.9703     2.3140    -0.0422 C.2     
  13 O13            7.0487     1.7516    -0.0551 O.2     
  14 O14            5.9124     3.6618    -0.0346 O.3     
  15 C15            3.6593    -2.0954    -0.0434 C.3     
  16 N16            3.7785    -2.5752    -1.4268 N.3     
  17 C17            4.0547    -4.0181    -1.4618 C.3     
  18 C18            4.2502    -4.4623    -2.9133 C.3     
  19 N19            3.0434    -4.1411    -3.6879 N.3     
  20 C20            2.7672    -2.6981    -3.6529 C.3     
  21 C21            2.5717    -2.2539    -2.2014 C.3     
  22 C22            3.1567    -4.5972    -5.0032 C.ar    
  23 C23            2.2444    -5.5184    -5.5015 C.ar    
  24 C24            2.3591    -5.9670    -6.8028 C.ar    
  25 C25            3.3809    -5.5005    -7.6090 C.ar    
  26 C26            4.2911    -4.5832    -7.1160 C.ar    
  27 C27            4.1788    -4.1262    -5.8179 C.ar    
  28 C28            5.3249    -4.3142    -0.6619 C.3     
  29 C29            1.1310    -6.0281    -4.6231 C.3     
  30 H30           -0.9605     1.9226     0.0170 H       
  31 H31           -0.9233    -0.5609     0.0082 H       
  32 H32            1.2282    -1.7389    -0.0187 H       
  33 H33            1.1156     3.1733     0.0091 H       
  34 H34            5.7392    -0.3889    -0.0544 H       
  35 H35            6.7544     4.1373    -0.0398 H       
  36 H36            4.5154    -2.4410     0.5360 H       
  37 H37            2.7413    -2.4834     0.3979 H       
  38 H38            3.2154    -4.5597    -1.0257 H       
  39 H39            5.1064    -3.9407    -3.3410 H       
  40 H40            4.4266    -5.5375    -2.9440 H       
  41 H41            3.6065    -2.1565    -4.0890 H       
  42 H42            1.8623    -2.4872    -4.2228 H       
  43 H43            1.7155    -2.7755    -1.7737 H       
  44 H44            2.3953    -1.1787    -2.1707 H       
  45 H45            1.6500    -6.6833    -7.1908 H       
  46 H46            3.4687    -5.8535    -8.6259 H       
  47 H47            5.0882    -4.2211    -7.7483 H       
  48 H48            4.8897    -3.4096    -5.4336 H       
  49 H49            5.1861    -3.9960     0.3714 H       
  50 H50            5.5295    -5.3845    -0.6881 H       
  51 H51            6.1640    -3.7731    -1.0991 H       
  52 H52            0.2596    -5.3820    -4.7293 H       
  53 H53            0.8690    -7.0433    -4.9211 H       
  54 H54            1.4591    -6.0278    -3.5837 H       
@<TRIPOS>BOND
   1    1    2 1
   2    1    6 2
   3    1   30 1
   4    2    3 2
   5    2   31 1
   6    3    4 1
   7    3   32 1
   8    4    5 1
   9    4    7 2
  10    5    6 1
  11    5   10 am
  12    6   33 1
  13    7    8 1
  14    7   15 1
  15    8    9 2
  16    8   34 1
  17    9   10 1
  18    9   12 1
  19   10   11 2
  20   12   13 2
  21   12   14 1
  22   14   35 1
  23   15   16 1
  24   15   36 1
  25   15   37 1
  26   16   17 1
  27   16   21 1
  28   17   18 1
  29   17   28 1
  30   17   38 1
  31   18   19 1
  32   18   39 1
  33   18   40 1
  34   19   20 1
  35   19   22 1
  36   20   21 1
  37   20   41 1
  38   20   42 1
  39   21   43 1
  40   21   44 1
  41   22   23 ar
  42   22   27 ar
  43   23   24 ar
  44   23   29 1
  45   24   25 ar
  46   24   45 1
  47   25   26 ar
  48   25   46 1
  49   26   27 ar
  50   26   47 1
  51   27   48 1
  52   28   49 1
  53   28   50 1
  54   28   51 1
  55   29   52 1
  56   29   53 1
  57   29   54 1

#	End of record

