#	Name: ASD05380322
#	Creating user name:	WinNT
#	Creation time:	15. 06. 2019 20:59

#	Modifying user name:	WinNT
#	Modification time:	15. 06. 2019 20:59

#	Program:	/corina/corina34_cracker 3.40 0067  02.08.2006

@<TRIPOS>MOLECULE
ASD05380322
  58   62    0    0    0
SMALL
NO_CHARGES


@<TRIPOS>ATOM
   1 N1            -0.4952     1.6666    -0.3984 N.ar    
   2 C2            -0.2321     0.3597    -0.4214 C.ar    
   3 C3             1.0856    -0.0626    -0.5898 C.ar    
   4 C4             2.0782     0.9045    -0.7278 C.ar    
   5 N5             1.7391     2.1894    -0.6948 N.ar    
   6 C6             0.4761     2.5553    -0.5330 C.ar    
   7 N7             3.4069     0.5308    -0.8977 N.am    
   8 C8             3.8945    -0.8481    -1.0540 C.3     
   9 C9             4.4513     1.3687    -0.9513 C.2     
  10 O10            5.6282     0.7561    -1.1216 O.3     
  11 C11            5.4192    -0.6835    -1.2039 C.3     
  12 C12            5.8776    -1.2083    -2.5401 C.ar    
  13 O13            4.3394     2.5746    -0.8549 O.2     
  14 N14            0.1640     3.9034    -0.5040 N.3     
  15 C15           -1.2878     4.1059    -0.3920 C.3     
  16 C16            0.6963     4.5930    -1.6882 C.3     
  17 C17            0.3810     6.0877    -1.5864 C.3     
  18 O18           -1.0314     6.2635    -1.4468 O.3     
  19 C19           -1.5832     5.6055    -0.3032 C.3     
  20 C20           -1.3250    -0.6300    -0.2695 C.ar    
  21 C21           -2.2259    -0.5450     0.7959 C.ar    
  22 N22           -3.1868    -1.4458     0.8965 N.ar    
  23 C23           -3.3025    -2.4196     0.0046 C.ar    
  24 N24           -2.4679    -2.5336    -1.0193 N.ar    
  25 C25           -1.4846    -1.6689    -1.1916 C.ar    
  26 C26           -2.1024     0.5581     1.8152 C.3     
  27 F27           -2.4787     1.7740     1.2345 F       
  28 F28           -2.9372     0.2829     2.9036 F       
  29 F29           -0.7765     0.6414     2.2539 F       
  30 N30           -4.3216    -3.3423     0.1462 N.pl3   
  31 C31            6.4264    -2.4735    -2.6344 C.ar    
  32 C32            6.8469    -2.9550    -3.8601 C.ar    
  33 C33            6.7182    -2.1713    -4.9915 C.ar    
  34 C34            6.1687    -0.9064    -4.8974 C.ar    
  35 C35            5.7441    -0.4267    -3.6724 C.ar    
  36 C36            3.2974    -1.4904    -2.3078 C.3     
  37 H37            1.3309    -1.1141    -0.6123 H       
  38 H38            3.6561    -1.4410    -0.1709 H       
  39 H39            5.9406    -1.1922    -0.3931 H       
  40 H40           -1.7822     3.6889    -1.2693 H       
  41 H41           -1.6565     3.6085     0.5051 H       
  42 H42            1.7759     4.4513    -1.7374 H       
  43 H43            0.2336     4.1838    -2.5863 H       
  44 H44            0.8877     6.5083    -0.7178 H       
  45 H45            0.7234     6.5942    -2.4889 H       
  46 H46           -2.6614     5.7632    -0.2775 H       
  47 H47           -1.1336     6.0120     0.6028 H       
  48 H48           -0.8086    -1.7676    -2.0281 H       
  49 H49           -4.9397    -3.2719     0.8905 H       
  50 H50           -4.4188    -4.0604    -0.4986 H       
  51 H51            6.5269    -3.0858    -1.7504 H       
  52 H52            7.2763    -3.9432    -3.9336 H       
  53 H53            7.0475    -2.5471    -5.9490 H       
  54 H54            6.0685    -0.2940    -5.7813 H       
  55 H55            5.3147     0.5616    -3.5989 H       
  56 H56            3.5648    -0.8973    -3.1823 H       
  57 H57            3.6899    -2.5010    -2.4203 H       
  58 H58            2.2122    -1.5304    -2.2139 H       
@<TRIPOS>BOND
   1    1    2 ar
   2    1    6 ar
   3    2    3 ar
   4    2   20 1
   5    3    4 ar
   6    3   37 1
   7    4    5 ar
   8    4    7 1
   9    5    6 ar
  10    6   14 1
  11    7    8 1
  12    7    9 am
  13    8   36 1
  14    8   11 1
  15    8   38 1
  16    9   10 1
  17    9   13 2
  18   10   11 1
  19   11   12 1
  20   11   39 1
  21   12   31 ar
  22   12   35 ar
  23   14   15 1
  24   14   16 1
  25   15   19 1
  26   15   40 1
  27   15   41 1
  28   16   17 1
  29   16   42 1
  30   16   43 1
  31   17   18 1
  32   17   44 1
  33   17   45 1
  34   18   19 1
  35   19   46 1
  36   19   47 1
  37   20   21 ar
  38   20   25 ar
  39   21   22 ar
  40   21   26 1
  41   22   23 ar
  42   23   24 ar
  43   23   30 1
  44   24   25 ar
  45   25   48 1
  46   26   27 1
  47   26   28 1
  48   26   29 1
  49   30   49 1
  50   30   50 1
  51   31   32 ar
  52   31   51 1
  53   32   33 ar
  54   32   52 1
  55   33   34 ar
  56   33   53 1
  57   34   35 ar
  58   34   54 1
  59   35   55 1
  60   36   56 1
  61   36   57 1
  62   36   58 1

#	End of record

