#	Name: ASD07300398
#	Creating user name:	WinNT
#	Creation time:	15. 06. 2019 21:09

#	Modifying user name:	WinNT
#	Modification time:	15. 06. 2019 21:09

#	Program:	/corina/corina34_cracker 3.40 0067  02.08.2006

@<TRIPOS>MOLECULE
ASD07300398
  23   24    0    0    0
SMALL
NO_CHARGES


@<TRIPOS>ATOM
   1 C1            -0.0170     1.4024     0.0098 C.ar    
   2 C2             0.0021    -0.0041     0.0020 C.ar    
   3 C3             1.2340    -0.6647    -0.0133 C.ar    
   4 C4             2.3846     0.1009    -0.0202 C.ar    
   5 C5             2.2860     1.4831    -0.0118 C.ar    
   6 N6             1.1155     2.0868     0.0026 N.ar    
   7 C7            -2.0791     0.6119     0.0339 C.2     
   8 N8            -1.3479     1.7600     0.0299 N.pl3   
   9 N9            -1.2888    -0.4214     0.0126 N.2     
  10 S10           -3.8393     0.5363     0.0586 S.o2    
  11 O11           -4.1277    -0.7180     0.6609 O.2     
  12 O12           -4.2338     1.7536     0.6764 O.2     
  13 C13           -4.3166     0.5267    -1.6915 C.3     
  14 C14           -1.8783     3.1256     0.0452 C.3     
  15 H15            1.2852    -1.7435    -0.0192 H       
  16 H16            3.3541    -0.3748    -0.0317 H       
  17 H17            3.1876     2.0777    -0.0169 H       
  18 H18           -3.8788    -0.3422    -2.1828 H       
  19 H19           -5.4026     0.4806    -1.7717 H       
  20 H20           -3.9551     1.4361    -2.1716 H       
  21 H21           -2.0242     3.4701    -0.9786 H       
  22 H22           -2.8322     3.1389     0.5725 H       
  23 H23           -1.1732     3.7836     0.5530 H       
@<TRIPOS>BOND
   1    1    2 ar
   2    1    6 ar
   3    1    8 1
   4    2    3 ar
   5    2    9 1
   6    3    4 ar
   7    3   15 1
   8    4    5 ar
   9    4   16 1
  10    5    6 ar
  11    5   17 1
  12    7    8 1
  13    7    9 2
  14    7   10 1
  15    8   14 1
  16   10   11 2
  17   10   12 2
  18   10   13 1
  19   13   18 1
  20   13   19 1
  21   13   20 1
  22   14   21 1
  23   14   22 1
  24   14   23 1

#	End of record

