#	Name: ASD01884794
#	Creating user name:	WinNT
#	Creation time:	15. 06. 2019 19:48

#	Modifying user name:	WinNT
#	Modification time:	15. 06. 2019 19:48

#	Program:	/corina/corina34_cracker 3.40 0067  02.08.2006

@<TRIPOS>MOLECULE
ASD01884794
  46   49    0    0    0
SMALL
NO_CHARGES


@<TRIPOS>ATOM
   1 C1            -0.6704     0.9656     0.2710 C.3     
   2 C2            -0.4282    -0.5367     0.4297 C.3     
   3 H3            -1.3564    -1.0255     0.7259 H       
   4 C4             0.0535    -1.1190    -0.8987 C.3     
   5 N5             0.5987    -2.4647    -0.7555 N.am    
   6 C6             1.3785    -2.8063     0.2986 C.2     
   7 O7             1.9949    -3.8541     0.3279 O.2     
   8 C8             1.4385    -1.8367     1.4080 C.2     
   9 C9             2.2497    -1.7747     2.5204 C.2     
  10 C10            1.8772    -0.6176     3.2355 C.2     
  11 N11            0.8988    -0.0254     2.5926 N.2     
  12 N12            0.5919    -0.7617     1.4562 N.pl3   
  13 C13            3.3075    -2.7361     2.8924 C.2     
  14 O14            3.5303    -3.6988     2.1842 O.2     
  15 N15            4.0256    -2.5461     4.0170 N.am    
  16 C16            4.9592    -3.5060     4.4210 C.ar    
  17 C17            5.6900    -4.2224     3.4766 C.ar    
  18 C18            6.6034    -5.1623     3.9259 C.ar    
  19 C19            6.7584    -5.3569     5.2856 C.ar    
  20 N20            6.0503    -4.6622     6.1548 N.ar    
  21 C21            5.1753    -3.7548     5.7705 C.ar    
  22 C22            0.3090    -3.4251    -1.7292 C.ar    
  23 C23           -0.4877    -4.5183    -1.4134 C.ar    
  24 C24           -0.7718    -5.4653    -2.3776 C.ar    
  25 C25           -0.2638    -5.3263    -3.6563 C.ar    
  26 C26            0.5300    -4.2395    -3.9739 C.ar    
  27 C27            0.8126    -3.2854    -3.0162 C.ar    
  28 C28           -0.5756    -6.3619    -4.7057 C.3     
  29 F29           -1.7456    -6.0019    -5.3830 F       
  30 F30            0.4848    -6.4384    -5.6150 F       
  31 F31           -0.7556    -7.6069    -4.0934 F       
  32 H32            0.2580     1.4540    -0.0252 H       
  33 H33           -1.4288     1.1326    -0.4939 H       
  34 H34           -1.0128     1.3806     1.2190 H       
  35 H35           -0.7850    -1.1506    -1.5944 H       
  36 H36            0.8253    -0.4680    -1.3096 H       
  37 H37            2.3226    -0.2763     4.1583 H       
  38 H38            3.8950    -1.7437     4.5461 H       
  39 H39            5.5481    -4.0498     2.4199 H       
  40 H40            7.1873    -5.7365     3.2218 H       
  41 H41            7.4690    -6.0883     5.6412 H       
  42 H42            4.6173    -3.2024     6.5120 H       
  43 H43           -0.8841    -4.6277    -0.4148 H       
  44 H44           -1.3912    -6.3154    -2.1327 H       
  45 H45            0.9254    -4.1341    -4.9734 H       
  46 H46            1.4286    -2.4343    -3.2663 H       
@<TRIPOS>BOND
   1    1    2 1
   2    1   32 1
   3    1   33 1
   4    1   34 1
   5    2    3 1
   6    2   12 1
   7    2    4 1
   8    4    5 1
   9    4   35 1
  10    4   36 1
  11    5    6 am
  12    5   22 1
  13    6    7 2
  14    6    8 1
  15    8   12 1
  16    8    9 2
  17    9   10 1
  18    9   13 1
  19   10   11 2
  20   10   37 1
  21   11   12 1
  22   13   14 2
  23   13   15 am
  24   15   16 1
  25   15   38 1
  26   16   21 ar
  27   16   17 ar
  28   17   18 ar
  29   17   39 1
  30   18   19 ar
  31   18   40 1
  32   19   20 ar
  33   19   41 1
  34   20   21 ar
  35   21   42 1
  36   22   27 ar
  37   22   23 ar
  38   23   24 ar
  39   23   43 1
  40   24   25 ar
  41   24   44 1
  42   25   26 ar
  43   25   28 1
  44   26   27 ar
  45   26   45 1
  46   27   46 1
  47   28   29 1
  48   28   30 1
  49   28   31 1

#	End of record

