#	Name: ASD01140467
#	Creating user name:	WinNT
#	Creation time:	15. 06. 2019 19:00

#	Modifying user name:	WinNT
#	Modification time:	15. 06. 2019 19:00

#	Program:	/corina/corina34_cracker 3.40 0067  02.08.2006

@<TRIPOS>MOLECULE
ASD01140467
  12   11    0    0    0
SMALL
NO_CHARGES


@<TRIPOS>ATOM
   1 C1            -0.0187     1.5258     0.0104 C.3     
   2 C2             0.0021    -0.0041     0.0020 C.3     
   3 O3             0.6932    -0.4774     1.1597 O.3     
   4 C4             0.7699    -1.9016     1.2491 C.3     
   5 F5             1.2938     2.0100     0.0005 F       
   6 F6            -0.6953     1.9892    -1.1230 F       
   7 F7            -0.6735     1.9769     1.1615 F       
   8 F8            -1.3104    -0.4883     0.0119 F       
   9 F9            -0.5222    -2.4364     1.2922 F       
  10 F10            1.4451    -2.4033     0.1312 F       
  11 H11            0.5123    -0.3556    -0.8948 H       
  12 H12            1.3089    -2.1803     2.1545 H       
@<TRIPOS>BOND
   1    1    2 1
   2    1    5 1
   3    1    6 1
   4    1    7 1
   5    2    3 1
   6    2    8 1
   7    2   11 1
   8    3    4 1
   9    4    9 1
  10    4   10 1
  11    4   12 1

#	End of record

