#	Name: ASD01813333
#	Creating user name:	WinNT
#	Creation time:	15. 06. 2019 19:30

#	Modifying user name:	WinNT
#	Modification time:	15. 06. 2019 19:30

#	Program:	/corina/corina34_cracker 3.40 0067  02.08.2006

@<TRIPOS>MOLECULE
ASD01813333
  52   55    0    0    0
SMALL
NO_CHARGES


@<TRIPOS>ATOM
   1 C1            -0.3788     0.9200     0.4634 C.2     
   2 C2            -0.2986    -0.4703     0.3069 C.2     
   3 C3             0.9248    -1.0734     0.2793 C.2     
   4 C4             2.0839    -0.2902     0.4083 C.2     
   5 N5             1.9761     1.0656     0.5603 N.am    
   6 C6             0.7481     1.6573     0.5861 C.2     
   7 C7             3.3423    -0.9076     0.3804 C.2     
   8 C8             4.4745    -0.1560     0.5053 C.2     
   9 C9             4.3599     1.2379     0.6609 C.2     
  10 C10            3.0802     1.8292     0.6855 C.2     
  11 O11            2.9716     3.0363     0.8196 O.2     
  12 C12            5.5594     2.0670     0.7975 C.2     
  13 O13            5.4428     3.4027     0.9463 O.3     
  14 O14            6.6609     1.5512     0.7767 O.2     
  15 C15            3.4447    -2.4017     0.2129 C.3     
  16 C16            3.6531    -2.7361    -1.2655 C.3     
  17 N17            3.7530    -4.1926    -1.4288 N.3     
  18 C18            3.5818    -4.5768    -2.8335 C.3     
  19 C19            3.7851    -6.0596    -3.0032 C.ar    
  20 C20            4.4207    -6.8209    -2.0461 C.ar    
  21 C21            4.9429    -6.2127    -0.7697 C.3     
  22 C22            5.0382    -4.6938    -0.9165 C.3     
  23 C23            3.3150    -6.6623    -4.1610 C.ar    
  24 C24            3.4821    -8.0178    -4.3595 C.ar    
  25 C25            4.1218    -8.7806    -3.4000 C.ar    
  26 C26            4.5897    -8.1826    -2.2473 C.ar    
  27 C27            2.1696    -4.2052    -3.2902 C.3     
  28 C28            1.1439    -4.9037    -2.3953 C.3     
  29 H29           -1.3437     1.4048     0.4817 H       
  30 H30           -1.1982    -1.0597     0.2092 H       
  31 H31            1.0016    -2.1440     0.1597 H       
  32 H32            0.6744     2.7280     0.7065 H       
  33 H33            5.4469    -0.6255     0.4853 H       
  34 H34            6.2627     3.9080     1.0327 H       
  35 H35            4.2889    -2.7753     0.7924 H       
  36 H36            2.5260    -2.8707     0.5654 H       
  37 H37            2.8089    -2.3625    -1.8450 H       
  38 H38            4.5718    -2.2671    -1.6180 H       
  39 H39            4.3092    -4.0418    -3.4440 H       
  40 H40            4.2666    -6.4554     0.0499 H       
  41 H41            5.9313    -6.6181    -0.5536 H       
  42 H42            5.8347    -4.4429    -1.6171 H       
  43 H43            5.2457    -4.2444     0.0546 H       
  44 H44            2.8151    -6.0674    -4.9111 H       
  45 H45            3.1135    -8.4819    -5.2624 H       
  46 H46            4.2547    -9.8415    -3.5519 H       
  47 H47            5.0895    -8.7784    -1.4979 H       
  48 H48            2.0375    -3.1255    -3.2201 H       
  49 H49            2.0265    -4.5225    -4.3231 H       
  50 H50            0.1420    -4.5633    -2.6569 H       
  51 H51            1.2104    -5.9821    -2.5396 H       
  52 H52            1.3484    -4.6634    -1.3520 H       
@<TRIPOS>BOND
   1    1    2 1
   2    1    6 2
   3    1   29 1
   4    2    3 2
   5    2   30 1
   6    3    4 1
   7    3   31 1
   8    4    5 1
   9    4    7 2
  10    5    6 1
  11    5   10 am
  12    6   32 1
  13    7    8 1
  14    7   15 1
  15    8    9 2
  16    8   33 1
  17    9   10 1
  18    9   12 1
  19   10   11 2
  20   12   13 1
  21   12   14 2
  22   13   34 1
  23   15   16 1
  24   15   35 1
  25   15   36 1
  26   16   17 1
  27   16   37 1
  28   16   38 1
  29   17   18 1
  30   17   22 1
  31   18   19 1
  32   18   27 1
  33   18   39 1
  34   19   20 ar
  35   19   23 ar
  36   20   21 1
  37   20   26 ar
  38   21   22 1
  39   21   40 1
  40   21   41 1
  41   22   42 1
  42   22   43 1
  43   23   24 ar
  44   23   44 1
  45   24   25 ar
  46   24   45 1
  47   25   26 ar
  48   25   46 1
  49   26   47 1
  50   27   28 1
  51   27   48 1
  52   27   49 1
  53   28   50 1
  54   28   51 1
  55   28   52 1

#	End of record

