#	Name: ASD02198335
#	Creating user name:	WinNT
#	Creation time:	15. 06. 2019 20:19

#	Modifying user name:	WinNT
#	Modification time:	15. 06. 2019 20:19

#	Program:	/corina/corina34_cracker 3.40 0067  02.08.2006

@<TRIPOS>MOLECULE
ASD02198335
  38   40    0    0    0
SMALL
NO_CHARGES


@<TRIPOS>ATOM
   1 C1             1.5474     1.6322    -0.9701 C.2     
   2 C2             1.6149     0.2830    -0.6724 C.2     
   3 S3             2.8635     2.4349    -0.1173 S.3     
   4 C4             3.3704     0.9416     0.5404 C.2     
   5 N5             2.6022    -0.0281     0.1341 N.2     
   6 N6             0.7249    -0.6508    -1.1777 N.pl3   
   7 C7             0.6015     2.2512    -1.8079 C.2     
   8 C8             0.5547     3.7274    -1.9076 C.ar    
   9 O9            -0.1797     1.5716    -2.4520 O.2     
  10 N10            4.4460     0.7848     1.3857 N.pl3   
  11 C11           -0.0329     4.3356    -3.0167 C.ar    
  12 C12            1.0932     4.5151    -0.8895 C.ar    
  13 C13            1.0480     5.8911    -0.9855 C.ar    
  14 C14            0.4700     6.4928    -2.0878 C.ar    
  15 C15           -0.0730     5.7169    -3.1033 C.ar    
  16 C16            4.8631    -0.4982     1.7565 C.ar    
  17 C17            4.3036    -1.6142     1.1498 C.ar    
  18 C18            4.7179    -2.8800     1.5178 C.ar    
  19 C19            5.6883    -3.0370     2.4897 C.ar    
  20 C20            6.2488    -1.9281     3.0978 C.ar    
  21 C21            5.8437    -0.6584     2.7303 C.ar    
  22 O22           -0.6400     6.3135    -4.1848 O.3     
  23 C23           -0.6422     7.7423    -4.2107 C.3     
  24 F24            6.3913     0.4248     3.3238 F       
  25 H25            0.0112    -0.3691    -1.7711 H       
  26 H26            0.8155    -1.5864    -0.9380 H       
  27 H27            4.9145     1.5639     1.7240 H       
  28 H28           -0.4549     3.7310    -3.8058 H       
  29 H29            1.5448     4.0482    -0.0267 H       
  30 H30            1.4651     6.4998    -0.1968 H       
  31 H31            0.4368     7.5701    -2.1573 H       
  32 H32            3.5448    -1.4933     0.3908 H       
  33 H33            4.2824    -3.7483     1.0456 H       
  34 H34            6.0095    -4.0278     2.7751 H       
  35 H35            7.0062    -2.0543     3.8572 H       
  36 H36           -1.1231     8.0884    -5.1256 H       
  37 H37           -1.1894     8.1205    -3.3472 H       
  38 H38            0.3842     8.1078    -4.1790 H       
@<TRIPOS>BOND
   1    1    2 2
   2    1    3 1
   3    1    7 1
   4    2    6 1
   5    2    5 1
   6    3    4 1
   7    4    5 2
   8    4   10 1
   9    6   25 1
  10    6   26 1
  11    7    8 1
  12    7    9 2
  13    8   11 ar
  14    8   12 ar
  15   10   16 1
  16   10   27 1
  17   11   15 ar
  18   11   28 1
  19   12   13 ar
  20   12   29 1
  21   13   14 ar
  22   13   30 1
  23   14   15 ar
  24   14   31 1
  25   15   22 1
  26   16   17 ar
  27   16   21 ar
  28   17   18 ar
  29   17   32 1
  30   18   19 ar
  31   18   33 1
  32   19   20 ar
  33   19   34 1
  34   20   21 ar
  35   20   35 1
  36   21   24 1
  37   22   23 1
  38   23   36 1
  39   23   37 1
  40   23   38 1

#	End of record

