#	Name: ASD02030108
#	Creating user name:	WinNT
#	Creation time:	15. 06. 2019 20:14

#	Modifying user name:	WinNT
#	Modification time:	15. 06. 2019 20:14

#	Program:	/corina/corina34_cracker 3.40 0067  02.08.2006

@<TRIPOS>MOLECULE
ASD02030108
  60   64    0    0    0
SMALL
NO_CHARGES


@<TRIPOS>ATOM
   1 N1             0.0573     1.1996    -0.3911 N.am    
   2 C2            -0.2271    -0.2392    -0.4853 C.3     
   3 C3            -1.1193    -0.6408     0.6958 C.3     
   4 N4            -2.2455     0.3001     0.7747 N.am    
   5 C5            -1.9612     1.7389     0.8689 C.3     
   6 C6            -1.0689     2.1401    -0.3065 C.3     
   7 C7             1.3281     1.6482    -0.3769 C.2     
   8 C8             2.4505     0.6875    -0.3235 C.2     
   9 N9             3.7216     0.9905    -0.1706 N.2     
  10 N10            2.3515    -0.6513    -0.4169 N.2     
  11 C11            3.5627    -1.1382    -0.3246 C.2     
  12 N12            4.4091    -0.0993    -0.1708 N.pl3   
  13 O13            1.5514     2.8427    -0.4080 O.2     
  14 C14           -3.5164    -0.1485     0.7605 C.2     
  15 C15           -3.7877    -1.6049     0.7266 C.ar    
  16 O16           -4.4397     0.6414     0.7755 O.2     
  17 C17           -0.5396     3.5590    -0.0885 C.3     
  18 C18           -1.8747     2.0829    -1.6058 C.3     
  19 C19            5.8010    -0.1899    -0.0346 C.ar    
  20 C20            6.5614     0.9618     0.1177 C.ar    
  21 C21            7.9330     0.8693     0.2516 C.ar    
  22 C22            8.5489    -0.3686     0.2335 C.ar    
  23 C23            7.7943    -1.5174     0.0820 C.ar    
  24 C24            6.4217    -1.4318    -0.0461 C.ar    
  25 N25           -2.8217    -2.4595     1.0332 N.ar    
  26 C26           -3.0229    -3.7671     1.0151 C.ar    
  27 C27           -4.2697    -4.2914     0.6693 C.ar    
  28 C28           -5.3005    -3.4269     0.3435 C.ar    
  29 C29           -5.0575    -2.0621     0.3780 C.ar    
  30 C30           -1.9115    -4.6860     1.3655 C.ar    
  31 C31           -0.6528    -4.1895     1.7150 C.ar    
  32 C32            0.3530    -5.0792     2.0338 C.ar    
  33 N33            0.1381    -6.3804     2.0115 N.ar    
  34 C34           -1.0346    -6.8898     1.6872 C.ar    
  35 C35           -2.0966    -6.0711     1.3604 C.ar    
  36 H36           -0.7434    -0.4495    -1.4219 H       
  37 H37            0.7067    -0.8000    -0.4456 H       
  38 H38           -1.4971    -1.6515     0.5417 H       
  39 H39           -0.5430    -0.5999     1.6200 H       
  40 H40           -2.8950     2.2997     0.8292 H       
  41 H41           -1.4448     1.9492     1.8055 H       
  42 H42            3.8348    -2.1827    -0.3615 H       
  43 H43            0.2117     3.5492     0.7011 H       
  44 H44           -0.0914     3.9255    -1.0120 H       
  45 H45           -1.3621     4.2132     0.2007 H       
  46 H46           -2.7184     2.7700    -1.5407 H       
  47 H47           -1.2367     2.3692    -2.4420 H       
  48 H48           -2.2431     1.0688    -1.7606 H       
  49 H49            6.0810     1.9290     0.1311 H       
  50 H50            8.5250     1.7648     0.3701 H       
  51 H51            9.6216    -0.4384     0.3377 H       
  52 H52            8.2782    -2.4828     0.0683 H       
  53 H53            5.8328    -2.3294    -0.1642 H       
  54 H54           -4.4281    -5.3597     0.6558 H       
  55 H55           -6.2743    -3.8070     0.0721 H       
  56 H56           -5.8408    -1.3614     0.1292 H       
  57 H57           -0.4698    -3.1253     1.7351 H       
  58 H58            1.3292    -4.7050     2.3049 H       
  59 H59           -1.1667    -7.9616     1.6818 H       
  60 H60           -3.0541    -6.4949     1.0958 H       
@<TRIPOS>BOND
   1    1    2 1
   2    1    7 am
   3    1    6 1
   4    2    3 1
   5    2   36 1
   6    2   37 1
   7    3    4 1
   8    3   38 1
   9    3   39 1
  10    4    5 1
  11    4   14 am
  12    5    6 1
  13    5   40 1
  14    5   41 1
  15    6   17 1
  16    6   18 1
  17    7    8 1
  18    7   13 2
  19    8    9 2
  20    8   10 1
  21    9   12 1
  22   10   11 2
  23   11   12 1
  24   11   42 1
  25   12   19 1
  26   14   15 1
  27   14   16 2
  28   15   25 ar
  29   15   29 ar
  30   17   43 1
  31   17   44 1
  32   17   45 1
  33   18   46 1
  34   18   47 1
  35   18   48 1
  36   19   20 ar
  37   19   24 ar
  38   20   21 ar
  39   20   49 1
  40   21   22 ar
  41   21   50 1
  42   22   23 ar
  43   22   51 1
  44   23   24 ar
  45   23   52 1
  46   24   53 1
  47   25   26 ar
  48   26   27 ar
  49   26   30 1
  50   27   28 ar
  51   27   54 1
  52   28   29 ar
  53   28   55 1
  54   29   56 1
  55   30   31 ar
  56   30   35 ar
  57   31   32 ar
  58   31   57 1
  59   32   33 ar
  60   32   58 1
  61   33   34 ar
  62   34   35 ar
  63   34   59 1
  64   35   60 1

#	End of record

