#	Name: ASD01840182
#	Creating user name:	WinNT
#	Creation time:	15. 06. 2019 19:37

#	Modifying user name:	WinNT
#	Modification time:	15. 06. 2019 19:37

#	Program:	/corina/corina34_cracker 3.40 0067  02.08.2006

@<TRIPOS>MOLECULE
ASD01840182
  44   47    0    0    0
SMALL
NO_CHARGES


@<TRIPOS>ATOM
   1 C1            -1.9157     1.8086    -0.5004 C.3     
   2 C2            -1.8656     0.2813    -0.3151 C.3     
   3 N3            -1.3272    -0.4359    -1.4736 N.am    
   4 C4            -1.6674    -1.7223    -1.6875 C.2     
   5 C5            -1.1301    -2.4381    -2.8437 C.2     
   6 O6            -2.4221    -2.2885    -0.9179 O.2     
   7 C7            -1.4113    -3.7301    -3.1448 C.2     
   8 C8            -0.7546    -4.2137    -4.3452 C.ar    
   9 C9             0.0422    -3.2314    -4.9485 C.ar    
  10 S10           -0.0437    -1.7368    -4.0270 S.3     
  11 C11           -0.8049    -5.4833    -4.9644 C.ar    
  12 C12           -0.0713    -5.6722    -6.1151 C.ar    
  13 N13            0.6531    -4.6843    -6.6120 N.ar    
  14 N14            0.7103    -3.5273    -6.0659 N.ar    
  15 C15           -0.0943    -7.0095    -6.8093 C.3     
  16 C16           -1.6361    -6.5977    -4.3828 C.3     
  17 N17           -2.2527    -4.5201    -2.3732 N.pl3   
  18 C18           -0.8245     0.5482     0.7870 C.3     
  19 N19           -0.5586     1.8253     0.0888 N.3     
  20 C20           -0.4215     2.8749     1.0001 C.ar    
  21 C21            0.6604     3.7411     0.9066 C.ar    
  22 C22           -1.3697     3.0582     1.9986 C.ar    
  23 C23           -1.2310     4.0969     2.8981 C.ar    
  24 C24           -0.1500     4.9543     2.8053 C.ar    
  25 C25            0.7929     4.7778     1.8094 C.ar    
  26 H26           -1.9456     2.1237    -1.5435 H       
  27 H27           -2.6680     2.3013     0.1156 H       
  28 H28           -2.7977    -0.1467     0.0539 H       
  29 H29           -0.7259     0.0152    -2.0867 H       
  30 H30           -0.9035    -7.0261    -7.5393 H       
  31 H31            0.8565    -7.1717    -7.3171 H       
  32 H32           -0.2524    -7.7982    -6.0737 H       
  33 H33           -2.6656    -6.5011    -4.7277 H       
  34 H34           -1.2335    -7.5578    -4.7055 H       
  35 H35           -1.6106    -6.5402    -3.2946 H       
  36 H36           -2.4360    -4.2774    -1.4521 H       
  37 H37           -2.6572    -5.3147    -2.7551 H       
  38 H38           -1.2577     0.6722     1.7795 H       
  39 H39            0.0175    -0.1438     0.7725 H       
  40 H40            1.3972     3.6039     0.1290 H       
  41 H41           -2.2146     2.3894     2.0712 H       
  42 H42           -1.9679     4.2400     3.6746 H       
  43 H43           -0.0444     5.7662     3.5096 H       
  44 H44            1.6338     5.4517     1.7372 H       
@<TRIPOS>BOND
   1    1    2 1
   2    1   19 1
   3    1   26 1
   4    1   27 1
   5    2    3 1
   6    2   18 1
   7    2   28 1
   8    3    4 am
   9    3   29 1
  10    4    5 1
  11    4    6 2
  12    5    7 2
  13    5   10 1
  14    7    8 1
  15    7   17 1
  16    8    9 ar
  17    8   11 ar
  18    9   10 1
  19    9   14 ar
  20   11   12 ar
  21   11   16 1
  22   12   13 ar
  23   12   15 1
  24   13   14 ar
  25   15   30 1
  26   15   31 1
  27   15   32 1
  28   16   33 1
  29   16   34 1
  30   16   35 1
  31   17   36 1
  32   17   37 1
  33   18   19 1
  34   18   38 1
  35   18   39 1
  36   19   20 1
  37   20   22 ar
  38   20   21 ar
  39   21   25 ar
  40   21   40 1
  41   22   23 ar
  42   22   41 1
  43   23   24 ar
  44   23   42 1
  45   24   25 ar
  46   24   43 1
  47   25   44 1

#	End of record

