#	Name: ASD01913310
#	Creating user name:	WinNT
#	Creation time:	15. 06. 2019 20:01

#	Modifying user name:	WinNT
#	Modification time:	15. 06. 2019 20:01

#	Program:	/corina/corina34_cracker 3.40 0067  02.08.2006

@<TRIPOS>MOLECULE
ASD01913310
  37   39    0    0    0
SMALL
NO_CHARGES


@<TRIPOS>ATOM
   1 C1            -0.0169     1.3969     0.0097 C.ar    
   2 C2             0.0021    -0.0041     0.0020 C.ar    
   3 C3             1.2456    -0.6493    -0.0133 C.ar    
   4 N4             2.3457     0.0817    -0.0199 N.ar    
   5 C5             2.2840     1.4041    -0.0122 C.ar    
   6 N6             1.1298     2.0523     0.0023 N.ar    
   7 O7             3.4366     2.1153    -0.0189 O.3     
   8 C8            -1.2165    -0.7561     0.0101 C.1     
   9 C9            -2.2156    -1.3726     0.0167 C.1     
  10 C10           -3.4342    -2.1246     0.0248 C.ar    
  11 C11           -3.3973    -3.5215     0.0169 C.ar    
  12 C12           -4.5751    -4.2391     0.0252 C.ar    
  13 C13           -5.7913    -3.5791     0.0413 C.ar    
  14 C14           -5.8357    -2.1960     0.0492 C.ar    
  15 C15           -4.6660    -1.4652     0.0464 C.ar    
  16 C16            3.3201     3.5395    -0.0102 C.3     
  17 C17            4.4796     4.2568    -0.7215 C.3     
  18 C18            5.2079     4.2548     0.6329 C.3     
  19 C19            3.8193     4.1905     1.2906 C.3     
  20 C20            5.9643     5.5525     0.9240 C.3     
  21 O21            6.6992     5.4126     2.1415 O.3     
  22 H22           -0.9547     1.9325     0.0171 H       
  23 H23            1.3038    -1.7278    -0.0193 H       
  24 H24           -2.4488    -4.0379     0.0040 H       
  25 H25           -4.5481    -5.3187     0.0188 H       
  26 H26           -6.7103    -4.1463     0.0474 H       
  27 H27           -6.7885    -1.6877     0.0617 H       
  28 H28           -4.7022    -0.3858     0.0525 H       
  29 H29            2.3350     3.8856    -0.3231 H       
  30 H30            4.9692     3.6478    -1.4814 H       
  31 H31            4.2229     5.2545    -1.0778 H       
  32 H32            5.8128     3.3640     0.8021 H       
  33 H33            3.3821     5.1700     1.4844 H       
  34 H34            3.7758     3.5279     2.1550 H       
  35 H35            6.6532     5.7628     0.1059 H       
  36 H36            5.2538     6.3734     1.0207 H       
  37 H37            7.2041     6.1994     2.3887 H       
@<TRIPOS>BOND
   1    1    2 ar
   2    1    6 ar
   3    1   22 1
   4    2    3 ar
   5    2    8 1
   6    3    4 ar
   7    3   23 1
   8    4    5 ar
   9    5    6 ar
  10    5    7 1
  11    7   16 1
  12    8    9 3
  13    9   10 1
  14   10   11 ar
  15   10   15 ar
  16   11   12 ar
  17   11   24 1
  18   12   13 ar
  19   12   25 1
  20   13   14 ar
  21   13   26 1
  22   14   15 ar
  23   14   27 1
  24   15   28 1
  25   16   17 1
  26   16   19 1
  27   16   29 1
  28   17   18 1
  29   17   30 1
  30   17   31 1
  31   18   19 1
  32   18   20 1
  33   18   32 1
  34   19   33 1
  35   19   34 1
  36   20   21 1
  37   20   35 1
  38   20   36 1
  39   21   37 1

#	End of record

