#	Name: ASD01141016
#	Creating user name:	WinNT
#	Creation time:	15. 06. 2019 19:01

#	Modifying user name:	WinNT
#	Modification time:	15. 06. 2019 19:01

#	Program:	/corina/corina34_cracker 3.40 0067  02.08.2006

@<TRIPOS>MOLECULE
ASD01141016
  58   60    0    0    0
SMALL
NO_CHARGES


@<TRIPOS>ATOM
   1 P1            -0.0180     1.4758     0.0102 P.3     
   2 O2             0.0021    -0.0041     0.0020 O.2     
   3 O3             1.4924     2.0330    -0.0013 O.3     
   4 O4            -0.7967     2.0091    -1.2942 O.3     
   5 O5            -0.7716     1.9950     1.3348 O.3     
   6 C6             2.2672     1.5508     1.0058 C.ar    
   7 C7             2.9971     0.3852     0.8238 C.ar    
   8 C8             3.7838    -0.1029     1.8490 C.ar    
   9 C9             3.8441     0.5692     3.0558 C.ar    
  10 C10            3.1173     1.7309     3.2399 C.ar    
  11 C11            2.3339     2.2265     2.2156 C.ar    
  12 C12           -3.6228    -0.1710    -1.9242 C.2     
  13 C13           -4.7336     0.4138    -1.1002 C.3     
  14 C14           -4.1727     1.3944    -0.0678 C.3     
  15 C15           -3.2256     2.3682    -0.7842 C.3     
  16 N16           -2.1412     1.5735    -1.3805 N.pl3   
  17 N17           -2.4630     0.3774    -2.0357 N.2     
  18 C18           -3.8703    -1.4390    -2.6359 C.ar    
  19 C19           -2.8629    -2.0157    -3.4128 C.ar    
  20 C20           -3.1013    -3.2019    -4.0753 C.ar    
  21 C21           -4.3349    -3.8201    -3.9719 C.ar    
  22 C22           -5.3375    -3.2542    -3.2044 C.ar    
  23 C23           -5.1113    -2.0716    -2.5314 C.ar    
  24 C24           -4.5877    -5.1156    -4.6990 C.3     
  25 C25           -4.2080    -6.2902    -3.7953 C.3     
  26 C26           -4.4647    -7.6055    -4.5335 C.3     
  27 C27           -4.0850    -8.7802    -3.6297 C.3     
  28 C28           -0.9548     3.3804     1.6335 C.3     
  29 C29           -1.7051     3.5213     2.9594 C.3     
  30 H30            2.9500    -0.1404    -0.1185 H       
  31 H31            4.3520    -1.0105     1.7079 H       
  32 H32            4.4598     0.1860     3.8561 H       
  33 H33            3.1655     2.2537     4.1837 H       
  34 H34            1.7701     3.1365     2.3582 H       
  35 H35           -5.4301     0.9382    -1.7544 H       
  36 H36           -5.2617    -0.3889    -0.5855 H       
  37 H37           -4.9904     1.9500     0.3914 H       
  38 H38           -3.6237     0.8459     0.6976 H       
  39 H39           -3.7659     2.9023    -1.5657 H       
  40 H40           -2.8130     3.0779    -0.0671 H       
  41 H41           -1.8998    -1.5339    -3.4949 H       
  42 H42           -2.3233    -3.6490    -4.6763 H       
  43 H43           -6.2981    -3.7420    -3.1284 H       
  44 H44           -5.8933    -1.6333    -1.9292 H       
  45 H45           -5.6435    -5.1851    -4.9609 H       
  46 H46           -3.9854    -5.1462    -5.6070 H       
  47 H47           -3.1522    -6.2207    -3.5334 H       
  48 H48           -4.8103    -6.2596    -2.8873 H       
  49 H49           -5.5205    -7.6751    -4.7954 H       
  50 H50           -3.8624    -7.6361    -5.4414 H       
  51 H51           -3.0292    -8.7106    -3.3678 H       
  52 H52           -4.6873    -8.7496    -2.7218 H       
  53 H53           -4.2679    -9.7172    -4.1557 H       
  54 H54            0.0175     3.8666     1.7128 H       
  55 H55           -1.5323     3.8504     0.8375 H       
  56 H56           -2.6774     3.0351     2.8801 H       
  57 H57           -1.1276     3.0513     3.7554 H       
  58 H58           -1.8449     4.5780     3.1872 H       
@<TRIPOS>BOND
   1    1    2 2
   2    1    3 1
   3    1    4 1
   4    1    5 1
   5    3    6 1
   6    4   16 1
   7    5   28 1
   8    6    7 ar
   9    6   11 ar
  10    7    8 ar
  11    7   30 1
  12    8    9 ar
  13    8   31 1
  14    9   10 ar
  15    9   32 1
  16   10   11 ar
  17   10   33 1
  18   11   34 1
  19   12   13 1
  20   12   17 2
  21   12   18 1
  22   13   14 1
  23   13   35 1
  24   13   36 1
  25   14   15 1
  26   14   37 1
  27   14   38 1
  28   15   16 1
  29   15   39 1
  30   15   40 1
  31   16   17 1
  32   18   19 ar
  33   18   23 ar
  34   19   20 ar
  35   19   41 1
  36   20   21 ar
  37   20   42 1
  38   21   22 ar
  39   21   24 1
  40   22   23 ar
  41   22   43 1
  42   23   44 1
  43   24   25 1
  44   24   45 1
  45   24   46 1
  46   25   26 1
  47   25   47 1
  48   25   48 1
  49   26   27 1
  50   26   49 1
  51   26   50 1
  52   27   51 1
  53   27   52 1
  54   27   53 1
  55   28   29 1
  56   28   54 1
  57   28   55 1
  58   29   56 1
  59   29   57 1
  60   29   58 1

#	End of record

