#	Name: ASD02198398
#	Creating user name:	WinNT
#	Creation time:	15. 06. 2019 20:19

#	Modifying user name:	WinNT
#	Modification time:	15. 06. 2019 20:19

#	Program:	/corina/corina34_cracker 3.40 0067  02.08.2006

@<TRIPOS>MOLECULE
ASD02198398
  38   41    0    0    0
SMALL
NO_CHARGES


@<TRIPOS>ATOM
   1 C1             0.6011    -1.9723    -4.3233 C.2     
   2 C2             1.3610    -3.0080    -3.9131 C.2     
   3 S3             0.9284    -0.5695    -3.3140 S.3     
   4 C4             2.1007    -1.4818    -2.3725 C.2     
   5 C5             2.1823    -2.7313    -2.8411 C.2     
   6 S6             3.0279    -0.8451    -1.0162 S.o2    
   7 N7             4.4901    -0.3468    -1.6129 N.am    
   8 C8             4.5449     0.6739    -2.5611 C.ar    
   9 C9             4.0494     1.9598    -2.2519 C.ar    
  10 C10            4.1184     2.9778    -3.2340 C.ar    
  11 C11            4.6740     2.6955    -4.4922 C.ar    
  12 C12            5.1437     1.4459    -4.7626 C.ar    
  13 C13            5.0881     0.4374    -3.8053 C.ar    
  14 N14            3.5206     2.2248    -1.0544 N.ar    
  15 C15            3.0588     3.4161    -0.7615 C.ar    
  16 C16            3.0954     4.4624    -1.6810 C.ar    
  17 C17            3.6239     4.2592    -2.9237 C.ar    
  18 O18            2.3512     0.3268    -0.5825 O.2     
  19 O19            3.2979    -1.9479    -0.1618 O.2     
  20 C20           -0.3541    -2.0085    -5.4503 C.2     
  21 N21           -0.6201    -3.0326    -6.2269 N.2     
  22 C22           -1.1775    -0.9405    -5.9103 C.2     
  23 C23           -1.8567    -1.4769    -6.9481 C.2     
  24 O24           -1.4490    -2.7495    -7.0604 O.3     
  25 C25            5.6173    -0.9339    -4.1377 C.3     
  26 H26            1.3284    -3.9780    -4.3869 H       
  27 H27            2.8428    -3.4697    -2.4111 H       
  28 H28            5.3085    -0.7651    -1.3028 H       
  29 H29            4.7286     3.4681    -5.2448 H       
  30 H30            5.5694     1.2358    -5.7326 H       
  31 H31            2.6386     3.5911     0.2179 H       
  32 H32            2.7065     5.4331    -1.4111 H       
  33 H33            3.6606     5.0588    -3.6487 H       
  34 H34           -1.2439     0.0643    -5.5198 H       
  35 H35           -2.5890    -0.9781    -7.5657 H       
  36 H36            6.6735    -0.9895    -3.8742 H       
  37 H37            5.0623    -1.6839    -3.5742 H       
  38 H38            5.4988    -1.1202    -5.2051 H       
@<TRIPOS>BOND
   1    1    2 2
   2    1    3 1
   3    1   20 1
   4    2    5 1
   5    2   26 1
   6    3    4 1
   7    4    5 2
   8    4    6 1
   9    5   27 1
  10    6    7 am
  11    6   18 2
  12    6   19 2
  13    7    8 1
  14    7   28 1
  15    8    9 ar
  16    8   13 ar
  17    9   10 ar
  18    9   14 ar
  19   10   11 ar
  20   10   17 ar
  21   11   12 ar
  22   11   29 1
  23   12   13 ar
  24   12   30 1
  25   13   25 1
  26   14   15 ar
  27   15   16 ar
  28   15   31 1
  29   16   17 ar
  30   16   32 1
  31   17   33 1
  32   20   21 2
  33   20   22 1
  34   21   24 1
  35   22   23 2
  36   22   34 1
  37   23   24 1
  38   23   35 1
  39   25   36 1
  40   25   37 1
  41   25   38 1

#	End of record

