#	Name: ASD03092737
#	Creating user name:	WinNT
#	Creation time:	15. 06. 2019 20:33

#	Modifying user name:	WinNT
#	Modification time:	15. 06. 2019 20:33

#	Program:	/corina/corina34_cracker 3.40 0067  02.08.2006

@<TRIPOS>MOLECULE
ASD03092737
  51   53    0    0    0
SMALL
NO_CHARGES


@<TRIPOS>ATOM
   1 C1            -0.0029     1.2038     0.0075 C.2     
   2 O2            -0.6963     1.1940     1.0067 O.2     
   3 C3             2.4961     1.2949     0.0928 C.ar    
   4 C4             1.2607     1.9618    -0.0050 C.ar    
   5 C5             1.2526     3.3558    -0.1148 C.ar    
   6 C6             2.4762     4.0246    -0.1223 C.ar    
   7 C7             3.6566     3.2883    -0.0211 C.ar    
   8 N8             3.6321     1.9752     0.0807 N.ar    
   9 N9             2.5238    -0.0820     0.2078 N.pl3   
  10 C10            3.8051    -0.7922     0.1987 C.3     
  11 C11            3.5560    -2.2952     0.3393 C.3     
  12 C12            4.8942    -3.0370     0.3298 C.3     
  13 C13            2.5221     5.5032    -0.2372 C.ar    
  14 C14            3.7485     6.1653    -0.2441 C.ar    
  15 C15            3.7880     7.5397    -0.3516 C.ar    
  16 C16            2.6078     8.2637    -0.4523 C.ar    
  17 C17            1.3848     7.6070    -0.4453 C.ar    
  18 C18            1.3391     6.2323    -0.3443 C.ar    
  19 O19            2.6498     9.6178    -0.5576 O.3     
  20 C20            1.3981    10.2999    -0.6577 C.3     
  21 C21            1.6453    11.8058    -0.7674 C.3     
  22 C22           -0.4244     0.4512    -1.1909 C.ar    
  23 C23           -1.5649    -0.3583    -1.1477 C.ar    
  24 C24           -1.9531    -1.0599    -2.2738 C.ar    
  25 C25           -1.2172    -0.9634    -3.4401 C.ar    
  26 C26           -0.0861    -0.1632    -3.4900 C.ar    
  27 C27            0.3104     0.5483    -2.3749 C.ar    
  28 F28            0.6269    -0.0750    -4.6341 F       
  29 F29           -2.2845    -0.4543    -0.0083 F       
  30 H30            0.3230     3.9002    -0.1921 H       
  31 H31            4.6059     3.8032    -0.0266 H       
  32 H32            1.6948    -0.5781     0.2945 H       
  33 H33            4.3227    -0.5959    -0.7402 H       
  34 H34            4.4182    -0.4461     1.0308 H       
  35 H35            3.0384    -2.4915     1.2783 H       
  36 H36            2.9429    -2.6413    -0.4928 H       
  37 H37            5.5073    -2.6909     1.1619 H       
  38 H38            4.7168    -4.1078     0.4300 H       
  39 H39            5.4118    -2.8407    -0.6091 H       
  40 H40            4.6669     5.6026    -0.1650 H       
  41 H41            4.7380     8.0533    -0.3569 H       
  42 H42            0.4682     8.1729    -0.5231 H       
  43 H43            0.3875     5.7216    -0.3434 H       
  44 H44            0.8655     9.9537    -1.5434 H       
  45 H45            0.7999    10.0936     0.2298 H       
  46 H46            2.1779    12.1521     0.1184 H       
  47 H47            2.2435    12.0122    -1.6549 H       
  48 H48            0.6905    12.3261    -0.8437 H       
  49 H49           -2.8331    -1.6852    -2.2423 H       
  50 H50           -1.5247    -1.5143    -4.3167 H       
  51 H51            1.1892     1.1747    -2.4168 H       
@<TRIPOS>BOND
   1    1    2 2
   2    1    4 1
   3    1   22 1
   4    3    4 ar
   5    3    8 ar
   6    3    9 1
   7    4    5 ar
   8    5    6 ar
   9    5   30 1
  10    6    7 ar
  11    6   13 1
  12    7    8 ar
  13    7   31 1
  14    9   10 1
  15    9   32 1
  16   10   11 1
  17   10   33 1
  18   10   34 1
  19   11   12 1
  20   11   35 1
  21   11   36 1
  22   12   37 1
  23   12   38 1
  24   12   39 1
  25   13   14 ar
  26   13   18 ar
  27   14   15 ar
  28   14   40 1
  29   15   16 ar
  30   15   41 1
  31   16   17 ar
  32   16   19 1
  33   17   18 ar
  34   17   42 1
  35   18   43 1
  36   19   20 1
  37   20   21 1
  38   20   44 1
  39   20   45 1
  40   21   46 1
  41   21   47 1
  42   21   48 1
  43   22   23 ar
  44   22   27 ar
  45   23   24 ar
  46   23   29 1
  47   24   25 ar
  48   24   49 1
  49   25   26 ar
  50   25   50 1
  51   26   27 ar
  52   26   28 1
  53   27   51 1

#	End of record

