#	Name: ASD01810597
#	Creating user name:	WinNT
#	Creation time:	15. 06. 2019 19:24

#	Modifying user name:	WinNT
#	Modification time:	15. 06. 2019 19:24

#	Program:	/corina/corina34_cracker 3.40 0067  02.08.2006

@<TRIPOS>MOLECULE
ASD01810597
  57   62    0    0    0
SMALL
NO_CHARGES


@<TRIPOS>ATOM
   1 N1            -0.0153     1.2784     0.0091 N.pl3   
   2 N2             0.0021    -0.0041     0.0020 N.2     
   3 C3             1.0992    -0.7158    -0.0123 C.2     
   4 C4             2.4157    -0.0320    -0.0211 C.2     
   5 C5             2.3886     1.4423    -0.0134 C.ar    
   6 C6             3.5452     2.2104    -0.0213 C.ar    
   7 C7             3.4472     3.5872    -0.0144 C.ar    
   8 C8             2.2029     4.1988     0.0009 C.ar    
   9 C9             1.0468     3.4467     0.0089 C.ar    
  10 C10            1.1229     2.0588     0.0024 C.ar    
  11 N11            2.7672    -2.2287    -0.0363 N.am    
  12 N12            3.3335    -0.9515    -0.0348 N.2     
  13 C13            1.4194    -2.1450    -0.0230 C.2     
  14 O14            0.6278    -3.0730    -0.0198 O.2     
  15 C15           -1.3160     1.9525     0.0188 C.3     
  16 C16           -1.7686     2.1913    -1.3987 C.ar    
  17 C17           -2.5272     1.2367    -2.0509 C.ar    
  18 C18           -2.9434     1.4527    -3.3501 C.ar    
  19 C19           -2.5999     2.6300    -4.0009 C.ar    
  20 C20           -1.8385     3.5868    -3.3433 C.ar    
  21 C21           -1.4293     3.3671    -2.0425 C.ar    
  22 N22           -3.0205     2.8520    -5.3196 N.pl3   
  23 N23           -3.7888     1.9769    -6.0983 N.2     
  24 C24           -3.9786     2.5303    -7.2690 C.2     
  25 C25           -3.3383     3.7743    -7.2744 C.2     
  26 C26           -2.7613     3.9512    -6.0632 C.2     
  27 C27            4.4206    -3.5506     1.1916 C.3     
  28 C28            3.5274    -3.4809    -0.0498 C.3     
  29 C29            4.4049    -3.5335    -1.3042 C.3     
  30 C30            5.4193    -2.3868    -1.2528 C.3     
  31 C31            6.2394    -2.4987     0.0351 C.3     
  32 O32            5.3604    -2.4745     1.1616 O.3     
  33 C33            3.5563    -3.4382     2.4490 C.3     
  34 H34            4.5144     1.7341    -0.0325 H       
  35 H35            4.3430     4.1903    -0.0204 H       
  36 H36            2.1383     5.2769     0.0069 H       
  37 H37            0.0838     3.9354     0.0204 H       
  38 H38           -2.0457     1.3266     0.5326 H       
  39 H39           -1.2268     2.9070     0.5374 H       
  40 H40           -2.7941     0.3211    -1.5441 H       
  41 H41           -3.5353     0.7065    -3.8592 H       
  42 H42           -1.5697     4.5035    -3.8470 H       
  43 H43           -0.8402     4.1126    -1.5291 H       
  44 H44           -4.5335     2.1004    -8.0898 H       
  45 H45           -3.3127     4.4721    -8.0984 H       
  46 H46           -2.1939     4.8144    -5.7479 H       
  47 H47            4.9556    -4.5002     1.2017 H       
  48 H48            2.8391    -4.3261    -0.0512 H       
  49 H49            4.9332    -4.4862    -1.3400 H       
  50 H50            3.7800    -3.4280    -2.1910 H       
  51 H51            6.0839    -2.4495    -2.1144 H       
  52 H52            4.8918    -1.4330    -1.2670 H       
  53 H53            6.7981    -3.4346     0.0301 H       
  54 H54            6.9338    -1.6609     0.0978 H       
  55 H55            2.8388    -4.2585     2.4713 H       
  56 H56            4.1923    -3.4878     3.3328 H       
  57 H57            3.0218    -2.4882     2.4389 H       
@<TRIPOS>BOND
   1    1    2 1
   2    1   10 1
   3    1   15 1
   4    2    3 2
   5    3    4 1
   6    3   13 1
   7    4    5 1
   8    4   12 2
   9    5    6 ar
  10    5   10 ar
  11    6    7 ar
  12    6   34 1
  13    7    8 ar
  14    7   35 1
  15    8    9 ar
  16    8   36 1
  17    9   10 ar
  18    9   37 1
  19   11   12 1
  20   11   13 am
  21   11   28 1
  22   13   14 2
  23   15   16 1
  24   15   38 1
  25   15   39 1
  26   16   17 ar
  27   16   21 ar
  28   17   18 ar
  29   17   40 1
  30   18   19 ar
  31   18   41 1
  32   19   20 ar
  33   19   22 1
  34   20   21 ar
  35   20   42 1
  36   21   43 1
  37   22   23 1
  38   22   26 1
  39   23   24 2
  40   24   25 1
  41   24   44 1
  42   25   26 2
  43   25   45 1
  44   26   46 1
  45   27   28 1
  46   27   32 1
  47   27   33 1
  48   27   47 1
  49   28   29 1
  50   28   48 1
  51   29   30 1
  52   29   49 1
  53   29   50 1
  54   30   31 1
  55   30   51 1
  56   30   52 1
  57   31   32 1
  58   31   53 1
  59   31   54 1
  60   33   55 1
  61   33   56 1
  62   33   57 1

#	End of record

