#	Name: ASD00170060
#	Creating user name:	WinNT
#	Creation time:	15. 06. 2019 18:31

#	Modifying user name:	WinNT
#	Modification time:	15. 06. 2019 18:31

#	Program:	/corina/corina34_cracker 3.40 0067  02.08.2006

@<TRIPOS>MOLECULE
ASD00170060
  38   38    0    0    0
SMALL
NO_CHARGES


@<TRIPOS>ATOM
   1 C1             3.3331     1.4449    -3.6810 C.ar    
   2 C2             3.3713     0.0603    -3.6905 C.ar    
   3 C3             3.5101    -0.6424    -2.5049 C.ar    
   4 C4             3.6106     0.0336    -1.3073 C.ar    
   5 C5             3.5727     1.4292    -1.2913 C.ar    
   6 C6             3.4331     2.1320    -2.4896 C.ar    
   7 Cl7            3.2442    -0.7978    -5.1943 Cl      
   8 C8             4.9696     4.3203    -0.0729 C.2     
   9 C9             3.7612     3.6215    -0.0062 C.2     
  10 C10            3.6794     2.1599    -0.0104 C.2     
  11 O11            3.6994     1.5460     1.0410 O.2     
  12 C12            4.8242     5.6547    -0.0499 C.2     
  13 S13            3.1230     6.0791     0.0512 S.3     
  14 C14            2.6531     4.4394     0.0645 C.2     
  15 N15            1.3509     3.9951     0.1353 N.pl3   
  16 C16            5.9015     6.5967    -0.0998 C.1     
  17 C17            6.7848     7.3690    -0.1407 C.1     
  18 *18            7.9585     8.3952    -0.1950 Du      
  19 C19            6.3113     3.6393    -0.1565 C.3     
  20 H20            3.2293     1.9876    -4.6090 H       
  21 H21            3.5392    -1.7219    -2.5185 H       
  22 H22            3.7180    -0.5154    -0.3834 H       
  23 H23            3.4035     3.2116    -2.4835 H       
  24 H24            0.6279     4.6298     0.2587 H       
  25 H25            1.1571     3.0475     0.0618 H       
  26 H26            6.5743     3.4818    -1.2025 H       
  27 H27            7.0668     4.2657     0.3178 H       
  28 H28            6.2633     2.6779     0.3548 H       
  29 C29           15.6566    16.5211     6.9673 C.3     
  30 C30           15.6771    15.0143     6.9590 C.2     
  31 C31           14.5542    14.3454     6.9661 C.1     
  32 C32           13.4313    13.6766     6.9733 C.2     
  33 H33           16.6792    16.8984     6.9596 H       
  34 H34           15.1295    16.8822     6.0842 H       
  35 H35           15.1465    16.8726     7.8641 H       
  36 H36           16.6196    14.4871     6.9472 H       
  37 H37           12.9763    13.3952     7.9115 H       
  38 H38           12.9585    13.4053     6.0410 H       
@<TRIPOS>BOND
   1    1    2 ar
   2    1    6 ar
   3    1   20 1
   4    2    3 ar
   5    2    7 1
   6    3    4 ar
   7    3   21 1
   8    4    5 ar
   9    4   22 1
  10    5    6 ar
  11    5   10 1
  12    6   23 1
  13    8   19 1
  14    8    9 1
  15    8   12 2
  16    9   10 1
  17    9   14 2
  18   10   11 2
  19   12   13 1
  20   12   16 1
  21   13   14 1
  22   14   15 1
  23   15   24 1
  24   15   25 1
  25   16   17 3
  26   17   18 1
  27   19   26 1
  28   19   27 1
  29   19   28 1
  30   29   30 1
  31   29   33 1
  32   29   34 1
  33   29   35 1
  34   30   31 2
  35   30   36 1
  36   31   32 2
  37   32   37 1
  38   32   38 1

#	End of record

