#	Name: ASD02398031
#	Creating user name:	WinNT
#	Creation time:	15. 06. 2019 20:20

#	Modifying user name:	WinNT
#	Modification time:	15. 06. 2019 20:20

#	Program:	/corina/corina34_cracker 3.40 0067  02.08.2006

@<TRIPOS>MOLECULE
ASD02398031
  65   68    0    0    0
SMALL
NO_CHARGES


@<TRIPOS>ATOM
   1 C1            -0.2379     1.3629    -0.0534 C.ar    
   2 C2             0.0577    -0.0018    -0.1282 C.ar    
   3 C3            -0.9745    -0.9352    -0.0769 C.ar    
   4 C4            -2.2821    -0.5101     0.0473 C.ar    
   5 C5            -2.5714     0.8408     0.1210 C.ar    
   6 C6            -1.5541     1.7755     0.0763 C.ar    
   7 C7            -3.3983    -1.5211     0.1022 C.3     
   8 C8            -3.5827    -1.9891     1.5227 C.2     
   9 O9            -2.8204    -1.6197     2.3843 O.2     
  10 O10           -4.5939    -2.8163     1.8309 O.3     
  11 C11            1.4643    -0.4532    -0.2620 C.ar    
  12 C12            2.3603    -0.2716     0.7901 C.ar    
  13 C13            1.8933    -1.0655    -1.4378 C.ar    
  14 C14            3.2033    -1.4840    -1.5567 C.ar    
  15 C15            4.0894    -1.2966    -0.5114 C.ar    
  16 C16            3.6676    -0.6939     0.6603 C.ar    
  17 C17            1.9024     0.3851     2.0669 C.3     
  18 N18            2.9776     0.3242     3.0602 N.am    
  19 C19            3.9920     1.1936     3.1649 C.2     
  20 O20            4.8427     0.9152     4.1589 O.3     
  21 C21            4.4010    -0.2868     4.8540 C.3     
  22 C22            3.1161    -0.6975     4.1093 C.3     
  23 O23            4.1269     2.1474     2.4242 O.2     
  24 C24            3.2783    -2.0835     3.4819 C.3     
  25 C25            5.4446    -1.3692     4.7528 C.ar    
  26 C26            5.6017    -2.2765     5.7839 C.ar    
  27 C27            6.2410    -1.4584     3.6264 C.ar    
  28 C28            7.1982    -2.4513     3.5335 C.ar    
  29 C29            7.3594    -3.3548     4.5672 C.ar    
  30 C30            6.5589    -3.2694     5.6910 C.ar    
  31 O31            0.7625     2.2807    -0.1021 O.3     
  32 C32            0.3851     3.6566    -0.0202 C.3     
  33 C33           -4.7796    -3.1358     3.2351 C.3     
  34 C34            1.5893     4.5005    -0.0885 C.1     
  35 N35            2.5185     5.1518    -0.1412 N.1     
  36 C36            5.5182    -1.7561    -0.6470 C.3     
  37 F37            5.7042    -2.3355    -1.9067 F       
  38 F38            6.3760    -0.6598    -0.5068 F       
  39 F39            5.8009    -2.6995     0.3466 F       
  40 C40           -5.8528    -4.1338     3.3734 C.1     
  41 N41           -6.6810    -4.9039     3.4802 N.1     
  42 H42           -0.7524    -1.9905    -0.1345 H       
  43 H43           -3.5966     1.1664     0.2181 H       
  44 H44           -1.7861     2.8286     0.1344 H       
  45 H45           -4.3215    -1.0626    -0.2521 H       
  46 H46           -3.1489    -2.3723    -0.5313 H       
  47 H47            1.2022    -1.2127    -2.2545 H       
  48 H48            3.5369    -1.9591    -2.4674 H       
  49 H49            4.3638    -0.5500     1.4733 H       
  50 H50            1.6490     1.4266     1.8691 H       
  51 H51            1.0247    -0.1361     2.4491 H       
  52 H52            4.1794    -0.0648     5.8979 H       
  53 H53            2.2601    -0.6792     4.7838 H       
  54 H54            3.5113    -2.8097     4.2605 H       
  55 H55            2.3507    -2.3682     2.9852 H       
  56 H56            4.0883    -2.0598     2.7529 H       
  57 H57            4.9767    -2.2094     6.6621 H       
  58 H58            6.1150    -0.7525     2.8188 H       
  59 H59            7.8199    -2.5214     2.6532 H       
  60 H60            8.1070    -4.1308     4.4945 H       
  61 H61            6.6848    -3.9753     6.4986 H       
  62 H62           -0.2778     3.9016    -0.8500 H       
  63 H63           -0.1314     3.8361     0.9227 H       
  64 H64           -3.8526    -3.5405     3.6413 H       
  65 H65           -5.0513    -2.2321     3.7805 H       
@<TRIPOS>BOND
   1    1    2 ar
   2    1   31 1
   3    1    6 ar
   4    2    3 ar
   5    2   11 1
   6    3    4 ar
   7    3   42 1
   8    4    5 ar
   9    4    7 1
  10    5    6 ar
  11    5   43 1
  12    6   44 1
  13    7    8 1
  14    7   45 1
  15    7   46 1
  16    8    9 2
  17    8   10 1
  18   10   33 1
  19   11   12 ar
  20   11   13 ar
  21   12   17 1
  22   12   16 ar
  23   13   14 ar
  24   13   47 1
  25   14   15 ar
  26   14   48 1
  27   15   16 ar
  28   15   36 1
  29   16   49 1
  30   17   18 1
  31   17   50 1
  32   17   51 1
  33   18   19 am
  34   18   22 1
  35   19   20 1
  36   19   23 2
  37   20   21 1
  38   21   22 1
  39   21   25 1
  40   21   52 1
  41   22   24 1
  42   22   53 1
  43   24   54 1
  44   24   55 1
  45   24   56 1
  46   25   26 ar
  47   25   27 ar
  48   26   30 ar
  49   26   57 1
  50   27   28 ar
  51   27   58 1
  52   28   29 ar
  53   28   59 1
  54   29   30 ar
  55   29   60 1
  56   30   61 1
  57   31   32 1
  58   32   34 1
  59   32   62 1
  60   32   63 1
  61   33   40 1
  62   33   64 1
  63   33   65 1
  64   34   35 3
  65   36   37 1
  66   36   38 1
  67   36   39 1
  68   40   41 3

#	End of record

