#	Name: ASD01914243
#	Creating user name:	WinNT
#	Creation time:	15. 06. 2019 20:03

#	Modifying user name:	WinNT
#	Modification time:	15. 06. 2019 20:03

#	Program:	/corina/corina34_cracker 3.40 0067  02.08.2006

@<TRIPOS>MOLECULE
ASD01914243
  31   32    0    0    0
SMALL
NO_CHARGES


@<TRIPOS>ATOM
   1 N1            -0.0169     1.3965     0.0097 N.2     
   2 N2             0.0021    -0.0041     0.0020 N.pl3   
   3 C3             1.2284     1.8226     0.0001 C.2     
   4 C4             2.0722     0.6950    -0.0140 C.2     
   5 C5             1.2909    -0.4070    -0.0125 C.2     
   6 C6             1.7727    -1.8348    -0.0243 C.3     
   7 C7             1.6661     3.2408     0.0036 C.ar    
   8 C8             0.7202     4.2638     0.0186 C.ar    
   9 C9             1.1315     5.5809     0.0217 C.ar    
  10 C10            2.4827     5.8868     0.0099 C.ar    
  11 C11            3.4265     4.8727    -0.0056 C.ar    
  12 C12            3.0240     3.5528    -0.0025 C.ar    
  13 C13            2.0682    -2.2852     1.4078 C.3     
  14 C14            4.8948     5.2115    -0.0189 C.3     
  15 F15            2.8811     7.1777     0.0130 F       
  16 C16            0.1094     6.6882     0.0375 C.3     
  17 H17           -0.7755    -0.5839     0.0068 H       
  18 H18            3.1521     0.7089    -0.0246 H       
  19 H19            1.0024    -2.4747    -0.4548 H       
  20 H20            2.6810    -1.9068    -0.6225 H       
  21 H21           -0.3333     4.0262     0.0275 H       
  22 H22            3.7603     2.7629    -0.0141 H       
  23 H23            2.4167    -3.3180     1.3992 H       
  24 H24            2.8385    -1.6454     1.8383 H       
  25 H25            1.1599    -2.2132     2.0060 H       
  26 H26            5.2595     5.2874     1.0055 H       
  27 H27            5.4435     4.4289    -0.5428 H       
  28 H28            5.0435     6.1632    -0.5290 H       
  29 H29           -0.1271     6.9497     1.0689 H       
  30 H30            0.5120     7.5616    -0.4756 H       
  31 H31           -0.7959     6.3543    -0.4695 H       
@<TRIPOS>BOND
   1    1    2 1
   2    1    3 2
   3    2    5 1
   4    2   17 1
   5    3    4 1
   6    3    7 1
   7    4    5 2
   8    4   18 1
   9    5    6 1
  10    6   13 1
  11    6   19 1
  12    6   20 1
  13    7    8 ar
  14    7   12 ar
  15    8    9 ar
  16    8   21 1
  17    9   10 ar
  18    9   16 1
  19   10   11 ar
  20   10   15 1
  21   11   12 ar
  22   11   14 1
  23   12   22 1
  24   13   23 1
  25   13   24 1
  26   13   25 1
  27   14   26 1
  28   14   27 1
  29   14   28 1
  30   16   29 1
  31   16   30 1
  32   16   31 1

#	End of record

