#	Name: ASD01912968
#	Creating user name:	WinNT
#	Creation time:	15. 06. 2019 20:00

#	Modifying user name:	WinNT
#	Modification time:	15. 06. 2019 20:00

#	Program:	/corina/corina34_cracker 3.40 0067  02.08.2006

@<TRIPOS>MOLECULE
ASD01912968
  47   50    0    0    0
SMALL
NO_CHARGES


@<TRIPOS>ATOM
   1 C1            -0.0173     1.4278     0.0099 C.2     
   2 C2             0.0021    -0.0041     0.0020 C.1     
   3 C3             0.0180    -1.1779    -0.0044 C.1     
   4 C4             0.0374    -2.6098    -0.0123 C.ar    
   5 C5            -1.1616    -3.3287    -0.0047 C.ar    
   6 C6             1.2554    -3.2957    -0.0335 C.ar    
   7 C7             1.2660    -4.6747    -0.0414 C.ar    
   8 C8             0.0750    -5.3794    -0.0290 C.ar    
   9 C9            -1.1348    -4.7074    -0.0129 C.ar    
  10 N10            1.0315     2.1979     0.0040 N.2     
  11 C11            0.8407     3.5060     0.0143 C.2     
  12 C12           -0.4581     3.8737     0.0242 C.2     
  13 S13           -1.4644     2.4309     0.0214 S.3     
  14 C14            1.9819     4.5147     0.0224 C.3     
  15 C15            1.4544     5.8740    -0.4410 C.3     
  16 N16            0.2053     6.1747     0.2746 N.am    
  17 C17           -0.9550     5.3022     0.0266 C.3     
  18 C18            0.1251     7.2137     1.1292 C.2     
  19 C19           -1.1676     7.4991     1.8493 C.3     
  20 O20            1.0933     7.9191     1.3187 O.2     
  21 C21           -0.9897     8.7221     2.7512 C.3     
  22 C22           -2.3022     9.0119     3.4823 C.3     
  23 C23           -3.4055     9.2888     2.4592 C.3     
  24 C24           -3.5834     8.0658     1.5572 C.3     
  25 C25           -2.2709     7.7761     0.8261 C.3     
  26 H26           -2.1064    -2.8056     0.0078 H       
  27 H27            2.1856    -2.7471    -0.0439 H       
  28 H28            2.2061    -5.2060    -0.0578 H       
  29 H29            0.0896    -6.4593    -0.0360 H       
  30 H30           -2.0601    -5.2642    -0.0032 H       
  31 H31            2.3817     4.6043     1.0324 H       
  32 H32            2.7688     4.1798    -0.6534 H       
  33 H33            2.1935     6.6451    -0.2238 H       
  34 H34            1.2618     5.8439    -1.5134 H       
  35 H35           -1.3981     5.5415    -0.9401 H       
  36 H36           -1.6940     5.4358     0.8166 H       
  37 H37           -1.4433     6.6369     2.4565 H       
  38 H38           -0.2037     8.5248     3.4801 H       
  39 H39           -0.7141     9.5844     2.1440 H       
  40 H40           -2.5778     8.1497     4.0895 H       
  41 H41           -2.1754     9.8832     4.1248 H       
  42 H42           -4.3405     9.4952     2.9800 H       
  43 H43           -3.1298    10.1511     1.8520 H       
  44 H44           -3.8590     7.2036     2.1644 H       
  45 H45           -4.3694     8.2631     0.8283 H       
  46 H46           -1.9953     8.6383     0.2189 H       
  47 H47           -2.3977     6.9048     0.1836 H       
@<TRIPOS>BOND
   1    1    2 1
   2    1   10 2
   3    1   13 1
   4    2    3 3
   5    3    4 1
   6    4    5 ar
   7    4    6 ar
   8    5    9 ar
   9    5   26 1
  10    6    7 ar
  11    6   27 1
  12    7    8 ar
  13    7   28 1
  14    8    9 ar
  15    8   29 1
  16    9   30 1
  17   10   11 1
  18   11   12 2
  19   11   14 1
  20   12   13 1
  21   12   17 1
  22   14   15 1
  23   14   31 1
  24   14   32 1
  25   15   16 1
  26   15   33 1
  27   15   34 1
  28   16   17 1
  29   16   18 am
  30   17   35 1
  31   17   36 1
  32   18   19 1
  33   18   20 2
  34   19   21 1
  35   19   25 1
  36   19   37 1
  37   21   22 1
  38   21   38 1
  39   21   39 1
  40   22   23 1
  41   22   40 1
  42   22   41 1
  43   23   24 1
  44   23   42 1
  45   23   43 1
  46   24   25 1
  47   24   44 1
  48   24   45 1
  49   25   46 1
  50   25   47 1

#	End of record

