#	Name: ASD00170175
#	Creating user name:	WinNT
#	Creation time:	15. 06. 2019 18:31

#	Modifying user name:	WinNT
#	Modification time:	15. 06. 2019 18:31

#	Program:	/corina/corina34_cracker 3.40 0067  02.08.2006

@<TRIPOS>MOLECULE
ASD00170175
  33   35    0    0    0
SMALL
NO_CHARGES


@<TRIPOS>ATOM
   1 C1             0.0144     1.3184    -0.0540 C.2     
   2 C2             0.0204    -0.0181    -0.0720 C.2     
   3 C3            -1.3169    -0.5800     0.0132 C.2     
   4 C4            -2.3000     0.3732     0.0942 C.2     
   5 S5            -1.6254     1.9359     0.0606 S.3     
   6 C6             1.2608     2.1798    -0.1294 C.3     
   7 C7             2.4800     1.3110     0.1911 C.3     
   8 C8             2.4281     0.0422    -0.6652 C.3     
   9 C9             1.2885    -0.8513    -0.1703 C.3     
  10 N10           -3.6502     0.1027     0.1843 N.pl3   
  11 C11           -1.5875    -2.0172     0.0128 C.2     
  12 C12           -1.8377    -2.7223    -1.2634 C.ar    
  13 O13           -1.6068    -2.6335     1.0628 O.2     
  14 C14           -1.9789    -4.1108    -1.2810 C.ar    
  15 C15           -2.2126    -4.7622    -2.4744 C.ar    
  16 C16           -2.3067    -4.0422    -3.6522 C.ar    
  17 C17           -2.1673    -2.6657    -3.6417 C.ar    
  18 C18           -1.9395    -2.0015    -2.4542 C.ar    
  19 H19            1.3598     2.5923    -1.1335 H       
  20 H20            1.1891     2.9906     0.5956 H       
  21 H21            3.3916     1.8651    -0.0329 H       
  22 H22            2.4669     1.0394     1.2466 H       
  23 H23            2.2531     0.3124    -1.7066 H       
  24 H24            3.3737    -0.4933    -0.5808 H       
  25 H25            1.5390    -1.2527     0.8116 H       
  26 H26            1.1343    -1.6698    -0.8734 H       
  27 H27           -3.9672    -0.8116     0.1181 H       
  28 H28           -4.2824     0.8270     0.3138 H       
  29 H29           -1.9049    -4.6740    -0.3625 H       
  30 H30           -2.3220    -5.8366    -2.4894 H       
  31 H31           -2.4894    -4.5570    -4.5839 H       
  32 H32           -2.2415    -2.1095    -4.5645 H       
  33 H33           -1.8309    -0.9270    -2.4473 H       
@<TRIPOS>BOND
   1    1    2 2
   2    1    6 1
   3    1    5 1
   4    2    3 1
   5    2    9 1
   6    3    4 2
   7    3   11 1
   8    4    5 1
   9    4   10 1
  10    6    7 1
  11    6   19 1
  12    6   20 1
  13    7    8 1
  14    7   21 1
  15    7   22 1
  16    8    9 1
  17    8   23 1
  18    8   24 1
  19    9   25 1
  20    9   26 1
  21   10   27 1
  22   10   28 1
  23   11   12 1
  24   11   13 2
  25   12   14 ar
  26   12   18 ar
  27   14   15 ar
  28   14   29 1
  29   15   16 ar
  30   15   30 1
  31   16   17 ar
  32   16   31 1
  33   17   18 ar
  34   17   32 1
  35   18   33 1

#	End of record

