#	Name: ASD01884304
#	Creating user name:	WinNT
#	Creation time:	15. 06. 2019 19:47

#	Modifying user name:	WinNT
#	Modification time:	15. 06. 2019 19:47

#	Program:	/corina/corina34_cracker 3.40 0067  02.08.2006

@<TRIPOS>MOLECULE
ASD01884304
  30   31    0    0    0
SMALL
NO_CHARGES


@<TRIPOS>ATOM
   1 C1            -0.0412     1.3276    -0.3150 C.ar    
   2 N2            -0.0313     0.0135    -0.4216 N.ar    
   3 C3            -1.1344    -0.7003    -0.3130 C.ar    
   4 C4            -2.3558    -0.0848    -0.0807 C.ar    
   5 C5            -2.4025     1.3010     0.0372 C.ar    
   6 C6            -1.2190     2.0117    -0.0775 C.ar    
   7 C7            -5.1731     0.1432     1.4050 C.ar    
   8 C8            -4.6727    -0.1655     0.1481 C.ar    
   9 C9            -5.3810     0.2003    -0.9874 C.ar    
  10 C10           -6.5841     0.8717    -0.8637 C.ar    
  11 C11           -7.0803     1.1784     0.3927 C.ar    
  12 C12           -6.3749     0.8142     1.5242 C.ar    
  13 C13           -1.0679    -2.2002    -0.4431 C.3     
  14 O14           -3.4904    -0.8246     0.0296 O.3     
  15 C15            1.2497     2.0939    -0.4476 C.3     
  16 F16           -7.2751     1.2286    -1.9684 F       
  17 N17           -8.3673     1.8977     0.5238 N.pl3   
  18 O18           -8.8043     2.1679     1.6281 O.2     
  19 O19           -8.9894     2.2194    -0.4728 O.2     
  20 H20           -3.3380     1.8096     0.2177 H       
  21 H21           -1.2176     3.0883     0.0087 H       
  22 H22           -4.6251    -0.1447     2.2900 H       
  23 H23           -4.9933    -0.0386    -1.9667 H       
  24 H24           -6.7639     1.0542     2.5027 H       
  25 H25           -0.8996    -2.6429     0.5387 H       
  26 H26           -2.0072    -2.5714    -0.8529 H       
  27 H27           -0.2486    -2.4712    -1.1090 H       
  28 H28            1.4087     2.3597    -1.4926 H       
  29 H29            1.1971     3.0012     0.1542 H       
  30 H30            2.0770     1.4749    -0.1002 H       
@<TRIPOS>BOND
   1    1    2 ar
   2    1   15 1
   3    1    6 ar
   4    2    3 ar
   5    3    4 ar
   6    3   13 1
   7    4    5 ar
   8    4   14 1
   9    5    6 ar
  10    5   20 1
  11    6   21 1
  12    7    8 ar
  13    7   12 ar
  14    7   22 1
  15    8    9 ar
  16    8   14 1
  17    9   10 ar
  18    9   23 1
  19   10   11 ar
  20   10   16 1
  21   11   12 ar
  22   11   17 1
  23   12   24 1
  24   13   25 1
  25   13   26 1
  26   13   27 1
  27   15   28 1
  28   15   29 1
  29   15   30 1
  30   17   18 2
  31   17   19 2

#	End of record

