#	Name: ASD03090705
#	Creating user name:	WinNT
#	Creation time:	15. 06. 2019 20:29

#	Modifying user name:	WinNT
#	Modification time:	15. 06. 2019 20:29

#	Program:	/corina/corina34_cracker 3.40 0067  02.08.2006

@<TRIPOS>MOLECULE
ASD03090705
  32   33    0    0    0
SMALL
NO_CHARGES


@<TRIPOS>ATOM
   1 N1            -0.0162     1.3436     0.0094 N.am    
   2 C2             0.0192     0.1476     0.6299 C.2     
   3 O3             1.0726    -0.2854     1.0556 O.2     
   4 N4            -1.1130    -0.5683     0.7784 N.am    
   5 O5            -1.7398    -3.6105     2.2175 O.3     
   6 N6            -2.0861    -2.6082     1.6366 N.2     
   7 C7            -1.0763    -1.8059     1.4206 C.2     
   8 C8             0.0645    -2.4471     1.9700 C.2     
   9 C9            -0.4227    -3.6076     2.4707 C.2     
  10 Cl10           0.4808    -4.8484     3.2817 Cl      
  11 C11            1.1454     2.1273    -0.0707 C.ar    
  12 C12            1.0454     3.5106    -0.1992 C.ar    
  13 C13            2.1931     4.2817    -0.2775 C.ar    
  14 C14            3.4397     3.6758    -0.2280 C.ar    
  15 C15            3.5380     2.2975    -0.1004 C.ar    
  16 C16            2.3935     1.5256    -0.0162 C.ar    
  17 O17            4.5667     4.4330    -0.3049 O.3     
  18 C18            4.3917     5.8453    -0.4357 C.3     
  19 O19           -0.1776     4.1033    -0.2480 O.3     
  20 C20           -0.2044     5.5259    -0.3806 C.3     
  21 Cl21           5.0997     1.5417    -0.0392 Cl      
  22 H22           -0.8435     1.6609    -0.3853 H       
  23 H23           -1.9533    -0.2228     0.4388 H       
  24 H24            1.0844    -2.0921     1.9852 H       
  25 H25            2.1174     5.3544    -0.3775 H       
  26 H26            2.4718     0.4535     0.0879 H       
  27 H27            3.8323     6.0593    -1.3464 H       
  28 H28            3.8422     6.2246     0.4259 H       
  29 H29            5.3671     6.3291    -0.4863 H       
  30 H30            0.3072     5.9795     0.4683 H       
  31 H31            0.2980     5.8143    -1.3039 H       
  32 H32           -1.2386     5.8689    -0.4071 H       
@<TRIPOS>BOND
   1    1    2 am
   2    1   11 1
   3    1   22 1
   4    2    3 2
   5    2    4 am
   6    4    7 1
   7    4   23 1
   8    5    6 1
   9    5    9 1
  10    6    7 2
  11    7    8 1
  12    8    9 2
  13    8   24 1
  14    9   10 1
  15   11   12 ar
  16   11   16 ar
  17   12   13 ar
  18   12   19 1
  19   13   14 ar
  20   13   25 1
  21   14   15 ar
  22   14   17 1
  23   15   16 ar
  24   15   21 1
  25   16   26 1
  26   17   18 1
  27   18   27 1
  28   18   28 1
  29   18   29 1
  30   19   20 1
  31   20   30 1
  32   20   31 1
  33   20   32 1

#	End of record

