#	Name: ASD03092917
#	Creating user name:	WinNT
#	Creation time:	15. 06. 2019 20:33

#	Modifying user name:	WinNT
#	Modification time:	15. 06. 2019 20:33

#	Program:	/corina/corina34_cracker 3.40 0067  02.08.2006

@<TRIPOS>MOLECULE
ASD03092917
  55   57    0    0    0
SMALL
NO_CHARGES


@<TRIPOS>ATOM
   1 C1             0.3782    -0.8463     0.1704 C.3     
   2 C2             0.3361    -0.4420    -1.3046 C.3     
   3 C3             1.4927    -1.1110    -2.0500 C.3     
   4 C4            -0.9924    -0.8888    -1.9181 C.3     
   5 C5            -2.1246    -0.1376    -1.2664 C.2     
   6 O6            -1.8869     0.7469    -0.4697 O.2     
   7 C7            -3.5092    -0.4740    -1.5936 C.2     
   8 C8            -4.3689    -1.3278    -0.8566 C.2     
   9 C9            -4.0234    -2.0595     0.4148 C.3     
  10 C10           -5.5604    -1.3644    -1.5061 C.2     
  11 C11           -6.7477    -2.1361    -1.0810 C.ar    
  12 C12           -8.0122    -1.5456    -1.1039 C.ar    
  13 C13           -9.1162    -2.2706    -0.7061 C.ar    
  14 C14           -8.9718    -3.5818    -0.2847 C.ar    
  15 Cl15         -10.3659    -4.4879     0.2144 Cl      
  16 C16           -7.7200    -4.1732    -0.2603 C.ar    
  17 C17           -6.6093    -3.4599    -0.6608 C.ar    
  18 N18           -5.4836    -0.5671    -2.6226 N.pl3   
  19 C19           -6.5664    -0.3454    -3.5842 C.3     
  20 C20           -4.2423    -0.0116    -2.6894 C.2     
  21 C21           -3.7573     0.9104    -3.7336 C.ar    
  22 C22           -3.0321     2.0514    -3.3806 C.ar    
  23 C23           -2.5807     2.9098    -4.3615 C.ar    
  24 C24           -2.8438     2.6441    -5.6933 C.ar    
  25 C25           -3.5625     1.5143    -6.0523 C.ar    
  26 F26           -3.8154     1.2618    -7.3552 F       
  27 C27           -4.0159     0.6437    -5.0806 C.ar    
  28 S28           -2.2633     3.7468    -6.9389 S.o2    
  29 N29           -1.1544     2.9190    -7.8485 N.am    
  30 O30           -3.3694     4.0059    -7.7926 O.2     
  31 O31           -1.5451     4.7711    -6.2650 O.2     
  32 H32            1.3247    -0.5280     0.6075 H       
  33 H33           -0.4458    -0.3697     0.7015 H       
  34 H34            0.2858    -1.9293     0.2531 H       
  35 H35            0.4286     0.6409    -1.3873 H       
  36 H36            1.4003    -2.1939    -1.9673 H       
  37 H37            1.4627    -0.8229    -3.1008 H       
  38 H38            2.4392    -0.7927    -1.6129 H       
  39 H39           -0.9866    -0.6807    -2.9881 H       
  40 H40           -1.1256    -1.9585    -1.7567 H       
  41 H41           -4.1819    -1.4001     1.2681 H       
  42 H42           -4.6597    -2.9391     0.5122 H       
  43 H43           -2.9785    -2.3686     0.3836 H       
  44 H44           -8.1260    -0.5230    -1.4320 H       
  45 H45          -10.0951    -1.8147    -0.7230 H       
  46 H46           -7.6136    -5.1962     0.0690 H       
  47 H47           -5.6340    -3.9235    -0.6453 H       
  48 H48           -7.1605     0.5130    -3.2709 H       
  49 H49           -6.1431    -0.1539    -4.5702 H       
  50 H50           -7.2012    -1.2305    -3.6270 H       
  51 H51           -2.8258     2.2612    -2.3414 H       
  52 H52           -2.0205     3.7920    -4.0889 H       
  53 H53           -4.5722    -0.2385    -5.3609 H       
  54 H54           -0.9451     1.9960    -7.6361 H       
  55 H55           -0.7143     3.3571    -8.5936 H       
@<TRIPOS>BOND
   1    1    2 1
   2    1   32 1
   3    1   33 1
   4    1   34 1
   5    2    3 1
   6    2    4 1
   7    2   35 1
   8    3   36 1
   9    3   37 1
  10    3   38 1
  11    4    5 1
  12    4   39 1
  13    4   40 1
  14    5    6 2
  15    5    7 1
  16    7   20 2
  17    7    8 1
  18    8    9 1
  19    8   10 2
  20    9   41 1
  21    9   42 1
  22    9   43 1
  23   10   11 1
  24   10   18 1
  25   11   17 ar
  26   11   12 ar
  27   12   13 ar
  28   12   44 1
  29   13   14 ar
  30   13   45 1
  31   14   15 1
  32   14   16 ar
  33   16   17 ar
  34   16   46 1
  35   17   47 1
  36   18   19 1
  37   18   20 1
  38   19   48 1
  39   19   49 1
  40   19   50 1
  41   20   21 1
  42   21   27 ar
  43   21   22 ar
  44   22   23 ar
  45   22   51 1
  46   23   24 ar
  47   23   52 1
  48   24   25 ar
  49   24   28 1
  50   25   26 1
  51   25   27 ar
  52   27   53 1
  53   28   29 am
  54   28   30 2
  55   28   31 2
  56   29   54 1
  57   29   55 1

#	End of record

