#	Name: ASD08150967
#	Creating user name:	WinNT
#	Creation time:	15. 06. 2019 21:16

#	Modifying user name:	WinNT
#	Modification time:	15. 06. 2019 21:16

#	Program:	/corina/corina34_cracker 3.40 0067  02.08.2006

@<TRIPOS>MOLECULE
ASD08150967
  62   67    0    0    0
SMALL
NO_CHARGES


@<TRIPOS>ATOM
   1 N1             1.5718     0.7737    -0.9022 N.2     
   2 C2             1.7767    -0.5114    -0.9185 C.2     
   3 N3             3.1072    -0.7728    -0.7789 N.pl3   
   4 C4             3.7540     0.4324    -0.6707 C.ar    
   5 N5             5.0197     0.8079    -0.5195 N.ar    
   6 C6             5.3369     2.0835    -0.4460 C.ar    
   7 N7             4.4334     3.0438    -0.5166 N.ar    
   8 C8             3.1427     2.7647    -0.6678 C.ar    
   9 C9             2.7546     1.4169    -0.7517 C.ar    
  10 N10            2.2030     3.7780    -0.7403 N.pl3   
  11 C11            2.6265     5.1776    -0.6504 C.3     
  12 C12            3.1214     5.6496    -2.0191 C.3     
  13 N13            0.7843     9.1065     1.5956 N.ar    
  14 C14           -0.2267     9.8500     1.9747 C.ar    
  15 C15           -1.5428     9.5045     1.6754 C.ar    
  16 C16           -1.8045     8.3650     0.9694 C.ar    
  17 C17           -0.7159     7.5696     0.5644 C.ar    
  18 C18           -0.9093     6.3844    -0.1650 C.ar    
  19 C19            0.1656     5.6364    -0.5429 C.ar    
  20 C20            1.4605     6.0284    -0.2171 C.ar    
  21 C21            1.6902     7.1842     0.4969 C.ar    
  22 C22            0.5968     7.9801     0.9026 C.ar    
  23 N23            2.9937     7.5650     0.8172 N.3     
  24 C24            3.1940     7.5847     2.2723 C.3     
  25 C25            4.6758     7.8287     2.5774 C.3     
  26 N26            5.1030     9.0478     1.8743 N.am    
  27 C27            4.8126     9.1601     0.4368 C.3     
  28 C28            3.3255     8.8637     0.2160 C.3     
  29 C29            5.7431    10.0362     2.5300 C.2     
  30 C30            6.0817    11.2902     1.8271 C.ar    
  31 C31            5.6923    12.5226     2.3615 C.ar    
  32 C32            6.0140    13.6918     1.6970 C.ar    
  33 C33            6.7181    13.6429     0.5083 C.ar    
  34 C34            7.1060    12.4259    -0.0250 C.ar    
  35 C35            6.7972    11.2516     0.6287 C.ar    
  36 O36            6.0419     9.8954     3.7000 O.2     
  37 F37            5.0038    12.5706     3.5229 F       
  38 Cl38          -2.5146     5.8732    -0.5835 Cl      
  39 H39            1.0060    -1.2604    -1.0263 H       
  40 H40            3.5209    -1.6499    -0.7594 H       
  41 H41            6.3751     2.3546    -0.3231 H       
  42 H42            1.2639     3.5616    -0.8507 H       
  43 H43            3.4323     5.2673     0.0781 H       
  44 H44            2.3456     5.4777    -2.7651 H       
  45 H45            3.3532     6.7137    -1.9745 H       
  46 H46            4.0182     5.0936    -2.2927 H       
  47 H47           -0.0344    10.7537     2.5339 H       
  48 H48           -2.3553    10.1369     2.0016 H       
  49 H49           -2.8186     8.0817     0.7290 H       
  50 H50            0.0102     4.7264    -1.1034 H       
  51 H51            2.5960     8.3835     2.7110 H       
  52 H52            2.8886     6.6273     2.6945 H       
  53 H53            4.8120     7.9583     3.6510 H       
  54 H54            5.2656     6.9802     2.2305 H       
  55 H55            5.0393    10.1700     0.0953 H       
  56 H56            5.4156     8.4396    -0.1159 H       
  57 H57            3.1154     8.8339    -0.8531 H       
  58 H58            2.7256     9.6447     0.6834 H       
  59 H59            5.7143    14.6449     2.1071 H       
  60 H60            6.9666    14.5589    -0.0071 H       
  61 H61            7.6558    12.3961    -0.9541 H       
  62 H62            7.1049    10.3037     0.2126 H       
@<TRIPOS>BOND
   1    1    2 2
   2    1    9 1
   3    2    3 1
   4    2   39 1
   5    3    4 1
   6    3   40 1
   7    4    5 ar
   8    4    9 ar
   9    5    6 ar
  10    6    7 ar
  11    6   41 1
  12    7    8 ar
  13    8    9 ar
  14    8   10 1
  15   10   11 1
  16   10   42 1
  17   11   12 1
  18   11   20 1
  19   11   43 1
  20   12   44 1
  21   12   45 1
  22   12   46 1
  23   13   14 ar
  24   13   22 ar
  25   14   15 ar
  26   14   47 1
  27   15   16 ar
  28   15   48 1
  29   16   17 ar
  30   16   49 1
  31   17   18 ar
  32   17   22 ar
  33   18   19 ar
  34   18   38 1
  35   19   20 ar
  36   19   50 1
  37   20   21 ar
  38   21   22 ar
  39   21   23 1
  40   23   24 1
  41   23   28 1
  42   24   25 1
  43   24   51 1
  44   24   52 1
  45   25   26 1
  46   25   53 1
  47   25   54 1
  48   26   27 1
  49   26   29 am
  50   27   28 1
  51   27   55 1
  52   27   56 1
  53   28   57 1
  54   28   58 1
  55   29   30 1
  56   29   36 2
  57   30   31 ar
  58   30   35 ar
  59   31   32 ar
  60   31   37 1
  61   32   33 ar
  62   32   59 1
  63   33   34 ar
  64   33   60 1
  65   34   35 ar
  66   34   61 1
  67   35   62 1

#	End of record

