#	Name: ASD08178189
#	Creating user name:	WinNT
#	Creation time:	15. 06. 2019 21:18

#	Modifying user name:	WinNT
#	Modification time:	15. 06. 2019 21:18

#	Program:	/corina/corina34_cracker 3.40 0067  02.08.2006

@<TRIPOS>MOLECULE
ASD08178189
  58   60    0    0    0
SMALL
NO_CHARGES


@<TRIPOS>ATOM
   1 C1            -0.0155     1.2947     0.0092 C.2     
   2 N2             0.0021    -0.0041     0.0020 N.2     
   3 N3            -1.1080    -0.6053     0.0094 N.2     
   4 C4            -2.1692     0.1372     0.0235 C.2     
   5 S5            -1.6454     1.8216     0.0350 S.3     
   6 C6            -3.5951    -0.3504     0.0340 C.3     
   7 C7            -4.0644    -0.5229     1.4800 C.3     
   8 C8            -5.5121    -1.0179     1.4907 C.3     
   9 C9            -5.9814    -1.1905     2.9367 C.3     
  10 C10           -7.4073    -1.6780     2.9473 C.2     
  11 N11           -7.7918    -2.9147     2.9447 N.2     
  12 N12           -9.0376    -3.1190     2.9555 N.2     
  13 C13           -9.8187    -2.0814     2.9680 C.2     
  14 S14           -8.8524    -0.6668     2.9730 S.3     
  15 N15          -11.2092    -2.1134     2.9805 N.am    
  16 C16          -11.8560    -3.2958     2.9808 C.2     
  17 O17          -13.2021    -3.3269     2.9929 O.3     
  18 O18          -11.2245    -4.3338     2.9701 O.2     
  19 C19          -13.8313    -4.6354     2.9924 C.3     
  20 C20          -15.3522    -4.4700     3.0071 C.3     
  21 C21          -16.0153    -5.8488     3.0066 C.3     
  22 N22            1.1034     2.1206     0.0029 N.am    
  23 C23            2.3386     1.5818    -0.0123 C.2     
  24 C24            3.5511     2.4767    -0.0190 C.3     
  25 O25            2.4745     0.3766    -0.0205 O.2     
  26 C26            4.7989     1.6319    -0.0361 C.ar    
  27 C27            5.3595     1.2513    -1.2410 C.ar    
  28 C28            6.5041     0.4764    -1.2567 C.ar    
  29 C29            7.0884     0.0825    -0.0674 C.ar    
  30 C30            6.5283     0.4638     1.1375 C.ar    
  31 C31            5.3862     1.2424     1.1531 C.ar    
  32 C32          -17.5362    -5.6834     3.0212 C.3     
  33 H33           -4.2315     0.3769    -0.4702 H       
  34 H34           -3.6557    -1.3073    -0.4843 H       
  35 H35           -3.4280    -1.2502     1.9842 H       
  36 H36           -4.0038     0.4340     1.9984 H       
  37 H37           -6.1485    -0.2906     0.9865 H       
  38 H38           -5.5727    -1.9748     0.9724 H       
  39 H39           -5.3450    -1.9177     3.4409 H       
  40 H40           -5.9207    -0.2335     3.4550 H       
  41 H41          -11.7134    -1.2848     2.9890 H       
  42 H42          -13.5338    -5.1813     2.0971 H       
  43 H43          -13.5176    -5.1898     3.8770 H       
  44 H44          -15.6497    -3.9241     3.9024 H       
  45 H45          -15.6660    -3.9156     2.1225 H       
  46 H46          -15.7178    -6.3947     2.1112 H       
  47 H47          -15.7016    -6.4032     3.8911 H       
  48 H48            0.9948     3.0845     0.0095 H       
  49 H49            3.5296     3.1110    -0.9053 H       
  50 H50            3.5470     3.1008     0.8746 H       
  51 H51            4.9030     1.5591    -2.1701 H       
  52 H52            6.9417     0.1785    -2.1980 H       
  53 H53            7.9822    -0.5236    -0.0796 H       
  54 H54            6.9846     0.1558     2.0666 H       
  55 H55            4.9486     1.5404     2.0945 H       
  56 H56          -17.8337    -5.1375     3.9166 H       
  57 H57          -17.8499    -5.1291     2.1367 H       
  58 H58          -18.0086    -6.6657     3.0209 H       
@<TRIPOS>BOND
   1    1    2 2
   2    1   22 1
   3    1    5 1
   4    2    3 1
   5    3    4 2
   6    4    5 1
   7    4    6 1
   8    6    7 1
   9    6   33 1
  10    6   34 1
  11    7    8 1
  12    7   35 1
  13    7   36 1
  14    8    9 1
  15    8   37 1
  16    8   38 1
  17    9   10 1
  18    9   39 1
  19    9   40 1
  20   10   11 2
  21   10   14 1
  22   11   12 1
  23   12   13 2
  24   13   14 1
  25   13   15 1
  26   15   16 am
  27   15   41 1
  28   16   17 1
  29   16   18 2
  30   17   19 1
  31   19   20 1
  32   19   42 1
  33   19   43 1
  34   20   21 1
  35   20   44 1
  36   20   45 1
  37   21   32 1
  38   21   46 1
  39   21   47 1
  40   22   23 am
  41   22   48 1
  42   23   24 1
  43   23   25 2
  44   24   26 1
  45   24   49 1
  46   24   50 1
  47   26   27 ar
  48   26   31 ar
  49   27   28 ar
  50   27   51 1
  51   28   29 ar
  52   28   52 1
  53   29   30 ar
  54   29   53 1
  55   30   31 ar
  56   30   54 1
  57   31   55 1
  58   32   56 1
  59   32   57 1
  60   32   58 1

#	End of record

