#	Name: ASD00890007
#	Creating user name:	WinNT
#	Creation time:	15. 06. 2019 18:53

#	Modifying user name:	WinNT
#	Modification time:	15. 06. 2019 18:53

#	Program:	/corina/corina34_cracker 3.40 0067  02.08.2006

@<TRIPOS>MOLECULE
ASD00890007
  52   54    0    0    0
SMALL
NO_CHARGES


@<TRIPOS>ATOM
   1 C1             0.2166     1.2035    -0.1949 C.ar    
   2 C2             0.3210    -0.1713    -0.3085 C.ar    
   3 C3             1.5628    -0.7659    -0.4040 C.ar    
   4 C4             2.7124     0.0210    -0.3863 C.ar    
   5 C5             2.6015     1.4047    -0.2722 C.ar    
   6 C6             1.3545     1.9892    -0.1768 C.ar    
   7 S7             1.2124     3.7396    -0.0329 S.o2    
   8 O8            -0.0433     3.9909     0.5831 O.2     
   9 O9             2.4461     4.1998     0.5012 O.2     
  10 N10            1.1105     4.3510    -1.5686 N.am    
  11 C11            4.0510    -0.6132    -0.4883 C.2     
  12 C12            4.3035    -1.9490    -0.6037 C.2     
  13 N13            5.6409    -2.1072    -0.6679 N.pl3   
  14 N14            6.2354    -0.8419    -0.5910 N.2     
  15 C15            5.2907     0.0552    -0.4896 C.2     
  16 C16            6.3498    -3.3829    -0.7958 C.3     
  17 C17            0.0680     3.9667    -2.4010 C.ar    
  18 C18           -1.1974     3.7366    -1.8750 C.ar    
  19 C19           -2.2315     3.3544    -2.7042 C.ar    
  20 C20           -2.0191     3.1972    -4.0650 C.ar    
  21 C21           -0.7721     3.4206    -4.6053 C.ar    
  22 C22            0.2852     3.8141    -3.7797 C.ar    
  23 C23            7.2743    -3.3328    -2.0138 C.3     
  24 C24            8.0146    -4.6651    -2.1473 C.3     
  25 C25            7.0096    -5.7791    -2.4475 C.3     
  26 C26            9.0293    -4.5726    -3.2886 C.3     
  27 C27            1.6213     4.0552    -4.3507 C.2     
  28 O28            2.5377     4.3971    -3.6295 O.2     
  29 O29            1.8277     3.8966    -5.6730 O.3     
  30 H30           -0.7572     1.6651    -0.1245 H       
  31 H31           -0.5707    -0.7803    -0.3221 H       
  32 H32            1.6433    -1.8393    -0.4920 H       
  33 H33            3.4895     2.0192    -0.2577 H       
  34 H34            1.7793     4.9776    -1.8864 H       
  35 H35            3.5657    -2.7370    -0.6374 H       
  36 H36            5.4356     1.1227    -0.4125 H       
  37 H37            6.9412    -3.5615     0.1022 H       
  38 H38            5.6270    -4.1892    -0.9211 H       
  39 H39           -1.3714     3.8568    -0.8159 H       
  40 H40           -3.2130     3.1761    -2.2903 H       
  41 H41           -2.8359     2.8976    -4.7050 H       
  42 H42           -0.6124     3.2962    -5.6662 H       
  43 H43            6.6828    -3.1542    -2.9118 H       
  44 H44            7.9970    -2.5265    -1.8885 H       
  45 H45            8.5349    -4.8866    -1.2155 H       
  46 H46            6.4893    -5.5576    -3.3793 H       
  47 H47            7.5370    -6.7283    -2.5426 H       
  48 H48            6.2867    -5.8450    -1.6344 H       
  49 H49            9.7453    -3.7790    -3.0748 H       
  50 H50            9.5567    -5.5217    -3.3838 H       
  51 H51            8.5090    -4.3511    -4.2204 H       
  52 H52            2.7212     4.0663    -6.0014 H       
@<TRIPOS>BOND
   1    1    2 ar
   2    1    6 ar
   3    1   30 1
   4    2    3 ar
   5    2   31 1
   6    3    4 ar
   7    3   32 1
   8    4    5 ar
   9    4   11 1
  10    5    6 ar
  11    5   33 1
  12    6    7 1
  13    7    8 2
  14    7    9 2
  15    7   10 am
  16   10   17 1
  17   10   34 1
  18   11   12 2
  19   11   15 1
  20   12   13 1
  21   12   35 1
  22   13   14 1
  23   13   16 1
  24   14   15 2
  25   15   36 1
  26   16   23 1
  27   16   37 1
  28   16   38 1
  29   17   18 ar
  30   17   22 ar
  31   18   19 ar
  32   18   39 1
  33   19   20 ar
  34   19   40 1
  35   20   21 ar
  36   20   41 1
  37   21   22 ar
  38   21   42 1
  39   22   27 1
  40   23   24 1
  41   23   43 1
  42   23   44 1
  43   24   25 1
  44   24   26 1
  45   24   45 1
  46   25   46 1
  47   25   47 1
  48   25   48 1
  49   26   49 1
  50   26   50 1
  51   26   51 1
  52   27   28 2
  53   27   29 1
  54   29   52 1

#	End of record

