#	Name: ASD03320096
#	Creating user name:	WinNT
#	Creation time:	15. 06. 2019 20:36

#	Modifying user name:	WinNT
#	Modification time:	15. 06. 2019 20:36

#	Program:	/corina/corina34_cracker 3.40 0067  02.08.2006

@<TRIPOS>MOLECULE
ASD03320096
  48   51    0    0    0
SMALL
NO_CHARGES


@<TRIPOS>ATOM
   1 C1             0.7164     1.6156     0.1921 C.2     
   2 C2             0.5575     0.1531     0.2889 C.ar    
   3 C3             1.0275    -0.5390     1.4138 C.ar    
   4 C4             0.8533    -1.9190     1.4582 C.ar    
   5 C5             0.2173    -2.5606     0.3805 C.ar    
   6 N6            -0.2109    -1.8665    -0.6632 N.ar    
   7 C7            -0.0683    -0.5598    -0.7365 C.ar    
   8 O8             1.2575     2.2288     1.0908 O.2     
   9 O9             0.2665     2.2717    -0.8956 O.3     
  10 N10            2.5631    -2.6185     3.1966 N.pl3   
  11 N11            2.5954    -3.5252     4.2638 N.2     
  12 C12            1.4356    -4.1281     4.3323 C.2     
  13 C13            0.6168    -3.6344     3.3165 C.2     
  14 C14            1.3304    -2.6990     2.6208 C.2     
  15 C15            3.6561    -1.7373     2.7784 C.3     
  16 C16            3.8203    -0.6078     3.7987 C.3     
  17 C17            5.0029     0.2742     3.3866 C.3     
  18 C18            6.2592    -0.5950     3.2743 C.3     
  19 C19            6.0008    -1.7249     2.2742 C.3     
  20 O20            4.8699    -2.4874     2.7007 O.3     
  21 N21            0.0372    -3.9308     0.4105 N.3     
  22 C22           -1.3943    -4.2772     0.3433 C.3     
  23 C23           -1.5834    -5.2056    -0.8748 C.3     
  24 C24           -0.1627    -5.7894    -1.0931 C.3     
  25 C25            0.7326    -4.5814    -0.7204 C.3     
  26 O26           -2.5168    -6.2459    -0.5771 O.3     
  27 H27            1.5122    -0.0151     2.2243 H       
  28 H28           -0.4362    -0.0320    -1.6039 H       
  29 H29            0.3932     3.2302    -0.9138 H       
  30 H30            1.1589    -4.8820     5.0545 H       
  31 H31           -0.4001    -3.9375     3.1154 H       
  32 H32            3.4274    -1.3133     1.8006 H       
  33 H33            2.9108    -0.0077     3.8273 H       
  34 H34            4.0088    -1.0324     4.7848 H       
  35 H35            4.7932     0.7382     2.4228 H       
  36 H36            5.1605     1.0475     4.1384 H       
  37 H37            7.0939     0.0144     2.9278 H       
  38 H38            6.4969    -1.0192     4.2498 H       
  39 H39            5.8029    -1.3008     1.2897 H       
  40 H40            6.8766    -2.3716     2.2222 H       
  41 H41           -1.6936    -4.7953     1.2544 H       
  42 H42           -1.9892    -3.3727     0.2160 H       
  43 H43           -1.9044    -4.6363    -1.7471 H       
  44 H44            0.0202    -6.6316    -0.4257 H       
  45 H45           -0.0150    -6.0785    -2.1336 H       
  46 H46            0.8126    -3.8942    -1.5627 H       
  47 H47            1.7211    -4.9224    -0.4125 H       
  48 H48           -2.6713    -6.8573    -1.3102 H       
@<TRIPOS>BOND
   1    1    2 1
   2    1    8 2
   3    1    9 1
   4    2    3 ar
   5    2    7 ar
   6    3    4 ar
   7    3   27 1
   8    4    5 ar
   9    4   14 1
  10    5    6 ar
  11    5   21 1
  12    6    7 ar
  13    7   28 1
  14    9   29 1
  15   10   11 1
  16   10   14 1
  17   10   15 1
  18   11   12 2
  19   12   13 1
  20   12   30 1
  21   13   14 2
  22   13   31 1
  23   15   16 1
  24   15   20 1
  25   15   32 1
  26   16   17 1
  27   16   33 1
  28   16   34 1
  29   17   18 1
  30   17   35 1
  31   17   36 1
  32   18   19 1
  33   18   37 1
  34   18   38 1
  35   19   20 1
  36   19   39 1
  37   19   40 1
  38   21   22 1
  39   21   25 1
  40   22   23 1
  41   22   41 1
  42   22   42 1
  43   23   24 1
  44   23   26 1
  45   23   43 1
  46   24   25 1
  47   24   44 1
  48   24   45 1
  49   25   46 1
  50   25   47 1
  51   26   48 1

#	End of record

