#	Name: ASD06710034
#	Creating user name:	WinNT
#	Creation time:	15. 06. 2019 21:08

#	Modifying user name:	WinNT
#	Modification time:	15. 06. 2019 21:08

#	Program:	/corina/corina34_cracker 3.40 0067  02.08.2006

@<TRIPOS>MOLECULE
ASD06710034
  43   45    0    0    0
SMALL
NO_CHARGES


@<TRIPOS>ATOM
   1 C1             3.0525     0.9282    -2.4729 C.ar    
   2 C2             2.3195    -0.2219    -2.2703 C.ar    
   3 C3             1.4659    -0.3258    -1.1863 C.ar    
   4 C4             1.3415     0.7274    -0.2950 C.ar    
   5 C5             2.9335     1.9975    -1.5780 C.ar    
   6 C6             3.5759     3.3191    -1.5403 C.2     
   7 C7             2.0673     1.8795    -0.4866 C.ar    
   8 C8             2.1596     3.1773     0.2783 C.3     
   9 C9             3.1522     4.0253    -0.4822 C.2     
  10 C10            3.5787     5.3858    -0.1248 C.2     
  11 N11            2.6436     6.4230    -0.0844 N.pl3   
  12 C12            4.8635     5.6311     0.1622 C.2     
  13 C13            3.0834     7.7960     0.1760 C.3     
  14 C14            1.2233     6.1377    -0.3025 C.3     
  15 C15            0.5264     5.9564     1.0474 C.3     
  16 C16           -0.9132     5.7383     0.8310 C.1     
  17 N17           -2.0242     5.5700     0.6639 N.1     
  18 C18            3.4063     8.4762    -1.1294 C.ar    
  19 C19            4.9819     9.0288    -2.8454 C.ar    
  20 C20            4.6857     8.4049    -1.6480 C.ar    
  21 C21            2.4217     9.1667    -1.8110 C.ar    
  22 C22            2.7179     9.7906    -3.0085 C.ar    
  23 C23            3.9988     9.7245    -3.5240 C.ar    
  24 H24            3.7205     1.0020    -3.3183 H       
  25 H25            2.4119    -1.0463    -2.9619 H       
  26 H26            0.8950    -1.2299    -1.0349 H       
  27 H27            0.6742     0.6438     0.5500 H       
  28 H28            4.2926     3.6733    -2.2666 H       
  29 H29            1.1869     3.6684     0.3063 H       
  30 H30            2.5192     2.9934     1.2908 H       
  31 H31            5.1768     6.6307     0.4249 H       
  32 H32            5.5864     4.8293     0.1310 H       
  33 H33            2.2881     8.3421     0.6833 H       
  34 H34            3.9722     7.7793     0.8067 H       
  35 H35            0.7644     6.9676    -0.8399 H       
  36 H36            1.1221     5.2246    -0.8892 H       
  37 H37            0.9509     5.0949     1.5627 H       
  38 H38            0.6712     6.8503     1.6540 H       
  39 H39            5.9816     8.9734    -3.2504 H       
  40 H40            5.4539     7.8620    -1.1174 H       
  41 H41            1.4209     9.2183    -1.4083 H       
  42 H42            1.9485    10.3295    -3.5414 H       
  43 H43            4.2302    10.2120    -4.4595 H       
@<TRIPOS>BOND
   1    1    2 ar
   2    1    5 ar
   3    1   24 1
   4    2    3 ar
   5    2   25 1
   6    3    4 ar
   7    3   26 1
   8    4    7 ar
   9    4   27 1
  10    5    7 ar
  11    5    6 1
  12    6    9 2
  13    6   28 1
  14    7    8 1
  15    8    9 1
  16    8   29 1
  17    8   30 1
  18    9   10 1
  19   10   11 1
  20   10   12 2
  21   11   13 1
  22   11   14 1
  23   12   31 1
  24   12   32 1
  25   13   18 1
  26   13   33 1
  27   13   34 1
  28   14   15 1
  29   14   35 1
  30   14   36 1
  31   15   16 1
  32   15   37 1
  33   15   38 1
  34   16   17 3
  35   18   21 ar
  36   18   20 ar
  37   19   20 ar
  38   19   23 ar
  39   19   39 1
  40   20   40 1
  41   21   22 ar
  42   21   41 1
  43   22   23 ar
  44   22   42 1
  45   23   43 1

#	End of record

