#	Name: ASD01410469
#	Creating user name:	WinNT
#	Creation time:	15. 06. 2019 19:17

#	Modifying user name:	WinNT
#	Modification time:	15. 06. 2019 19:17

#	Program:	/corina/corina34_cracker 3.40 0067  02.08.2006

@<TRIPOS>MOLECULE
ASD01410469
  52   56    0    0    0
SMALL
NO_CHARGES


@<TRIPOS>ATOM
   1 C1            -0.0168     1.3855     0.0097 C.ar    
   2 C2             0.0021    -0.0041     0.0020 C.ar    
   3 C3            -1.1863    -0.7125     0.0096 C.ar    
   4 C4            -2.4035    -0.0209     0.0249 C.ar    
   5 C5            -2.4214     1.3841     0.0326 C.ar    
   6 C6            -1.2194     2.0762     0.0306 C.ar    
   7 C7            -3.8109    -0.4480     0.0355 C.2     
   8 C8            -4.5659     0.7560     0.0490 C.2     
   9 O9            -3.7058     1.8020     0.0467 O.3     
  10 O10           -4.2385    -1.5908     0.0330 O.2     
  11 C11           -5.9247     0.8432     0.0613 C.2     
  12 C12           -6.5731     2.1535     0.0744 C.2     
  13 O13            1.1534     2.0736     0.0022 O.3     
  14 O14           -1.1721    -2.0693     0.0017 O.3     
  15 C15           -5.9548     3.3737     0.0700 C.2     
  16 C16           -8.0240     2.4214     0.0885 C.ar    
  17 C17           -8.1578     3.8188     0.0977 C.ar    
  18 N18           -6.8876     4.3583     0.0859 N.pl3   
  19 C19           -6.5888     5.7925     0.0905 C.3     
  20 C20           -9.1563     1.6112     0.0937 C.ar    
  21 C21          -10.4077     2.1878     0.1079 C.ar    
  22 C22          -10.5419     3.5686     0.1165 C.ar    
  23 C23           -9.4298     4.3820     0.1119 C.ar    
  24 C24           -6.5911     6.3093     1.5306 C.3     
  25 C25           -6.2813     8.3162     2.9538 C.ar    
  26 C26           -5.1137     8.3059     3.6937 C.ar    
  27 C27           -5.1146     8.7781     4.9929 C.ar    
  28 C28           -6.2829     9.2611     5.5520 C.ar    
  29 C29           -7.4503     9.2722     4.8118 C.ar    
  30 C30           -7.4498     8.7987     3.5131 C.ar    
  31 C31           -6.2790     7.8071     1.5354 C.3     
  32 H32            0.9447    -0.5311    -0.0102 H       
  33 H33           -1.2200     3.1561     0.0368 H       
  34 H34           -6.5235    -0.0557     0.0613 H       
  35 H35            1.4840     2.2777    -0.8833 H       
  36 H36           -1.1594    -2.4676     0.8827 H       
  37 H37           -4.8862     3.5295     0.0563 H       
  38 H38           -5.6080     5.9607    -0.3543 H       
  39 H39           -7.3456     6.3231    -0.4872 H       
  40 H40           -9.0543     0.5361     0.0863 H       
  41 H41          -11.2879     1.5620     0.1119 H       
  42 H42          -11.5275     4.0102     0.1268 H       
  43 H43           -9.5455     5.4558     0.1191 H       
  44 H44           -7.5719     6.1411     1.9754 H       
  45 H45           -5.8343     5.7786     2.1083 H       
  46 H46           -4.2009     7.9286     3.2569 H       
  47 H47           -4.2025     8.7694     5.5712 H       
  48 H48           -6.2837     9.6294     6.5673 H       
  49 H49           -8.3633     9.6489     5.2489 H       
  50 H50           -8.3619     8.8070     2.9349 H       
  51 H51           -5.2982     7.9753     1.0906 H       
  52 H52           -7.0358     8.3378     0.9577 H       
@<TRIPOS>BOND
   1    1    2 ar
   2    1   13 1
   3    1    6 ar
   4    2    3 ar
   5    2   32 1
   6    3    4 ar
   7    3   14 1
   8    4    5 ar
   9    4    7 1
  10    5    6 ar
  11    5    9 1
  12    6   33 1
  13    7    8 1
  14    7   10 2
  15    8    9 1
  16    8   11 2
  17   11   12 1
  18   11   34 1
  19   12   16 1
  20   12   15 2
  21   13   35 1
  22   14   36 1
  23   15   18 1
  24   15   37 1
  25   16   17 ar
  26   16   20 ar
  27   17   18 1
  28   17   23 ar
  29   18   19 1
  30   19   24 1
  31   19   38 1
  32   19   39 1
  33   20   21 ar
  34   20   40 1
  35   21   22 ar
  36   21   41 1
  37   22   23 ar
  38   22   42 1
  39   23   43 1
  40   24   31 1
  41   24   44 1
  42   24   45 1
  43   25   26 ar
  44   25   30 ar
  45   25   31 1
  46   26   27 ar
  47   26   46 1
  48   27   28 ar
  49   27   47 1
  50   28   29 ar
  51   28   48 1
  52   29   30 ar
  53   29   49 1
  54   30   50 1
  55   31   51 1
  56   31   52 1

#	End of record

