#	Name: ASD01914854
#	Creating user name:	WinNT
#	Creation time:	15. 06. 2019 20:04

#	Modifying user name:	WinNT
#	Modification time:	15. 06. 2019 20:04

#	Program:	/corina/corina34_cracker 3.40 0067  02.08.2006

@<TRIPOS>MOLECULE
ASD01914854
  33   34    0    0    0
SMALL
NO_CHARGES


@<TRIPOS>ATOM
   1 C1            10.1431     6.2388     1.0954 C.1     
   2 C2             8.8473     6.9252     0.9668 C.3     
   3 C3             7.7513     5.8964     0.6820 C.3     
   4 N4            11.1432     5.7090     1.1946 N.1     
   5 S5             6.1544     6.7423     0.5236 S.3     
   6 N6             4.2129     3.4150    -0.1455 N.pl3   
   7 N7             3.1556     4.3311    -0.2114 N.2     
   8 C8             3.6416     5.5386    -0.0030 C.2     
   9 C9             5.0353     5.4197     0.2031 C.2     
  10 C10            5.3565     4.1060     0.1098 C.2     
  11 C11            3.6104     8.0950     0.1271 C.3     
  12 C12            2.8660     6.7959     0.0119 C.2     
  13 C13            1.5556     6.7254    -0.0767 C.2     
  14 C14            0.6756     7.9443    -0.0786 C.3     
  15 C15            1.4632     9.1502     0.4396 C.3     
  16 N16            2.7481     9.2126    -0.2763 N.3     
  17 C17            3.4157    10.5012    -0.0494 C.3     
  18 H18            8.6207     7.4502     1.8948 H       
  19 H19            8.8954     7.6414     0.1466 H       
  20 H20            7.9780     5.3714    -0.2459 H       
  21 H21            7.7032     5.1802     1.5023 H       
  22 H22            4.1415     2.4542    -0.2581 H       
  23 H23            6.3443     3.6834     0.2188 H       
  24 H24            3.9277     8.2389     1.1599 H       
  25 H25            4.4890     8.0660    -0.5173 H       
  26 H26            1.0930     5.7524    -0.1516 H       
  27 H27            0.3341     8.1434    -1.0944 H       
  28 H28           -0.1864     7.7702     0.5654 H       
  29 H29            0.8972    10.0635     0.2561 H       
  30 H30            1.6447     9.0372     1.5084 H       
  31 H31            4.3357    10.5415    -0.6326 H       
  32 H32            2.7550    11.3119    -0.3567 H       
  33 H33            3.6519    10.6066     1.0095 H       
@<TRIPOS>BOND
   1    1    2 1
   2    1    4 3
   3    2    3 1
   4    2   18 1
   5    2   19 1
   6    3    5 1
   7    3   20 1
   8    3   21 1
   9    5    9 1
  10    6    7 1
  11    6   10 1
  12    6   22 1
  13    7    8 2
  14    8    9 1
  15    8   12 1
  16    9   10 2
  17   10   23 1
  18   11   12 1
  19   11   16 1
  20   11   24 1
  21   11   25 1
  22   12   13 2
  23   13   14 1
  24   13   26 1
  25   14   15 1
  26   14   27 1
  27   14   28 1
  28   15   16 1
  29   15   29 1
  30   15   30 1
  31   16   17 1
  32   17   31 1
  33   17   32 1
  34   17   33 1

#	End of record

