#	Name: ASD02198806
#	Creating user name:	WinNT
#	Creation time:	15. 06. 2019 20:20

#	Modifying user name:	WinNT
#	Modification time:	15. 06. 2019 20:20

#	Program:	/corina/corina34_cracker 3.40 0067  02.08.2006

@<TRIPOS>MOLECULE
ASD02198806
  53   57    0    0    0
SMALL
NO_CHARGES


@<TRIPOS>ATOM
   1 C1            -0.0436     1.5036    -0.1142 C.2     
   2 C2            -0.0738     0.1639     0.0985 C.2     
   3 N3             1.0702    -0.5381     0.2608 N.pl3   
   4 N4             2.2349    -0.0038     0.2265 N.2     
   5 C5             2.4068     1.2857     0.0281 C.2     
   6 C6             1.2214     2.1372    -0.1599 C.2     
   7 C7             0.9782    -1.9170     0.4775 C.ar    
   8 C8             1.5800    -2.4891     1.5977 C.ar    
   9 C9             1.4871    -3.8545     1.8092 C.ar    
  10 C10            0.7955    -4.6501     0.9063 C.ar    
  11 C11            0.1970    -4.0781    -0.2095 C.ar    
  12 C12            0.2826    -2.7169    -0.4198 C.ar    
  13 C13            3.7639     1.8675    -0.0049 C.2     
  14 N14            4.3059     2.6073    -1.0182 N.pl3   
  15 N15            5.6078     2.9589    -0.6405 N.2     
  16 C16            5.8517     2.4596     0.5449 C.2     
  17 C17            4.7198     1.7718     0.9826 C.2     
  18 C18            3.6727     2.9521    -2.2190 C.ar    
  19 C19            2.9101     2.0108    -2.8981 C.ar    
  20 C20            2.2856     2.3508    -4.0827 C.ar    
  21 C21            2.4182     3.6272    -4.5950 C.ar    
  22 C22            3.1796     4.5719    -3.9208 C.ar    
  23 C23            3.8021     4.2365    -2.7289 C.ar    
  24 O24            1.3247     3.3403    -0.3480 O.2     
  25 N25            0.7013    -6.0322     1.1201 N.pl3   
  26 N26            1.2529    -6.7395     2.1962 N.2     
  27 C27            0.9539    -8.0053     2.0501 C.2     
  28 C28            0.2030    -8.1456     0.8778 C.2     
  29 C29            0.0569    -6.9180     0.3273 C.2     
  30 O30            2.2570    -1.7081     2.4802 O.3     
  31 C31            2.8480    -2.3623     3.6048 C.3     
  32 O32            3.3099     5.8266    -4.4264 O.3     
  33 C33            2.6361     6.1040    -5.6556 C.3     
  34 F34            1.2612     5.9070    -5.4885 F       
  35 F35            2.8751     7.4308    -6.0293 F       
  36 F36            3.1124     5.2458    -6.6525 F       
  37 H37           -0.9548     2.0675    -0.2486 H       
  38 H38           -1.0238    -0.3482     0.1390 H       
  39 H39            1.9526    -4.3000     2.6759 H       
  40 H40           -0.3403    -4.6992    -0.9110 H       
  41 H41           -0.1835    -2.2746    -1.2878 H       
  42 H42            6.7751     2.5660     1.0948 H       
  43 H43            4.6139     1.2527     1.9238 H       
  44 H44            2.8054     1.0122    -2.5001 H       
  45 H45            1.6929     1.6175    -4.6094 H       
  46 H46            1.9291     3.8900    -5.5214 H       
  47 H47            4.3946     4.9703    -2.2028 H       
  48 H48            1.2381    -8.8041     2.7191 H       
  49 H49           -0.1931    -9.0698     0.4838 H       
  50 H50           -0.4734    -6.6881    -0.5851 H       
  51 H51            2.0707    -2.8566     4.1875 H       
  52 H52            3.5680    -3.1032     3.2572 H       
  53 H53            3.3562    -1.6261     4.2276 H       
@<TRIPOS>BOND
   1    1    2 2
   2    1    6 1
   3    1   37 1
   4    2    3 1
   5    2   38 1
   6    3    4 1
   7    3    7 1
   8    4    5 2
   9    5    6 1
  10    5   13 1
  11    6   24 2
  12    7    8 ar
  13    7   12 ar
  14    8    9 ar
  15    8   30 1
  16    9   10 ar
  17    9   39 1
  18   10   11 ar
  19   10   25 1
  20   11   12 ar
  21   11   40 1
  22   12   41 1
  23   13   14 1
  24   13   17 2
  25   14   15 1
  26   14   18 1
  27   15   16 2
  28   16   17 1
  29   16   42 1
  30   17   43 1
  31   18   19 ar
  32   18   23 ar
  33   19   20 ar
  34   19   44 1
  35   20   21 ar
  36   20   45 1
  37   21   22 ar
  38   21   46 1
  39   22   23 ar
  40   22   32 1
  41   23   47 1
  42   25   26 1
  43   25   29 1
  44   26   27 2
  45   27   28 1
  46   27   48 1
  47   28   29 2
  48   28   49 1
  49   29   50 1
  50   30   31 1
  51   31   51 1
  52   31   52 1
  53   31   53 1
  54   32   33 1
  55   33   34 1
  56   33   35 1
  57   33   36 1

#	End of record

