#	Name: ASD01911657
#	Creating user name:	WinNT
#	Creation time:	15. 06. 2019 19:58

#	Modifying user name:	WinNT
#	Modification time:	15. 06. 2019 19:58

#	Program:	/corina/corina34_cracker 3.40 0067  02.08.2006

@<TRIPOS>MOLECULE
ASD01911657
  49   52    0    0    0
SMALL
NO_CHARGES


@<TRIPOS>ATOM
   1 N1            -0.2024     1.3075     0.3633 N.am    
   2 C2            -0.3525     0.0422    -0.0759 C.2     
   3 C3             0.8067    -0.8509    -0.1471 C.2     
   4 C4             0.7728    -2.2185    -0.1014 C.2     
   5 S5             2.4893    -0.3532    -0.3142 S.3     
   6 C6             2.9886    -2.0421    -0.2996 C.2     
   7 N7             1.9320    -2.8076    -0.1828 N.2     
   8 C8             4.3392    -2.5064    -0.4039 C.1     
   9 C9             5.4465    -2.8871    -0.4894 C.1     
  10 C10            6.7971    -3.3514    -0.5938 C.ar    
  11 C11            7.0727    -4.7220    -0.5703 C.ar    
  12 C12            8.3758    -5.1614    -0.6718 C.ar    
  13 C13            9.4096    -4.2496    -0.7961 C.ar    
  14 C14            9.1448    -2.8914    -0.8201 C.ar    
  15 C15            7.8464    -2.4367    -0.7255 C.ar    
  16 O16           -1.4511    -0.3586    -0.4134 O.2     
  17 C17            1.0942     1.7742     0.8728 C.3     
  18 C18            0.8897     2.3706     2.2690 C.3     
  19 C19           -0.1873     3.4560     2.2029 C.3     
  20 C20           -1.5096     2.8377     1.7433 C.3     
  21 C21           -1.3307     2.2482     0.3360 C.3     
  22 N22           -0.3626     4.0531     3.5336 N.3     
  23 C23            0.8626     4.7506     3.9653 C.3     
  24 C24           -1.4809     5.0201     3.5373 C.3     
  25 C25           -1.0519     6.1173     4.5431 C.3     
  26 C26            0.4727     6.2118     4.2722 C.3     
  27 H27           -0.1503    -2.7707    -0.0043 H       
  28 H28            6.2671    -5.4346    -0.4726 H       
  29 H29            8.5903    -6.2197    -0.6538 H       
  30 H30           10.4282    -4.5998    -0.8745 H       
  31 H31            9.9568    -2.1860    -0.9171 H       
  32 H32            7.6412    -1.3765    -0.7443 H       
  33 H33            1.7871     0.9349     0.9319 H       
  34 H34            1.4963     2.5364     0.2052 H       
  35 H35            0.5740     1.5863     2.9569 H       
  36 H36            1.8252     2.8071     2.6188 H       
  37 H37            0.1178     4.2277     1.4962 H       
  38 H38           -1.8027     2.0489     2.4362 H       
  39 H39           -2.2817     3.6066     1.7190 H       
  40 H40           -1.1273     3.0506    -0.3731 H       
  41 H41           -2.2382     1.7201     0.0430 H       
  42 H42            1.2623     4.2773     4.8622 H       
  43 H43            1.6048     4.7246     3.1675 H       
  44 H44           -1.6160     5.4478     2.5438 H       
  45 H45           -2.3991     4.5370     3.8714 H       
  46 H46           -1.5469     7.0633     4.3236 H       
  47 H47           -1.2476     5.8047     5.5688 H       
  48 H48            0.9993     6.5739     5.1552 H       
  49 H49            0.6726     6.8525     3.4133 H       
@<TRIPOS>BOND
   1    1    2 am
   2    1   17 1
   3    1   21 1
   4    2    3 1
   5    2   16 2
   6    3    4 2
   7    3    5 1
   8    4    7 1
   9    4   27 1
  10    5    6 1
  11    6    7 2
  12    6    8 1
  13    8    9 3
  14    9   10 1
  15   10   11 ar
  16   10   15 ar
  17   11   12 ar
  18   11   28 1
  19   12   13 ar
  20   12   29 1
  21   13   14 ar
  22   13   30 1
  23   14   15 ar
  24   14   31 1
  25   15   32 1
  26   17   18 1
  27   17   33 1
  28   17   34 1
  29   18   19 1
  30   18   35 1
  31   18   36 1
  32   19   20 1
  33   19   22 1
  34   19   37 1
  35   20   21 1
  36   20   38 1
  37   20   39 1
  38   21   40 1
  39   21   41 1
  40   22   23 1
  41   22   24 1
  42   23   26 1
  43   23   42 1
  44   23   43 1
  45   24   25 1
  46   24   44 1
  47   24   45 1
  48   25   26 1
  49   25   46 1
  50   25   47 1
  51   26   48 1
  52   26   49 1

#	End of record

