#	Name: ASD01882811
#	Creating user name:	WinNT
#	Creation time:	15. 06. 2019 19:45

#	Modifying user name:	WinNT
#	Modification time:	15. 06. 2019 19:45

#	Program:	/corina/corina34_cracker 3.40 0067  02.08.2006

@<TRIPOS>MOLECULE
ASD01882811
  53   57    0    0    0
SMALL
NO_CHARGES


@<TRIPOS>ATOM
   1 C1            -0.0294     1.4002     0.3034 C.ar    
   2 C2            -0.0174     0.0195     0.4551 C.ar    
   3 C3             1.1818    -0.6446     0.6405 C.ar    
   4 C4             2.3678     0.0648     0.6754 C.ar    
   5 C5             2.3584     1.4413     0.5249 C.ar    
   6 C6             1.1612     2.1097     0.3383 C.ar    
   7 F7            -1.1761    -0.6743     0.4220 F       
   8 F8             3.5189     2.1322     0.5598 F       
   9 O9            -1.2064     2.0541     0.1155 O.3     
  10 C10           -1.8929     2.5035     1.2854 C.3     
  11 C11            1.1514     3.6076     0.1735 C.3     
  12 C12            1.7049     5.7850     1.2655 C.3     
  13 C13            1.7481     4.2617     1.4219 C.3     
  14 C14            1.9833     3.9912    -1.0525 C.3     
  15 C15            1.9427     5.5114    -1.2369 C.3     
  16 N16            2.3783     6.1510     0.0120 N.pl3   
  17 C17            3.4098     7.0870     0.0077 C.2     
  18 C18            4.3184     9.1998    -0.6530 C.2     
  19 C19            3.2631     8.2710    -0.6638 C.2     
  20 C20            4.6111     6.8234     0.7006 C.2     
  21 C21            5.6096     7.7283     0.6981 C.2     
  22 Cl22           1.7929     8.6206    -1.5182 Cl      
  23 N23            5.6464    10.8519    -0.8874 N.2     
  24 N24            4.4809    10.3991    -1.1909 N.2     
  25 N25            5.4757     8.9093     0.0277 N.pl3   
  26 C26            6.2916     9.9878    -0.1488 C.2     
  27 C27            7.6830    10.1530     0.4059 C.3     
  28 C28            7.6078    10.8165     1.7825 C.3     
  29 C29            8.9130    10.9662     2.5668 C.3     
  30 C30            8.2528    12.1951     1.9384 C.3     
  31 H31            1.1915    -1.7181     0.7584 H       
  32 H32            3.3031    -0.4553     0.8206 H       
  33 H33           -2.1308     1.6483     1.9181 H       
  34 H34           -1.2572     3.1970     1.8359 H       
  35 H35           -2.8144     3.0079     0.9948 H       
  36 H36            0.1259     3.9515     0.0386 H       
  37 H37            0.6680     6.1199     1.2345 H       
  38 H38            2.2173     6.2533     2.1059 H       
  39 H39            1.1691     3.9693     2.2978 H       
  40 H40            2.7817     3.9377     1.5436 H       
  41 H41            3.0146     3.6697    -0.9074 H       
  42 H42            1.5716     3.5062    -1.9376 H       
  43 H43            2.6120     5.7991    -2.0476 H       
  44 H44            0.9252     5.8239    -1.4719 H       
  45 H45            4.7303     5.8927     1.2353 H       
  46 H46            6.5243     7.5170     1.2320 H       
  47 H47            8.1554     9.1751     0.4992 H       
  48 H48            8.2706    10.7776    -0.2669 H       
  49 H49            6.6990    10.6185     2.3508 H       
  50 H50            8.8627    10.8671     3.6511 H       
  51 H51            9.8251    10.5919     2.1021 H       
  52 H52            8.7307    12.6294     1.0602 H       
  53 H53            7.7683    12.9045     2.6093 H       
@<TRIPOS>BOND
   1    1    2 ar
   2    1    6 ar
   3    1    9 1
   4    2    3 ar
   5    2    7 1
   6    3    4 ar
   7    3   31 1
   8    4    5 ar
   9    4   32 1
  10    5    6 ar
  11    5    8 1
  12    6   11 1
  13    9   10 1
  14   10   33 1
  15   10   34 1
  16   10   35 1
  17   11   14 1
  18   11   13 1
  19   11   36 1
  20   12   13 1
  21   12   16 1
  22   12   37 1
  23   12   38 1
  24   13   39 1
  25   13   40 1
  26   14   15 1
  27   14   41 1
  28   14   42 1
  29   15   16 1
  30   15   43 1
  31   15   44 1
  32   16   17 1
  33   17   20 1
  34   17   19 2
  35   18   19 1
  36   18   25 1
  37   18   24 2
  38   19   22 1
  39   20   21 2
  40   20   45 1
  41   21   25 1
  42   21   46 1
  43   23   24 1
  44   23   26 2
  45   25   26 1
  46   26   27 1
  47   27   28 1
  48   27   47 1
  49   27   48 1
  50   28   29 1
  51   28   30 1
  52   28   49 1
  53   29   30 1
  54   29   50 1
  55   29   51 1
  56   30   52 1
  57   30   53 1

#	End of record

