#	Name: ASD01911715
#	Creating user name:	WinNT
#	Creation time:	15. 06. 2019 19:58

#	Modifying user name:	WinNT
#	Modification time:	15. 06. 2019 19:58

#	Program:	/corina/corina34_cracker 3.40 0067  02.08.2006

@<TRIPOS>MOLECULE
ASD01911715
  43   46    0    0    0
SMALL
NO_CHARGES


@<TRIPOS>ATOM
   1 N1            -0.0154     1.3435     0.0180 N.am    
   2 C2             0.0021    -0.0041     0.0020 C.2     
   3 C3             1.2748    -0.7187    -0.1246 C.2     
   4 C4             1.4470    -2.0747    -0.0500 C.2     
   5 S5             2.8518     0.0159    -0.4072 S.3     
   6 C6             3.5963    -1.5802    -0.3909 C.2     
   7 N7             2.6740    -2.4890    -0.1928 N.2     
   8 C8             4.9923    -1.8438    -0.5711 C.1     
   9 C9             6.1367    -2.0599    -0.7188 C.1     
  10 C10            7.5327    -2.3234    -0.8990 C.ar    
  11 C11            8.0097    -3.6374    -0.8661 C.ar    
  12 C12            9.3552    -3.8832    -1.0409 C.ar    
  13 C13           10.2329    -2.8333    -1.2481 C.ar    
  14 C14            9.7684    -1.5301    -1.2820 C.ar    
  15 C15            8.4248    -1.2686    -1.1146 C.ar    
  16 O16           -1.0395    -0.6273     0.0927 O.2     
  17 C17           -1.2233     2.1848     0.0389 C.3     
  18 C18            1.1673     2.2138     0.0239 C.3     
  19 C19            0.6792     3.6710     0.1073 C.3     
  20 C20           -0.7776     3.5318     0.6498 C.3     
  21 C21            0.4471     4.2037    -1.3240 C.3     
  22 N22           -0.7376     5.0795    -1.2313 N.3     
  23 C23           -1.5323     4.6726    -0.0551 C.3     
  24 C24           -1.5391     5.0130    -2.4606 C.3     
  25 H25            0.6236    -2.7534     0.1160 H       
  26 H26            7.3261    -4.4576    -0.7038 H       
  27 H27            9.7252    -4.8975    -1.0157 H       
  28 H28           11.2857    -3.0321    -1.3836 H       
  29 H29           10.4595    -0.7160    -1.4437 H       
  30 H30            8.0638    -0.2511    -1.1412 H       
  31 H31           -1.5956     2.3352    -0.9745 H       
  32 H32           -1.9923     1.7252     0.6597 H       
  33 H33            1.7908     1.9834     0.8877 H       
  34 H34            1.7378     2.0675    -0.8933 H       
  35 H35            1.3156     4.3069     0.7228 H       
  36 H36           -0.8453     3.5587     1.7374 H       
  37 H37            1.3131     4.7748    -1.6590 H       
  38 H38            0.2525     3.3769    -2.0072 H       
  39 H39           -2.5137     4.3231    -0.3756 H       
  40 H40           -1.6444     5.5171     0.6249 H       
  41 H41           -1.8738     3.9882    -2.6211 H       
  42 H42           -2.4055     5.6675    -2.3653 H       
  43 H43           -0.9326     5.3340    -3.3075 H       
@<TRIPOS>BOND
   1    1    2 am
   2    1   18 1
   3    1   17 1
   4    2    3 1
   5    2   16 2
   6    3    4 2
   7    3    5 1
   8    4    7 1
   9    4   25 1
  10    5    6 1
  11    6    7 2
  12    6    8 1
  13    8    9 3
  14    9   10 1
  15   10   11 ar
  16   10   15 ar
  17   11   12 ar
  18   11   26 1
  19   12   13 ar
  20   12   27 1
  21   13   14 ar
  22   13   28 1
  23   14   15 ar
  24   14   29 1
  25   15   30 1
  26   17   20 1
  27   17   31 1
  28   17   32 1
  29   18   19 1
  30   18   33 1
  31   18   34 1
  32   19   20 1
  33   19   21 1
  34   19   35 1
  35   20   23 1
  36   20   36 1
  37   21   22 1
  38   21   37 1
  39   21   38 1
  40   22   23 1
  41   22   24 1
  42   23   39 1
  43   23   40 1
  44   24   41 1
  45   24   42 1
  46   24   43 1

#	End of record

