#	Name: ASD01410919
#	Creating user name:	WinNT
#	Creation time:	15. 06. 2019 19:18

#	Modifying user name:	WinNT
#	Modification time:	15. 06. 2019 19:18

#	Program:	/corina/corina34_cracker 3.40 0067  02.08.2006

@<TRIPOS>MOLECULE
ASD01410919
  64   67    0    0    0
SMALL
NO_CHARGES


@<TRIPOS>ATOM
   1 C1            -1.5108     3.0156     0.6822 C.ar    
   2 C2            -1.4147     0.7160    -0.0234 C.ar    
   3 C3            -2.8000     0.6728    -0.0840 C.ar    
   4 C4            -3.5488     1.8118     0.2526 C.ar    
   5 C5            -2.8908     2.9858     0.6314 C.ar    
   6 O6            -0.8707     4.1559     1.0561 O.3     
   7 C7            -0.3740     4.9567     0.0801 C.ar    
   8 N8            -3.4463    -0.5001    -0.4677 N.am    
   9 C9            -3.7576    -1.4310     0.4559 C.2     
  10 C10           -3.5618    -1.1421     1.8901 C.ar    
  11 O11           -4.1997    -2.5088     0.1077 O.2     
  12 C12           -2.9226     0.0347     2.2881 C.ar    
  13 C13           -3.8335    -1.7639     4.1986 C.ar    
  14 C14           -3.1944    -0.5989     4.5829 C.ar    
  15 C15           -2.7432     0.2990     3.6286 C.ar    
  16 Br16          -2.9428    -0.2256     6.4195 Br      
  17 N17           -0.6177     4.6716    -1.1886 N.ar    
  18 C18           -3.7877    -0.7217    -1.8750 C.3     
  19 C19           -4.5460     0.4932    -2.4133 C.3     
  20 C20            0.3807     6.0714     0.4226 C.ar    
  21 C21            0.8817     6.8803    -0.5827 C.ar    
  22 C22            0.6084     6.5436    -1.9011 C.ar    
  23 C23           -0.1539     5.4236    -2.1684 C.ar    
  24 C24           -4.0206    -2.0424     2.8573 C.ar    
  25 C25            1.1329     7.3947    -3.0288 C.3     
  26 C26           -0.7730     1.8800     0.3574 C.ar    
  27 F27            0.5763     1.9160     0.4141 F       
  28 N28            2.4521     6.9055    -3.4371 N.pl3   
  29 N29            2.6527     6.0140    -4.3420 N.2     
  30 C30           -2.5055    -0.9226    -2.6853 C.3     
  31 C31           -0.6428    -2.4060    -2.9593 C.3     
  32 O32           -1.8574    -2.1236    -2.2615 O.3     
  33 C33            3.9460     5.8122    -4.4556 C.2     
  34 C34            4.5493     6.6668    -3.5300 C.2     
  35 N35            3.5674     7.3129    -2.9433 N.2     
  36 F36           -4.6448    -3.1803     2.4821 F       
  37 C37           -5.0195     1.7749     0.1911 C.2     
  38 O38           -5.5940     0.7188     0.0132 O.2     
  39 O39           -5.7286     2.9124     0.3319 O.3     
  40 C40            0.6502     6.3960     1.8694 C.3     
  41 F41            1.4262     7.5572     1.9501 F       
  42 F42           -0.5632     6.5988     2.5356 F       
  43 F43            1.3376     5.3333     2.4655 F       
  44 H44           -0.8362    -0.1587    -0.2814 H       
  45 H45           -3.4606     3.8678     0.8842 H       
  46 H46           -2.5694     0.7358     1.5465 H       
  47 H47           -4.1827    -2.4595     4.9474 H       
  48 H48           -2.2491     1.2086     3.9365 H       
  49 H49           -4.4148    -1.6090    -1.9614 H       
  50 H50           -3.9391     1.3887    -2.2798 H       
  51 H51           -4.7550     0.3506    -3.4735 H       
  52 H52           -5.4842     0.6058    -1.8700 H       
  53 H53            1.4714     7.7537    -0.3465 H       
  54 H54           -0.3694     5.1573    -3.1926 H       
  55 H55            0.4474     7.3400    -3.8745 H       
  56 H56            1.2163     8.4290    -2.6950 H       
  57 H57           -2.7528    -0.9973    -3.7442 H       
  58 H58           -1.8390    -0.0748    -2.5268 H       
  59 H59            0.0624    -1.5889    -2.8065 H       
  60 H60           -0.2127    -3.3328    -2.5797 H       
  61 H61           -0.8514    -2.5115    -4.0239 H       
  62 H62            4.4410     5.1260    -5.1268 H       
  63 H63            5.6066     6.7770    -3.3390 H       
  64 H64           -6.6915     2.8382     0.2842 H       
@<TRIPOS>BOND
   1    1   26 ar
   2    1    6 1
   3    1    5 ar
   4    2    3 ar
   5    2   26 ar
   6    2   44 1
   7    3    4 ar
   8    3    8 1
   9    4    5 ar
  10    4   37 1
  11    5   45 1
  12    6    7 1
  13    7   20 ar
  14    7   17 ar
  15    8    9 am
  16    8   18 1
  17    9   11 2
  18    9   10 1
  19   10   12 ar
  20   10   24 ar
  21   12   15 ar
  22   12   46 1
  23   13   14 ar
  24   13   24 ar
  25   13   47 1
  26   14   15 ar
  27   14   16 1
  28   15   48 1
  29   17   23 ar
  30   18   19 1
  31   18   30 1
  32   18   49 1
  33   19   50 1
  34   19   51 1
  35   19   52 1
  36   20   21 ar
  37   20   40 1
  38   21   22 ar
  39   21   53 1
  40   22   23 ar
  41   22   25 1
  42   23   54 1
  43   24   36 1
  44   25   28 1
  45   25   55 1
  46   25   56 1
  47   26   27 1
  48   28   29 1
  49   28   35 1
  50   29   33 2
  51   30   32 1
  52   30   57 1
  53   30   58 1
  54   31   32 1
  55   31   59 1
  56   31   60 1
  57   31   61 1
  58   33   34 1
  59   33   62 1
  60   34   35 2
  61   34   63 1
  62   37   38 2
  63   37   39 1
  64   39   64 1
  65   40   41 1
  66   40   42 1
  67   40   43 1

#	End of record

