#	Name: ASD03731611
#	Creating user name:	WinNT
#	Creation time:	15. 06. 2019 20:46

#	Modifying user name:	WinNT
#	Modification time:	15. 06. 2019 20:46

#	Program:	/corina/corina34_cracker 3.40 0067  02.08.2006

@<TRIPOS>MOLECULE
ASD03731611
  41   42    0    0    0
SMALL
NO_CHARGES


@<TRIPOS>ATOM
   1 C1            -0.1365     1.4671     0.0334 C.2     
   2 C2            -0.0854    -0.0063     0.0192 C.ar    
   3 C3             1.1399    -0.6648    -0.1384 C.ar    
   4 C4             1.1827    -2.0444    -0.1506 C.ar    
   5 C5             0.0128    -2.7784    -0.0068 C.ar    
   6 C6            -1.2081    -2.1271     0.1503 C.ar    
   7 C7            -1.2598    -0.7503     0.1689 C.ar    
   8 O8             0.8866     2.1123    -0.0919 O.2     
   9 N9            -1.3179     2.0990     0.1797 N.am    
  10 S10           -1.3754     3.7539     0.1956 S.o2    
  11 O11           -2.7506     4.0550     0.3895 O.2     
  12 O12           -0.4004     4.1292     1.1589 O.2     
  13 C13           -0.8457     4.2413    -1.4694 C.3     
  14 O14            0.0593    -4.1348    -0.0197 O.3     
  15 C15           -0.1527    -4.7698    -1.2040 C.ar    
  16 C16           -0.0463    -6.1558    -1.2800 C.ar    
  17 C17           -0.2630    -6.7998    -2.4867 C.ar    
  18 C18           -0.5855    -6.0630    -3.6168 C.ar    
  19 C19           -0.6909    -4.6825    -3.5388 C.ar    
  20 C20           -0.4801    -4.0382    -2.3339 C.ar    
  21 O21           -0.7980    -6.6947    -4.8020 O.3     
  22 C22           -1.1263    -5.8741    -5.9248 C.3     
  23 F23           -0.0853    -4.9701    -6.1620 F       
  24 F24           -1.3104    -6.6799    -7.0535 F       
  25 F25           -2.3048    -5.1687    -5.6582 F       
  26 O26            0.2704    -6.8761    -0.1710 O.3     
  27 C27            0.3623    -8.2941    -0.3228 C.3     
  28 F28           -2.3431    -2.8465     0.2897 F       
  29 F29            2.2785     0.0488    -0.2788 F       
  30 H30            2.1273    -2.5536    -0.2724 H       
  31 H31           -2.2067    -0.2464     0.2949 H       
  32 H32           -2.1346     1.5844     0.2757 H       
  33 H33           -1.5279     3.8175    -2.2064 H       
  34 H34           -0.8538     5.3283    -1.5497 H       
  35 H35            0.1629     3.8709    -1.6528 H       
  36 H36           -0.1807    -7.8750    -2.5479 H       
  37 H37           -0.9417    -4.1102    -4.4197 H       
  38 H38           -0.5670    -2.9633    -2.2743 H       
  39 H39            0.6206    -8.7460     0.6348 H       
  40 H40           -0.5963    -8.6860    -0.6628 H       
  41 H41            1.1328    -8.5317    -1.0563 H       
@<TRIPOS>BOND
   1    1    2 1
   2    1    8 2
   3    1    9 am
   4    2    3 ar
   5    2    7 ar
   6    3    4 ar
   7    3   29 1
   8    4    5 ar
   9    4   30 1
  10    5    6 ar
  11    5   14 1
  12    6    7 ar
  13    6   28 1
  14    7   31 1
  15    9   10 am
  16    9   32 1
  17   10   11 2
  18   10   12 2
  19   10   13 1
  20   13   33 1
  21   13   34 1
  22   13   35 1
  23   14   15 1
  24   15   16 ar
  25   15   20 ar
  26   16   17 ar
  27   16   26 1
  28   17   18 ar
  29   17   36 1
  30   18   19 ar
  31   18   21 1
  32   19   20 ar
  33   19   37 1
  34   20   38 1
  35   21   22 1
  36   22   23 1
  37   22   24 1
  38   22   25 1
  39   26   27 1
  40   27   39 1
  41   27   40 1
  42   27   41 1

#	End of record

