#	Name: ASD07020005
#	Creating user name:	WinNT
#	Creation time:	15. 06. 2019 21:08

#	Modifying user name:	WinNT
#	Modification time:	15. 06. 2019 21:08

#	Program:	/corina/corina34_cracker 3.40 0067  02.08.2006

@<TRIPOS>MOLECULE
ASD07020005
  51   55    0    0    0
SMALL
NO_CHARGES


@<TRIPOS>ATOM
   1 C1             1.1175    -0.3102    -1.2628 C.2     
   2 N2            -0.1244     0.0461    -0.8446 N.pl3   
   3 C3            -0.1182     1.4068    -0.6796 C.2     
   4 C4             1.1184     1.8331    -1.0002 C.2     
   5 C5            -1.2096    -0.8162    -0.6235 C.ar    
   6 C6            -1.0662    -2.1807    -0.8340 C.ar    
   7 C7            -2.1339    -3.0287    -0.6160 C.ar    
   8 C8            -3.3500    -2.5170    -0.1870 C.ar    
   9 C9            -3.4939    -1.1533     0.0231 C.ar    
  10 C10           -2.4249    -0.3053    -0.1888 C.ar    
  11 O11           -4.4011    -3.3522     0.0272 O.3     
  12 C12           -4.1509    -4.7540    -0.0933 C.3     
  13 C13           -5.1710    -5.5288     0.7441 C.3     
  14 N14           -4.9274    -6.9702     0.6039 N.3     
  15 C15           -5.0918    -7.4034    -0.7895 C.3     
  16 C16           -4.0694    -6.6845    -1.6727 C.3     
  17 C17           -4.2795    -5.1720    -1.5607 C.3     
  18 C18           -5.7985    -7.7410     1.5011 C.3     
  19 C19           -5.7009    -9.2056     1.1600 C.ar    
  20 C20           -4.7513    -9.9961     1.7793 C.ar    
  21 C21           -4.6575   -11.3404     1.4693 C.ar    
  22 C22           -5.5161   -11.8982     0.5365 C.ar    
  23 C23           -6.4736   -11.1015    -0.0873 C.ar    
  24 C24           -6.5655    -9.7570     0.2323 C.ar    
  25 O25           -5.6306   -13.1720     0.0595 O.3     
  26 C26           -6.9301   -13.2362    -0.5573 C.3     
  27 O27           -7.1877   -11.8765    -0.9550 O.3     
  28 N28            1.8508     0.7660    -1.3519 N.2     
  29 H29            1.4449    -1.3160    -1.4806 H       
  30 H30           -0.9463     2.0196    -0.3553 H       
  31 H31            1.4610     2.8570    -0.9780 H       
  32 H32           -0.1198    -2.5790    -1.1687 H       
  33 H33           -2.0224    -4.0904    -0.7797 H       
  34 H34           -4.4409    -0.7553     0.3564 H       
  35 H35           -2.5356     0.7557    -0.0206 H       
  36 H36           -3.1446    -4.9759     0.2621 H       
  37 H37           -5.0723    -5.2440     1.7916 H       
  38 H38           -6.1777    -5.2952     0.3976 H       
  39 H39           -4.9356    -8.4801    -0.8559 H       
  40 H40           -6.0989    -7.1611    -1.1288 H       
  41 H41           -3.0618    -6.9374    -1.3426 H       
  42 H42           -4.2019    -6.9946    -2.7092 H       
  43 H43           -5.2731    -4.9141    -1.9272 H       
  44 H44           -3.5258    -4.6546    -2.1542 H       
  45 H45           -5.4845    -7.5866     2.5334 H       
  46 H46           -6.8294    -7.4079     1.3813 H       
  47 H47           -4.0807    -9.5628     2.5066 H       
  48 H48           -3.9143   -11.9557     1.9545 H       
  49 H49           -7.3098    -9.1380    -0.2466 H       
  50 H50           -6.9091   -13.8923    -1.4274 H       
  51 H51           -7.6783   -13.5736     0.1601 H       
@<TRIPOS>BOND
   1    1    2 1
   2    1   28 2
   3    1   29 1
   4    2    3 1
   5    2    5 1
   6    3    4 2
   7    3   30 1
   8    4   28 1
   9    4   31 1
  10    5    6 ar
  11    5   10 ar
  12    6    7 ar
  13    6   32 1
  14    7    8 ar
  15    7   33 1
  16    8    9 ar
  17    8   11 1
  18    9   10 ar
  19    9   34 1
  20   10   35 1
  21   11   12 1
  22   12   13 1
  23   12   17 1
  24   12   36 1
  25   13   14 1
  26   13   37 1
  27   13   38 1
  28   14   15 1
  29   14   18 1
  30   15   16 1
  31   15   39 1
  32   15   40 1
  33   16   17 1
  34   16   41 1
  35   16   42 1
  36   17   43 1
  37   17   44 1
  38   18   19 1
  39   18   45 1
  40   18   46 1
  41   19   20 ar
  42   19   24 ar
  43   20   21 ar
  44   20   47 1
  45   21   22 ar
  46   21   48 1
  47   22   23 ar
  48   22   25 1
  49   23   24 ar
  50   23   27 1
  51   24   49 1
  52   25   26 1
  53   26   27 1
  54   26   50 1
  55   26   51 1

#	End of record

