#	Name: ASD01910790
#	Creating user name:	WinNT
#	Creation time:	15. 06. 2019 19:56

#	Modifying user name:	WinNT
#	Modification time:	15. 06. 2019 19:56

#	Program:	/corina/corina34_cracker 3.40 0067  02.08.2006

@<TRIPOS>MOLECULE
ASD01910790
  52   55    0    0    0
SMALL
NO_CHARGES


@<TRIPOS>ATOM
   1 C1            12.2776    -2.4562     4.2121 C.ar    
   2 C2            12.8313    -2.6261     2.9529 C.ar    
   3 N3            12.1310    -2.2745     1.8872 N.ar    
   4 C4            10.9143    -1.7655     2.0141 C.ar    
   5 N5            10.3563    -1.5902     3.2030 N.ar    
   6 C6            11.0027    -1.9210     4.3087 C.ar    
   7 N7            10.2097    -1.4079     0.8778 N.3     
   8 C8             8.8892    -0.8664     1.2258 C.3     
   9 C9             8.2169    -0.3175    -0.0371 C.3     
  10 N10            8.2055    -1.3761    -1.0581 N.am    
  11 C11            9.4702    -2.0622    -1.3633 C.3     
  12 C12           10.0932    -2.5424    -0.0481 C.3     
  13 C13            7.0665    -1.7084    -1.6974 C.2     
  14 C14            7.0992    -2.6851    -2.8041 C.ar    
  15 O15            6.0122    -1.2039    -1.3627 O.2     
  16 C16            6.0767    -3.6302    -2.9331 C.ar    
  17 C17            6.1022    -4.5441    -3.9643 C.ar    
  18 C18            7.1422    -4.5336    -4.8822 C.ar    
  19 C19            8.1746    -3.5888    -4.7632 C.ar    
  20 C20            8.1466    -2.6615    -3.7243 C.ar    
  21 C21            9.2496    -3.5760    -5.7091 C.1     
  22 C22           10.1309    -3.5655    -6.4846 C.1     
  23 C23           11.2060    -3.5527    -7.4306 C.ar    
  24 C24           12.2335    -2.6130    -7.3129 C.ar    
  25 C25           13.2659    -2.6071    -8.2274 C.ar    
  26 C26           13.2855    -3.5283    -9.2599 C.ar    
  27 C27           12.2712    -4.4615    -9.3830 C.ar    
  28 C28           11.2356    -4.4836    -8.4724 C.ar    
  29 O29            7.1624    -5.4361    -5.8945 O.3     
  30 C30            6.0807    -6.3680    -5.9544 C.3     
  31 H31           12.8258    -2.7389     5.0986 H       
  32 H32           13.8227    -3.0401     2.8431 H       
  33 H33           10.5425    -1.7761     5.2749 H       
  34 H34            8.2723    -1.6577     1.6516 H       
  35 H35            9.0056    -0.0637     1.9540 H       
  36 H36            7.1939    -0.0194     0.1927 H       
  37 H37            8.7773     0.5414    -0.4064 H       
  38 H38            9.2759    -2.9176    -2.0102 H       
  39 H39           10.1511    -1.3710    -1.8600 H       
  40 H40           11.0828    -2.9552    -0.2438 H       
  41 H41            9.4595    -3.3103     0.3954 H       
  42 H42            5.2642    -3.6442    -2.2217 H       
  43 H43            5.3095    -5.2717    -4.0580 H       
  44 H44            8.9371    -1.9321    -3.6273 H       
  45 H45           12.2192    -1.8930    -6.5081 H       
  46 H46           14.0608    -1.8814    -8.1378 H       
  47 H47           14.0963    -3.5186    -9.9733 H       
  48 H48           12.2927    -5.1770   -10.1917 H       
  49 H49           10.4446    -5.2124    -8.5697 H       
  50 H50            6.0573    -6.9569    -5.0375 H       
  51 H51            5.1407    -5.8271    -6.0630 H       
  52 H52            6.2192    -7.0310    -6.8085 H       
@<TRIPOS>BOND
   1    1    2 ar
   2    1    6 ar
   3    1   31 1
   4    2    3 ar
   5    2   32 1
   6    3    4 ar
   7    4    5 ar
   8    4    7 1
   9    5    6 ar
  10    6   33 1
  11    7    8 1
  12    7   12 1
  13    8    9 1
  14    8   34 1
  15    8   35 1
  16    9   10 1
  17    9   36 1
  18    9   37 1
  19   10   11 1
  20   10   13 am
  21   11   12 1
  22   11   38 1
  23   11   39 1
  24   12   40 1
  25   12   41 1
  26   13   14 1
  27   13   15 2
  28   14   16 ar
  29   14   20 ar
  30   16   17 ar
  31   16   42 1
  32   17   18 ar
  33   17   43 1
  34   18   19 ar
  35   18   29 1
  36   19   20 ar
  37   19   21 1
  38   20   44 1
  39   21   22 3
  40   22   23 1
  41   23   24 ar
  42   23   28 ar
  43   24   25 ar
  44   24   45 1
  45   25   26 ar
  46   25   46 1
  47   26   27 ar
  48   26   47 1
  49   27   28 ar
  50   27   48 1
  51   28   49 1
  52   29   30 1
  53   30   50 1
  54   30   51 1
  55   30   52 1

#	End of record

