#	Name: ASD00170828
#	Creating user name:	WinNT
#	Creation time:	15. 06. 2019 18:32

#	Modifying user name:	WinNT
#	Modification time:	15. 06. 2019 18:32

#	Program:	/corina/corina34_cracker 3.40 0067  02.08.2006

@<TRIPOS>MOLECULE
ASD00170828
  49   53    0    0    0
SMALL
NO_CHARGES


@<TRIPOS>ATOM
   1 C1             0.6331     0.6286     0.6916 C.2     
   2 N2            -0.0333     0.0417    -0.3189 N.am    
   3 C3             0.5193     0.3491    -1.5063 C.2     
   4 C4             1.6784     1.2351    -1.2710 C.ar    
   5 C5             2.6061     1.8544    -2.0932 C.ar    
   6 C6             3.5992     2.6445    -1.5356 C.ar    
   7 C7             3.6701     2.8187    -0.1661 C.ar    
   8 C8             2.7491     2.2056     0.6689 C.ar    
   9 C9             1.7507     1.4128     0.1259 C.ar    
  10 O10            0.3591     0.5340     1.8708 O.2     
  11 O11            0.1309    -0.0372    -2.5901 O.2     
  12 C12           -1.1433    -0.7731    -0.1578 C.2     
  13 C13           -1.1012    -2.1441    -0.0399 C.2     
  14 C14           -2.3575    -2.7329     0.1130 C.2     
  15 C15           -3.3706    -1.8521     0.1163 C.2     
  16 S16           -2.7540    -0.2182    -0.0704 S.3     
  17 C17           -4.7958    -2.2052     0.2618 C.ar    
  18 C18           -5.5781    -1.5692     1.2307 C.ar    
  19 C19           -6.8972    -1.8958     1.3656 C.ar    
  20 C20           -7.4658    -2.8663     0.5341 C.ar    
  21 C21           -6.6832    -3.5021    -0.4353 C.ar    
  22 C22           -5.3653    -3.1716    -0.5731 C.ar    
  23 C23           -8.8489    -3.2093     0.6757 C.1     
  24 N24           -9.9461    -3.4814     0.7879 N.1     
  25 C25            0.1465    -2.9137    -0.0725 C.2     
  26 C26            0.5958    -3.5401    -1.3340 C.ar    
  27 C27            1.7327    -4.3506    -1.3481 C.ar    
  28 C28            2.1469    -4.9320    -2.5278 C.ar    
  29 C29            1.4376    -4.7134    -3.6974 C.ar    
  30 C30            0.3089    -3.9103    -3.6897 C.ar    
  31 C31           -0.1184    -3.3281    -2.5150 C.ar    
  32 O32            0.8122    -3.0370     0.9390 O.2     
  33 Cl33           1.9655    -5.4484    -5.1789 Cl      
  34 C34           -2.5580    -4.2192     0.2601 C.3     
  35 Br35          -2.5027    -4.7025     2.1650 Br      
  36 H36            2.5559     1.7217    -3.1638 H       
  37 H37            4.3229     3.1272    -2.1757 H       
  38 H38            4.4488     3.4364     0.2563 H       
  39 H39            2.8096     2.3449     1.7382 H       
  40 H40           -5.1390    -0.8199     1.8726 H       
  41 H41           -7.5012    -1.4051     2.1144 H       
  42 H42           -7.1219    -4.2517    -1.0772 H       
  43 H43           -4.7619    -3.6598    -1.3241 H       
  44 H44            2.2868    -4.5214    -0.4369 H       
  45 H45            3.0263    -5.5588    -2.5401 H       
  46 H46           -0.2399    -3.7433    -4.6048 H       
  47 H47           -1.0010    -2.7058    -2.5094 H       
  48 H48           -3.5252    -4.4985    -0.1577 H       
  49 H49           -1.7664    -4.7470    -0.2717 H       
@<TRIPOS>BOND
   1    1    2 am
   2    1    9 1
   3    1   10 2
   4    2    3 am
   5    2   12 1
   6    3    4 1
   7    3   11 2
   8    4    5 ar
   9    4    9 ar
  10    5    6 ar
  11    5   36 1
  12    6    7 ar
  13    6   37 1
  14    7    8 ar
  15    7   38 1
  16    8    9 ar
  17    8   39 1
  18   12   13 2
  19   12   16 1
  20   13   14 1
  21   13   25 1
  22   14   15 2
  23   14   34 1
  24   15   16 1
  25   15   17 1
  26   17   18 ar
  27   17   22 ar
  28   18   19 ar
  29   18   40 1
  30   19   20 ar
  31   19   41 1
  32   20   21 ar
  33   20   23 1
  34   21   22 ar
  35   21   42 1
  36   22   43 1
  37   23   24 3
  38   25   26 1
  39   25   32 2
  40   26   27 ar
  41   26   31 ar
  42   27   28 ar
  43   27   44 1
  44   28   29 ar
  45   28   45 1
  46   29   30 ar
  47   29   33 1
  48   30   31 ar
  49   30   46 1
  50   31   47 1
  51   34   35 1
  52   34   48 1
  53   34   49 1

#	End of record

