#	Name: ASD02030081
#	Creating user name:	WinNT
#	Creation time:	15. 06. 2019 20:14

#	Modifying user name:	WinNT
#	Modification time:	15. 06. 2019 20:14

#	Program:	/corina/corina34_cracker 3.40 0067  02.08.2006

@<TRIPOS>MOLECULE
ASD02030081
  39   40    0    0    0
SMALL
NO_CHARGES


@<TRIPOS>ATOM
   1 C1             2.7367    -3.0515     4.9044 C.2     
   2 C2             2.0463    -3.3630     3.6340 C.ar    
   3 C3             0.8399    -4.0659     3.6491 C.ar    
   4 C4             0.1965    -4.3556     2.4657 C.ar    
   5 C5             0.7509    -3.9464     1.2513 C.ar    
   6 C6             1.9575    -3.2440     1.2361 C.ar    
   7 C7             2.5979    -2.9492     2.4199 C.ar    
   8 O8             2.2543    -3.4071     5.9607 O.2     
   9 O9             3.9032    -2.3784     4.8895 O.3     
  10 C10            0.0598    -4.2577    -0.0199 C.2     
  11 C11           -1.1447    -5.1045    -0.0148 C.ar    
  12 C12           -2.4100    -4.5288     0.1572 C.ar    
  13 C13           -3.5371    -5.3335     0.1600 C.ar    
  14 C14           -3.4152    -6.7063    -0.0069 C.ar    
  15 C15           -2.1708    -7.2824    -0.1772 C.ar    
  16 C16           -1.0325    -6.4928    -0.1882 C.ar    
  17 O17            0.4867    -3.8142    -1.0684 O.2     
  18 O18            0.1879    -7.0606    -0.3613 O.3     
  19 C19            0.2254    -8.4789    -0.5316 C.3     
  20 O20           -0.2215    -8.8125    -1.8473 O.3     
  21 C21            0.7350    -8.5383    -2.8730 C.3     
  22 O22           -4.7673    -4.7772     0.3274 O.3     
  23 C23           -5.8872    -5.6648     0.3201 C.3     
  24 F24           -2.5304    -3.1931     0.3202 F       
  25 H25            0.4113    -4.3827     4.5884 H       
  26 H26           -0.7364    -4.8996     2.4774 H       
  27 H27            2.3866    -2.9281     0.2968 H       
  28 H28            3.5288    -2.4017     2.4085 H       
  29 H29            4.3170    -2.1980     5.7447 H       
  30 H30           -4.2984    -7.3278    -0.0033 H       
  31 H31           -2.0856    -8.3513    -0.3060 H       
  32 H32            1.2464    -8.8346    -0.3936 H       
  33 H33           -0.4263    -8.9505     0.2039 H       
  34 H34            0.9718    -7.4744    -2.8739 H       
  35 H35            1.6426    -9.1124    -2.6863 H       
  36 H36            0.3202    -8.8191    -3.8411 H       
  37 H37           -5.9298    -6.1881    -0.6351 H       
  38 H38           -5.7814    -6.3898     1.1271 H       
  39 H39           -6.8045    -5.0936     0.4628 H       
@<TRIPOS>BOND
   1    1    2 1
   2    1    8 2
   3    1    9 1
   4    2    3 ar
   5    2    7 ar
   6    3    4 ar
   7    3   25 1
   8    4    5 ar
   9    4   26 1
  10    5    6 ar
  11    5   10 1
  12    6    7 ar
  13    6   27 1
  14    7   28 1
  15    9   29 1
  16   10   11 1
  17   10   17 2
  18   11   12 ar
  19   11   16 ar
  20   12   13 ar
  21   12   24 1
  22   13   14 ar
  23   13   22 1
  24   14   15 ar
  25   14   30 1
  26   15   16 ar
  27   15   31 1
  28   16   18 1
  29   18   19 1
  30   19   20 1
  31   19   32 1
  32   19   33 1
  33   20   21 1
  34   21   34 1
  35   21   35 1
  36   21   36 1
  37   22   23 1
  38   23   37 1
  39   23   38 1
  40   23   39 1

#	End of record

