#	Name: ASD01830011
#	Creating user name:	WinNT
#	Creation time:	15. 06. 2019 19:36

#	Modifying user name:	WinNT
#	Modification time:	15. 06. 2019 19:36

#	Program:	/corina/corina34_cracker 3.40 0067  02.08.2006

@<TRIPOS>MOLECULE
ASD01830011
  57   63    0    0    0
SMALL
NO_CHARGES


@<TRIPOS>ATOM
   1 N1             0.4613     1.8733    -0.4272 N.am    
   2 C2             0.5927     0.5458    -0.6237 C.2     
   3 C3            -0.5596    -0.3779    -0.3497 C.3     
   4 C4            -1.5856     0.1642     0.6435 C.3     
   5 C5            -1.3334     1.6070     0.9935 C.3     
   6 C6            -0.9153     2.4210    -0.2191 C.3     
   7 C7            -2.3312     2.3049     1.8706 C.3     
   8 C8            -1.6563     3.5875     2.3898 C.3     
   9 C9            -1.4453     4.5058     1.2044 C.3     
  10 C10           -0.7226     3.9026     0.0213 C.3     
  11 C11            1.3830     2.8726    -0.2285 C.ar    
  12 C12            0.7684     4.0952     0.0665 C.ar    
  13 C13            1.4959     5.2395     0.3322 C.ar    
  14 C14            2.8806     5.1382     0.2814 C.ar    
  15 C15            3.5000     3.9434    -0.0234 C.ar    
  16 C16            2.7800     2.7901    -0.2837 C.ar    
  17 O17            1.6456     0.0957    -1.0236 O.2     
  18 N18           -2.7203     5.0450     0.7152 N.4     
  19 C19           -3.5508     2.6983     1.0805 C.2     
  20 C20           -3.7848     4.0708     0.5640 C.3     
  21 C21           -1.2439     4.7220    -1.1890 C.3     
  22 O22           -2.8950    -0.0165     0.0934 O.3     
  23 C23           -4.3667     1.7309     0.7295 C.2     
  24 C24           -3.9743     0.3004     0.9774 C.3     
  25 H25           -0.4320     1.5759     1.6055 H       
  26 H26           -2.6069     1.6626     2.7070 H       
  27 H27           -1.5233    -0.4267     1.5574 H       
  28 H28           -1.5623     2.2246    -1.0741 H       
  29 H29           -0.8556     5.3555     1.5486 H       
  30 C30           -2.4279     5.5456    -0.6577 C.3     
  31 C31           -3.1650     6.1443     1.5823 C.3     
  32 C32           -4.4144     6.7930     0.9830 C.3     
  33 C33           -4.7991     8.0204     1.8115 C.3     
  34 H34           -1.0672    -0.5854    -1.2917 H       
  35 H35           -0.1648    -1.3164     0.0394 H       
  36 H36           -2.2997     4.0729     3.1237 H       
  37 H37           -0.6960     3.3425     2.8434 H       
  38 H38            1.0085     6.1737     0.5692 H       
  39 H39            3.4835     6.0110     0.4839 H       
  40 H40            4.5788     3.9068    -0.0596 H       
  41 H41            3.2771     1.8612    -0.5213 H       
  42 H42           -4.6703     4.4665     1.0615 H       
  43 H43           -4.0140     3.9914    -0.4986 H       
  44 H44           -0.4616     5.3842    -1.5600 H       
  45 H45           -1.5774     4.0519    -1.9814 H       
  46 H46           -5.3142     1.9613     0.2651 H       
  47 H47           -4.8214    -0.3551     0.7755 H       
  48 H48           -3.6518     0.1801     2.0116 H       
  49 H49           -3.2978     5.4040    -1.2989 H       
  50 H50           -2.1601     6.6015    -0.6201 H       
  51 H51           -3.3979     5.7541     2.5731 H       
  52 H52           -2.3721     6.8879     1.6618 H       
  53 H53           -4.2091     7.0972    -0.0434 H       
  54 H54           -5.2358     6.0765     0.9922 H       
  55 H55           -5.6891     8.4825     1.3845 H       
  56 H56           -5.0044     7.7162     2.8378 H       
  57 H57           -3.9777     8.7369     1.8023 H       
@<TRIPOS>BOND
   1    1    2 am
   2    1   11 1
   3    1    6 1
   4    2    3 1
   5    2   17 2
   6    3    4 1
   7    3   34 1
   8    3   35 1
   9    4    5 1
  10    4   22 1
  11    4   27 1
  12    5    6 1
  13    5   25 1
  14    5    7 1
  15    6   10 1
  16    6   28 1
  17    7    8 1
  18    7   19 1
  19    7   26 1
  20    8    9 1
  21    8   36 1
  22    8   37 1
  23    9   10 1
  24    9   18 1
  25    9   29 1
  26   10   21 1
  27   10   12 1
  28   11   12 ar
  29   11   16 ar
  30   12   13 ar
  31   13   14 ar
  32   13   38 1
  33   14   15 ar
  34   14   39 1
  35   15   16 ar
  36   15   40 1
  37   16   41 1
  38   18   20 1
  39   18   30 1
  40   18   31 1
  41   19   23 2
  42   19   20 1
  43   20   42 1
  44   20   43 1
  45   21   30 1
  46   21   44 1
  47   21   45 1
  48   22   24 1
  49   23   24 1
  50   23   46 1
  51   24   47 1
  52   24   48 1
  53   30   49 1
  54   30   50 1
  55   31   32 1
  56   31   51 1
  57   31   52 1
  58   32   33 1
  59   32   53 1
  60   32   54 1
  61   33   55 1
  62   33   56 1
  63   33   57 1

#	End of record

