#	Name: ASD06590035
#	Creating user name:	WinNT
#	Creation time:	15. 06. 2019 21:06

#	Modifying user name:	WinNT
#	Modification time:	15. 06. 2019 21:06

#	Program:	/corina/corina34_cracker 3.40 0067  02.08.2006

@<TRIPOS>MOLECULE
ASD06590035
 386  387    0    0    0
SMALL
NO_CHARGES


@<TRIPOS>ATOM
   1 C1             2.4370    26.2457     4.5665 C.2     
   2 O2             2.7621    25.4930     3.6728 O.2     
   3 N3             4.0628    27.8106     3.6652 N.3     
   4 C4             2.8946    27.6814     4.5464 C.3     
   5 C5             1.7629    28.5702     4.0265 C.3     
   6 C6             2.1822    30.0385     4.1230 C.3     
   7 C7             1.0505    30.9272     3.6031 C.3     
   8 N8             1.4520    32.3331     3.6955 N.pl3   
   9 C9             0.5912    33.3221     3.2833 C.2     
  10 N10           -0.5387    33.0078     2.7181 N.2     
  11 N11            0.9249    34.6499     3.4689 N.am    
  12 C12           -0.0603    24.2976     6.3918 C.2     
  13 O13           -0.5436    25.2878     6.8988 O.2     
  14 N14            1.6618    25.7996     5.5748 N.am    
  15 C15            1.2119    24.4055     5.5912 C.3     
  16 C16            2.2916    23.5287     6.2287 C.3     
  17 C17            3.5430    23.5398     5.3485 C.3     
  18 C18            4.6065    22.6762     5.9764 C.2     
  19 O19            4.3861    22.1099     7.0207 O.2     
  20 O20            5.7985    22.5361     5.3755 O.3     
  21 C21           -2.0353    21.5950     7.8608 C.2     
  22 O22           -1.2277    20.7446     7.5518 O.2     
  23 N23           -0.6609    23.1008     6.5445 N.am    
  24 C24           -1.8977    22.9959     7.3228 C.3     
  25 C25           -3.0941    23.3173     6.4250 C.3     
  26 C26           -2.9507    24.7371     5.8731 C.3     
  27 O27           -3.1397    22.3873     5.3410 O.3     
  28 C28           -4.7229    19.5406     8.9318 C.2     
  29 O29           -5.5046    20.3646     8.5064 O.2     
  30 N30           -3.0560    21.2870     8.6853 N.am    
  31 C31           -3.2687    19.8983     9.1007 C.3     
  32 C32           -2.8715    19.7388    10.5696 C.3     
  33 C33           -1.4080    20.0594    10.7318 C.2     
  34 O34           -0.7389    20.3465     9.7619 O.2     
  35 N35           -0.8426    20.0270    11.9549 N.am    
  36 C36           -6.9226    16.8362    10.0319 C.2     
  37 O37           -6.0774    16.3731    10.7683 O.2     
  38 N38           -5.1547    18.3051     9.2535 N.am    
  39 C39           -6.5684    17.9574     9.0894 C.3     
  40 C40           -6.8196    17.5105     7.6479 C.3     
  41 C41           -9.9771    14.9003    10.8040 C.2     
  42 O42          -10.6587    15.4971     9.9977 O.2     
  43 N43           -8.1786    16.3480    10.0566 N.am    
  44 C44           -8.5229    15.2580    10.9729 C.3     
  45 C45          -12.4479    12.9432    12.6556 C.2     
  46 O46          -11.7065    12.8014    13.6048 O.2     
  47 N47          -10.5202    13.9172    11.5490 N.am    
  48 C48          -11.9338    13.5695    11.3849 C.3     
  49 C49          -12.0842    12.5771    10.2301 C.3     
  50 C50          -11.6792    13.2546     8.9195 C.3     
  51 C51          -11.8295    12.2622     7.7647 C.3     
  52 N52          -11.4417    12.9109     6.5097 N.pl3   
  53 C53          -11.4953    12.2098     5.3283 C.2     
  54 N54          -11.8911    10.9679     5.3248 N.2     
  55 N55          -11.1313    12.8186     4.1506 N.pl3   
  56 C56          -15.4082    11.0458    13.6552 C.2     
  57 O57          -15.7918    10.9338    12.5101 O.2     
  58 N58          -13.7316    12.5409    12.7371 N.am    
  59 C59          -14.2314    11.9321    13.9724 C.3     
  60 C60          -14.6678    13.0317    14.9426 C.3     
  61 O61          -15.7812    13.7383    14.3920 O.3     
  62 C62          -18.4380    10.5235    14.3423 C.2     
  63 O63          -18.2928    11.7085    14.5559 O.2     
  64 N64          -16.0345    10.3778    14.6441 N.am    
  65 C65          -17.2441     9.6040    14.3536 C.3     
  66 C66          -17.4353     8.5332    15.4296 C.3     
  67 C67          -16.3139     7.5300    15.3447 C.2     
  68 O68          -15.4080     7.7012    14.5637 O.2     
  69 O69          -16.3214     6.4464    16.1368 O.3     
  70 C70          -22.0723    10.1342    14.4001 C.2     
  71 O71          -21.9972     8.9426    14.6136 O.2     
  72 N72          -19.6672    10.0290    14.0949 N.am    
  73 C73          -20.8278    10.9229    14.0839 C.3     
  74 C74          -20.9665    11.5617    12.7006 C.3     
  75 C75          -19.6565    12.2582    12.3268 C.3     
  76 O76          -21.2599    10.5493    11.7357 O.3     
  77 C77          -25.6787    10.6850    14.1676 C.2     
  78 O78          -25.5372    11.7215    13.5541 O.2     
  79 N79          -23.2688    10.7528    14.4456 N.am    
  80 C80          -24.4787     9.9860    14.7530 C.3     
  81 C81          -24.6418     9.8772    16.2704 C.3     
  82 C82          -23.4861     9.0593    16.8502 C.3     
  83 C83          -23.6492     8.9505    18.3676 C.3     
  84 N84          -22.5425     8.1674    18.9228 N.pl3   
  85 C85          -22.4758     7.9351    20.2762 C.2     
  86 N86          -21.4912     7.2384    20.7701 N.2     
  87 N87          -23.4477     8.4378    21.1086 N.pl3   
  88 C88          -29.3085    10.4553    14.5345 C.2     
  89 O89          -29.2214     9.6905    15.4717 O.2     
  90 N90          -26.9091    10.1581    14.3259 N.am    
  91 C91          -28.0756    10.8376    13.7568 C.3     
  92 C92          -28.2453    10.4210    12.2945 C.3     
  93 C93          -27.0496    10.9191    11.4801 C.3     
  94 C94          -27.2169    10.5087    10.0398 C.2     
  95 O95          -28.1960     9.8798     9.6982 O.2     
  96 N96          -26.2784    10.8406     9.1312 N.am    
  97 C97          -32.9222    10.7489    14.0678 C.2     
  98 O98          -32.7995    11.1337    12.9242 O.2     
  99 N99          -30.5080    10.9632    14.1884 N.am    
 100 C100         -31.7065    10.5915    14.9443 C.3     
 101 C101         -31.8394    11.4996    16.1685 C.3     
 102 C102         -30.6672    11.2487    17.1192 C.3     
 103 C103         -30.7981    12.1432    18.3250 C.2     
 104 O104         -31.7365    12.9062    18.4151 O.2     
 105 N105         -29.8723    12.0952    19.3033 N.am    
 106 C106         -36.5427    10.8417    14.5647 C.2     
 107 O107         -36.4323    10.8724    15.7721 O.2     
 108 N108         -34.1458    10.4621    14.5546 N.am    
 109 C109         -35.3276    10.6151    13.7025 C.3     
 110 C110         -35.5230     9.3471    12.8690 C.3     
 111 C111         -34.3644     9.1871    11.9187 C.ar    
 112 C112         -33.2432     8.4792    12.3105 C.ar    
 113 C113         -32.1795     8.3314    11.4415 C.ar    
 114 C114         -32.2372     8.8937    10.1745 C.ar    
 115 O115         -31.1923     8.7494     9.3176 O.3     
 116 C116         -33.3635     9.6031     9.7836 C.ar    
 117 C117         -34.4266     9.7436    10.6546 C.ar    
 118 C118         -40.1666    10.7878    14.0883 C.2     
 119 O119         -40.0687    10.3329    12.9683 O.2     
 120 N120         -37.7520    11.0103    13.9940 N.am    
 121 C121         -38.9331    11.2306    14.8322 C.3     
 122 C122         -39.0482    12.7183    15.1705 C.3     
 123 C123         -37.8561    13.1390    16.0324 C.3     
 124 C124         -37.9712    14.6267    16.3707 C.3     
 125 N125         -36.8298    15.0296    17.1959 N.pl3   
 126 C126         -36.7171    16.3308    17.6253 C.2     
 127 N127         -37.6259    17.2060    17.2980 N.2     
 128 N128         -35.6460    16.7088    18.3997 N.pl3   
 129 C129         -43.7773    11.2099    14.4733 C.2     
 130 O130         -43.6437    12.0195    15.3664 O.2     
 131 N131         -41.3786    10.8971    14.6676 N.am    
 132 C132         -42.5777    10.4666    13.9444 C.3     
 133 C133         -42.7809     8.9632    14.1432 C.3     
 134 C134         -41.6225     8.2020    13.4955 C.3     
 135 C135         -41.8256     6.6987    13.6942 C.3     
 136 C136         -40.6672     5.9374    13.0465 C.3     
 137 N137         -40.8623     4.4940    13.2373 N.3     
 138 C138         -47.4065    10.9591    14.2544 C.2     
 139 O139         -47.4396    10.0158    13.4928 O.2     
 140 N140         -44.9985    10.9749    13.9539 N.am    
 141 C141         -46.1462    11.7741    14.3901 C.3     
 142 C142         -46.2540    13.0286    13.5209 C.3     
 143 C143         -47.3556    13.9369    14.0708 C.3     
 144 C144         -46.9458    14.4581    15.4497 C.3     
 145 C145         -47.5644    15.1178    13.1207 C.3     
 146 C146         -50.9104    11.4197    15.1890 C.2     
 147 O147         -50.7084    12.5380    15.6127 O.2     
 148 N148         -48.4969    11.2784    14.9794 N.am    
 149 C149         -49.7514    10.5499    14.7752 C.3     
 150 C150         -49.7438     9.2744    15.6202 C.3     
 151 C151         -48.6446     8.3363    15.1177 C.3     
 152 C152         -48.5540     7.1176    16.0382 C.3     
 153 C153         -48.9758     7.8780    13.6960 C.3     
 154 C154         -53.5215    11.6670    16.9748 C.2     
 155 O155         -52.8096    10.9375    17.6320 O.2     
 156 N156         -52.1715    10.9549    15.0882 N.am    
 157 C157         -53.2982    11.8004    15.4904 C.3     
 158 C158         -54.5586    11.3598    14.7434 C.3     
 159 C159         -54.3807    11.6082    13.2677 C.ar    
 160 C160         -53.8388    10.6245    12.4617 C.ar    
 161 C161         -53.6755    10.8524    11.1081 C.ar    
 162 C162         -54.0546    12.0637    10.5604 C.ar    
 163 C163         -54.5973    13.0470    11.3663 C.ar    
 164 C164         -54.7646    12.8176    12.7192 C.ar    
 165 C165         -55.5993    11.0284    19.2863 C.2     
 166 O166         -55.9971    10.3508    18.3685 O.2     
 167 N167         -54.5123    12.3584    17.5720 N.am    
 168 C168         -54.7294    12.2288    19.0150 C.3     
 169 C169         -55.4197    13.4884    19.5421 C.3     
 170 O170         -56.7256    13.5903    18.9710 O.3     
 171 O171         -55.9322    10.7121    20.5476 O.3     
 172 C172           2.1279    34.9772     3.9808 C.2     
 173 O173           2.9569    34.1151     4.1799 O.2     
 174 C174          14.6151    47.3065    10.5570 C.3     
 175 C175          14.2956    45.8470    10.2271 C.3     
 176 C176          12.8762    45.7505     9.6640 C.3     
 177 C177          12.5566    44.2911     9.3341 C.3     
 178 C178          11.1373    44.1945     8.7710 C.3     
 179 C179          10.8177    42.7351     8.4410 C.3     
 180 C180           9.3984    42.6385     7.8780 C.3     
 181 C181           9.0788    41.1791     7.5480 C.3     
 182 C182           7.6594    41.0826     6.9849 C.3     
 183 C183           7.3399    39.6232     6.6550 C.3     
 184 C184           5.9205    39.5266     6.0919 C.3     
 185 C185           5.6009    38.0672     5.7619 C.3     
 186 C186           4.1816    37.9706     5.1989 C.3     
 187 C187           3.8620    36.5112     4.8689 C.3     
 188 C188           2.4427    36.4147     4.3058 C.3     
 189 H189           4.8454    27.2834     4.0225 H       
 190 H190           3.8377    27.5296     2.7226 H       
 191 H191           3.1650    27.9908     5.5559 H       
 192 H192           1.5528    28.3199     2.9867 H       
 193 H193           0.8681    28.4077     4.6273 H       
 194 H194           2.3923    30.2888     5.1628 H       
 195 H195           3.0770    30.2010     3.5222 H       
 196 H196           0.8404    30.6769     2.5633 H       
 197 H197           0.1557    30.7647     4.2039 H       
 198 H198           2.3253    32.5660     4.0475 H       
 199 H199          -1.1781    33.7017     2.4934 H       
 200 H200           0.2933    35.3466     3.2307 H       
 201 H201           1.4018    26.4016     6.2895 H       
 202 H202           1.0281    24.0710     4.5702 H       
 203 H203           2.5388    23.9173     7.2166 H       
 204 H204           1.9221    22.5075     6.3220 H       
 205 H205           3.2958    23.1512     4.3606 H       
 206 H206           3.9125    24.5610     5.2552 H       
 207 H207           6.4487    21.9720     5.8162 H       
 208 H208          -0.2744    22.3089     6.1391 H       
 209 H209          -1.8659    23.7022     8.1524 H       
 210 H210          -4.0139    23.2443     7.0053 H       
 211 H211          -2.0880    24.7832     5.2084 H       
 212 H212          -3.8507    25.0043     5.3193 H       
 213 H213          -2.8113    25.4354     6.6983 H       
 214 H214          -3.2301    21.4651     5.6176 H       
 215 H215          -3.6498    21.9849     9.0038 H       
 216 H216          -2.6582    19.2375     8.4853 H       
 217 H217          -3.4627    20.4197    11.1818 H       
 218 H218          -3.0559    18.7122    10.8864 H       
 219 H219          -1.3777    19.7973    12.7306 H       
 220 H220           0.0994    20.2334    12.0593 H       
 221 H221          -4.5295    17.6461     9.5937 H       
 222 H222          -7.1850    18.8281     9.3125 H       
 223 H223          -6.2030    16.6398     7.4247 H       
 224 H224          -7.8714    17.2518     7.5257 H       
 225 H225          -6.5634    18.3214     6.9661 H       
 226 H226          -8.8545    16.7183     9.4677 H       
 227 H227          -8.3440    15.5764    11.9998 H       
 228 H228          -7.9063    14.3873    10.7497 H       
 229 H229          -9.9750    13.4399    12.1939 H       
 230 H230         -12.5066    14.4707    11.1664 H       
 231 H231         -11.4420    11.7142    10.4067 H       
 232 H232         -13.1220    12.2503    10.1647 H       
 233 H233         -12.3213    14.1175     8.7429 H       
 234 H234         -10.6413    13.5813     8.9849 H       
 235 H235         -11.1873    11.3993     7.9412 H       
 236 H236         -12.8673    11.9354     7.6992 H       
 237 H237         -11.1471    13.8351     6.5123 H       
 238 H238         -11.9289    10.4732     4.4913 H       
 239 H239         -10.8368    13.7427     4.1531 H       
 240 H240         -11.1691    12.3239     3.3170 H       
 241 H241         -14.3246    12.6543    11.9779 H       
 242 H242         -13.4410    11.3368    14.4297 H       
 243 H243         -14.9560    12.5838    15.8936 H       
 244 H244         -13.8413    13.7240    15.1027 H       
 245 H245         -16.1116    14.4518    14.9550 H       
 246 H246         -15.6844    10.4093    15.5482 H       
 247 H247         -17.1444     9.1261    13.3791 H       
 248 H248         -17.4298     9.0019    16.4137 H       
 249 H249         -18.3880     8.0272    15.2735 H       
 250 H250         -15.5808     5.8313    16.0463 H       
 251 H251         -19.7833     9.0813    13.9241 H       
 252 H252         -20.6923    11.7035    14.8326 H       
 253 H253         -21.7748    12.2928    12.7174 H       
 254 H254         -18.8482    11.5271    12.3100 H       
 255 H255         -19.7553    12.7132    11.3412 H       
 256 H256         -19.4327    13.0304    13.0627 H       
 257 H257         -20.5818     9.8635    11.6666 H       
 258 H258         -23.3289    11.7058    14.2749 H       
 259 H259         -24.3948     8.9875    14.3240 H       
 260 H260         -24.6366    10.8751    16.7088 H       
 261 H261         -25.5866     9.3845    16.4998 H       
 262 H262         -23.4913     8.0614    16.4117 H       
 263 H263         -22.5413     9.5521    16.6207 H       
 264 H264         -23.6440     9.9484    18.8060 H       
 265 H265         -24.5940     8.4578    18.5970 H       
 266 H266         -21.8568     7.8127    18.3355 H       
 267 H267         -21.4442     7.0745    21.7250 H       
 268 H268         -24.1805     8.9563    20.7410 H       
 269 H269         -23.4007     8.2739    22.0635 H       
 270 H270         -27.0222     9.3291    14.8166 H       
 271 H271         -27.9307    11.9165    13.8128 H       
 272 H272         -28.3012     9.3343    12.2304 H       
 273 H273         -29.1623    10.8560    11.8968 H       
 274 H274         -26.9938    12.0058    11.5442 H       
 275 H275         -26.1327    10.4840    11.8778 H       
 276 H276         -25.4952    11.3436     9.4044 H       
 277 H277         -26.3860    10.5765     8.2041 H       
 278 H278         -30.5776    11.5748    13.4387 H       
 279 H279         -31.6244     9.5541    15.2687 H       
 280 H280         -31.8323    12.5420    15.8501 H       
 281 H281         -32.7763    11.2828    16.6817 H       
 282 H282         -30.6744    10.2063    17.4377 H       
 283 H283         -29.7303    11.4654    16.6060 H       
 284 H284         -29.1218    11.4849    19.2313 H       
 285 H285         -29.9566    12.6709    20.0794 H       
 286 H286         -34.2439    10.1543    15.4693 H       
 287 H287         -35.1889    11.4685    13.0387 H       
 288 H288         -35.5729     8.4819    13.5300 H       
 289 H289         -36.4503     9.4247    12.3014 H       
 290 H290         -33.1987     8.0417    13.2969 H       
 291 H291         -31.3037     7.7790    11.7482 H       
 292 H292         -31.2497     7.9642     8.7561 H       
 293 H293         -33.4107    10.0421     8.7980 H       
 294 H294         -35.3055    10.2920    10.3492 H       
 295 H295         -37.8402    10.9858    13.0284 H       
 296 H296         -38.8378    10.6550    15.7529 H       
 297 H297         -39.0541    13.3010    14.2493 H       
 298 H298         -39.9735    12.8958    15.7186 H       
 299 H299         -37.8502    12.5564    16.9535 H       
 300 H300         -36.9308    12.9616    15.4842 H       
 301 H301         -37.9771    15.2094    15.4495 H       
 302 H302         -38.8965    14.8042    16.9188 H       
 303 H303         -36.1535    14.3782    17.4395 H       
 304 H304         -37.5464    18.1240    17.6009 H       
 305 H305         -34.9697    16.0575    18.6433 H       
 306 H306         -35.5665    17.6269    18.7027 H       
 307 H307         -41.4569    11.2609    15.5634 H       
 308 H308         -42.4575    10.6797    12.8823 H       
 309 H309         -42.8123     8.7386    15.2093 H       
 310 H310         -43.7196     8.6591    13.6800 H       
 311 H311         -41.5911     8.4266    12.4293 H       
 312 H312         -40.6838     8.5062    13.9586 H       
 313 H313         -41.8570     6.4741    14.7604 H       
 314 H314         -42.7643     6.3945    13.2311 H       
 315 H315         -40.6359     6.1620    11.9804 H       
 316 H316         -39.7286     6.2416    13.5097 H       
 317 H317         -40.1096     3.9689    12.8181 H       
 318 H318         -40.9592     4.2685    14.2160 H       
 319 H319         -45.1175    10.2766    13.2912 H       
 320 H320         -46.0117    12.0645    15.4321 H       
 321 H321         -45.3035    13.5619    13.5331 H       
 322 H322         -46.4967    12.7418    12.4976 H       
 323 H323         -48.2834    13.3715    14.1571 H       
 324 H324         -46.0556    15.0796    15.3534 H       
 325 H325         -47.7585    15.0500    15.8707 H       
 326 H326         -46.7313    13.6157    16.1075 H       
 327 H327         -47.8564    14.7466    12.1383 H       
 328 H328         -48.3492    15.7650    13.5125 H       
 329 H329         -46.6366    15.6833    13.0344 H       
 330 H330         -48.4510    11.9906    15.6363 H       
 331 H331         -49.8519    10.2875    13.7221 H       
 332 H332         -49.5545     9.5304    16.6627 H       
 333 H333         -50.7108     8.7782    15.5377 H       
 334 H334         -47.6901     8.8627    15.1166 H       
 335 H335         -49.5085     6.5913    16.0392 H       
 336 H336         -47.7709     6.4493    15.6802 H       
 337 H337         -48.3180     7.4441    17.0511 H       
 338 H338         -49.0404     8.7463    13.0401 H       
 339 H339         -48.1927     7.2097    13.3380 H       
 340 H340         -49.9303     7.3517    13.6970 H       
 341 H341         -52.3330    10.0604    14.7493 H       
 342 H342         -53.0770    12.8399    15.2482 H       
 343 H343         -54.7298    10.2970    14.9150 H       
 344 H344         -55.4142    11.9289    15.1071 H       
 345 H345         -53.5427     9.6782    12.8895 H       
 346 H346         -53.2515    10.0842    10.4784 H       
 347 H347         -53.9263    12.2420     9.5030 H       
 348 H348         -54.8931    13.9935    10.9385 H       
 349 H349         -55.1920    13.5844    13.3482 H       
 350 H350         -55.0817    12.9419    17.0464 H       
 351 H351         -53.7701    12.1031    19.5169 H       
 352 H352         -55.5013    13.4308    20.6276 H       
 353 H353         -54.8337    14.3656    19.2679 H       
 354 H354         -57.2223    14.3675    19.2615 H       
 355 H355         -56.4919     9.9334    20.6718 H       
 356 H356          14.5419    47.9082     9.6511 H       
 357 H357          13.9049    47.6756    11.2969 H       
 358 H358          15.6263    47.3752    10.9582 H       
 359 H359          15.0058    45.4779     9.4873 H       
 360 H360          14.3688    45.2453    11.1330 H       
 361 H361          12.1659    46.1197    10.4038 H       
 362 H362          12.8030    46.3522     8.7581 H       
 363 H363          13.2669    43.9219     8.5942 H       
 364 H364          12.6299    43.6893    10.2399 H       
 365 H365          10.4270    44.5637     9.5108 H       
 366 H366          11.0641    44.7963     7.8651 H       
 367 H367          11.5280    42.3659     7.7012 H       
 368 H368          10.8909    42.1333     9.3469 H       
 369 H369           8.6881    43.0077     8.6178 H       
 370 H370           9.3252    43.2403     6.9721 H       
 371 H371           9.7891    40.8100     6.8082 H       
 372 H372           9.1520    40.5774     8.4539 H       
 373 H373           6.9492    41.4518     7.7247 H       
 374 H374           7.5862    41.6843     6.0790 H       
 375 H375           8.0501    39.2540     5.9152 H       
 376 H376           7.4131    39.0214     7.5609 H       
 377 H377           5.2102    39.8958     6.8317 H       
 378 H378           5.8473    40.1284     5.1860 H       
 379 H379           6.3112    37.6980     5.0221 H       
 380 H380           5.6742    37.4654     6.6678 H       
 381 H381           3.4713    38.3398     5.9387 H       
 382 H382           4.1084    38.5724     4.2930 H       
 383 H383           4.5723    36.1420     4.1291 H       
 384 H384           3.9352    35.9095     5.7748 H       
 385 H385           2.3695    37.0164     3.3999 H       
 386 H386           1.7324    36.7839     5.0456 H       
@<TRIPOS>BOND
   1    1    2 2
   2    1    4 1
   3    1   14 am
   4    3    4 1
   5    3  189 1
   6    3  190 1
   7    4    5 1
   8    4  191 1
   9    5    6 1
  10    5  192 1
  11    5  193 1
  12    6    7 1
  13    6  194 1
  14    6  195 1
  15    7    8 1
  16    7  196 1
  17    7  197 1
  18    8    9 1
  19    8  198 1
  20    9   10 2
  21    9   11 1
  22   10  199 1
  23   11  172 am
  24   11  200 1
  25   12   13 2
  26   12   15 1
  27   12   23 am
  28   14   15 1
  29   14  201 1
  30   15   16 1
  31   15  202 1
  32   16   17 1
  33   16  203 1
  34   16  204 1
  35   17   18 1
  36   17  205 1
  37   17  206 1
  38   18   19 2
  39   18   20 1
  40   20  207 1
  41   21   22 2
  42   21   24 1
  43   21   30 am
  44   23   24 1
  45   23  208 1
  46   24   25 1
  47   24  209 1
  48   25   26 1
  49   25   27 1
  50   25  210 1
  51   26  211 1
  52   26  212 1
  53   26  213 1
  54   27  214 1
  55   28   29 2
  56   28   31 1
  57   28   38 am
  58   30   31 1
  59   30  215 1
  60   31   32 1
  61   31  216 1
  62   32   33 1
  63   32  217 1
  64   32  218 1
  65   33   34 2
  66   33   35 am
  67   35  219 1
  68   35  220 1
  69   36   37 2
  70   36   39 1
  71   36   43 am
  72   38   39 1
  73   38  221 1
  74   39   40 1
  75   39  222 1
  76   40  223 1
  77   40  224 1
  78   40  225 1
  79   41   42 2
  80   41   44 1
  81   41   47 am
  82   43   44 1
  83   43  226 1
  84   44  227 1
  85   44  228 1
  86   45   46 2
  87   45   48 1
  88   45   58 am
  89   47   48 1
  90   47  229 1
  91   48   49 1
  92   48  230 1
  93   49   50 1
  94   49  231 1
  95   49  232 1
  96   50   51 1
  97   50  233 1
  98   50  234 1
  99   51   52 1
 100   51  235 1
 101   51  236 1
 102   52   53 1
 103   52  237 1
 104   53   54 2
 105   53   55 1
 106   54  238 1
 107   55  239 1
 108   55  240 1
 109   56   57 2
 110   56   59 1
 111   56   64 am
 112   58   59 1
 113   58  241 1
 114   59   60 1
 115   59  242 1
 116   60   61 1
 117   60  243 1
 118   60  244 1
 119   61  245 1
 120   62   63 2
 121   62   65 1
 122   62   72 am
 123   64   65 1
 124   64  246 1
 125   65   66 1
 126   65  247 1
 127   66   67 1
 128   66  248 1
 129   66  249 1
 130   67   68 2
 131   67   69 1
 132   69  250 1
 133   70   71 2
 134   70   73 1
 135   70   79 am
 136   72   73 1
 137   72  251 1
 138   73   74 1
 139   73  252 1
 140   74   75 1
 141   74   76 1
 142   74  253 1
 143   75  254 1
 144   75  255 1
 145   75  256 1
 146   76  257 1
 147   77   78 2
 148   77   80 1
 149   77   90 am
 150   79   80 1
 151   79  258 1
 152   80   81 1
 153   80  259 1
 154   81   82 1
 155   81  260 1
 156   81  261 1
 157   82   83 1
 158   82  262 1
 159   82  263 1
 160   83   84 1
 161   83  264 1
 162   83  265 1
 163   84   85 1
 164   84  266 1
 165   85   86 2
 166   85   87 1
 167   86  267 1
 168   87  268 1
 169   87  269 1
 170   88   89 2
 171   88   91 1
 172   88   99 am
 173   90   91 1
 174   90  270 1
 175   91   92 1
 176   91  271 1
 177   92   93 1
 178   92  272 1
 179   92  273 1
 180   93   94 1
 181   93  274 1
 182   93  275 1
 183   94   95 2
 184   94   96 am
 185   96  276 1
 186   96  277 1
 187   97   98 2
 188   97  100 1
 189   97  108 am
 190   99  100 1
 191   99  278 1
 192  100  101 1
 193  100  279 1
 194  101  102 1
 195  101  280 1
 196  101  281 1
 197  102  103 1
 198  102  282 1
 199  102  283 1
 200  103  104 2
 201  103  105 am
 202  105  284 1
 203  105  285 1
 204  106  107 2
 205  106  109 1
 206  106  120 am
 207  108  109 1
 208  108  286 1
 209  109  110 1
 210  109  287 1
 211  110  111 1
 212  110  288 1
 213  110  289 1
 214  111  112 ar
 215  111  117 ar
 216  112  113 ar
 217  112  290 1
 218  113  114 ar
 219  113  291 1
 220  114  115 1
 221  114  116 ar
 222  115  292 1
 223  116  117 ar
 224  116  293 1
 225  117  294 1
 226  118  119 2
 227  118  121 1
 228  118  131 am
 229  120  121 1
 230  120  295 1
 231  121  122 1
 232  121  296 1
 233  122  123 1
 234  122  297 1
 235  122  298 1
 236  123  124 1
 237  123  299 1
 238  123  300 1
 239  124  125 1
 240  124  301 1
 241  124  302 1
 242  125  126 1
 243  125  303 1
 244  126  127 2
 245  126  128 1
 246  127  304 1
 247  128  305 1
 248  128  306 1
 249  129  130 2
 250  129  132 1
 251  129  140 am
 252  131  132 1
 253  131  307 1
 254  132  133 1
 255  132  308 1
 256  133  134 1
 257  133  309 1
 258  133  310 1
 259  134  135 1
 260  134  311 1
 261  134  312 1
 262  135  136 1
 263  135  313 1
 264  135  314 1
 265  136  137 1
 266  136  315 1
 267  136  316 1
 268  137  317 1
 269  137  318 1
 270  138  139 2
 271  138  141 1
 272  138  148 am
 273  140  141 1
 274  140  319 1
 275  141  142 1
 276  141  320 1
 277  142  143 1
 278  142  321 1
 279  142  322 1
 280  143  144 1
 281  143  145 1
 282  143  323 1
 283  144  324 1
 284  144  325 1
 285  144  326 1
 286  145  327 1
 287  145  328 1
 288  145  329 1
 289  146  147 2
 290  146  149 1
 291  146  156 am
 292  148  149 1
 293  148  330 1
 294  149  150 1
 295  149  331 1
 296  150  151 1
 297  150  332 1
 298  150  333 1
 299  151  152 1
 300  151  153 1
 301  151  334 1
 302  152  335 1
 303  152  336 1
 304  152  337 1
 305  153  338 1
 306  153  339 1
 307  153  340 1
 308  154  155 2
 309  154  157 1
 310  154  167 am
 311  156  157 1
 312  156  341 1
 313  157  158 1
 314  157  342 1
 315  158  159 1
 316  158  343 1
 317  158  344 1
 318  159  160 ar
 319  159  164 ar
 320  160  161 ar
 321  160  345 1
 322  161  162 ar
 323  161  346 1
 324  162  163 ar
 325  162  347 1
 326  163  164 ar
 327  163  348 1
 328  164  349 1
 329  165  166 2
 330  165  168 1
 331  165  171 1
 332  167  168 1
 333  167  350 1
 334  168  169 1
 335  168  351 1
 336  169  170 1
 337  169  352 1
 338  169  353 1
 339  170  354 1
 340  171  355 1
 341  172  173 2
 342  172  188 1
 343  174  175 1
 344  174  356 1
 345  174  357 1
 346  174  358 1
 347  175  176 1
 348  175  359 1
 349  175  360 1
 350  176  177 1
 351  176  361 1
 352  176  362 1
 353  177  178 1
 354  177  363 1
 355  177  364 1
 356  178  179 1
 357  178  365 1
 358  178  366 1
 359  179  180 1
 360  179  367 1
 361  179  368 1
 362  180  181 1
 363  180  369 1
 364  180  370 1
 365  181  182 1
 366  181  371 1
 367  181  372 1
 368  182  183 1
 369  182  373 1
 370  182  374 1
 371  183  184 1
 372  183  375 1
 373  183  376 1
 374  184  185 1
 375  184  377 1
 376  184  378 1
 377  185  186 1
 378  185  379 1
 379  185  380 1
 380  186  187 1
 381  186  381 1
 382  186  382 1
 383  187  188 1
 384  187  383 1
 385  187  384 1
 386  188  385 1
 387  188  386 1

#	End of record

