#	Name: ASD01920060
#	Creating user name:	WinNT
#	Creation time:	15. 06. 2019 20:11

#	Modifying user name:	WinNT
#	Modification time:	15. 06. 2019 20:11

#	Program:	/corina/corina34_cracker 3.40 0067  02.08.2006

@<TRIPOS>MOLECULE
ASD01920060
  35   37    0    0    0
SMALL
NO_CHARGES


@<TRIPOS>ATOM
   1 C1             0.1281     1.1161     1.1328 C.ar    
   2 C2             0.0650    -0.1181     0.5118 C.ar    
   3 N3             1.1314    -0.6519    -0.0531 N.ar    
   4 C4             2.2976    -0.0407    -0.0536 C.ar    
   5 C5             2.4446     1.2081     0.5522 C.ar    
   6 C6             1.3310     1.8001     1.1599 C.ar    
   7 C7             3.7540     1.8938     0.5524 C.2     
   8 O8             3.8706     2.9813     1.0830 O.2     
   9 N9             4.8188     1.3133    -0.0356 N.am    
  10 C10            6.0296     2.0094    -0.1349 C.ar    
  11 C11            7.2342     1.3254    -0.0359 C.ar    
  12 C12            6.0263     3.3829    -0.3383 C.ar    
  13 C13            7.2217     4.0691    -0.4366 C.ar    
  14 C14            8.4253     3.3849    -0.3321 C.ar    
  15 C15            8.4282     2.0118    -0.1343 C.ar    
  16 O16            9.6016     4.0601    -0.4294 O.3     
  17 Cl17           7.2186     5.7863    -0.6914 Cl      
  18 C18           10.0499     4.7200     0.6682 C.ar    
  19 C19           11.1912     5.5065     0.5791 C.ar    
  20 C20           11.6383     6.1750     1.7056 C.ar    
  21 C21           10.9235     6.0320     2.8878 C.ar    
  22 C22            9.7962     5.2326     2.9032 C.ar    
  23 N23            9.3926     4.6122     1.8111 N.ar    
  24 Cl24          11.4407     6.8479     4.3302 Cl      
  25 H25           -0.7530     1.5437     1.5879 H       
  26 H26           -0.8724    -0.6540     0.4892 H       
  27 H27            3.1477    -0.5098    -0.5264 H       
  28 H28            1.4086     2.7654     1.6379 H       
  29 H29            4.7463     0.4133    -0.3901 H       
  30 H30            7.2371     0.2565     0.1185 H       
  31 H31            5.0899     3.9148    -0.4198 H       
  32 H32            9.3648     1.4802    -0.0531 H       
  33 H33           11.7230     5.5950    -0.3567 H       
  34 H34           12.5228     6.7934     1.6663 H       
  35 H35            9.2364     5.1177     3.8196 H       
@<TRIPOS>BOND
   1    1    2 ar
   2    1    6 ar
   3    1   25 1
   4    2    3 ar
   5    2   26 1
   6    3    4 ar
   7    4    5 ar
   8    4   27 1
   9    5    6 ar
  10    5    7 1
  11    6   28 1
  12    7    8 2
  13    7    9 am
  14    9   10 1
  15    9   29 1
  16   10   11 ar
  17   10   12 ar
  18   11   15 ar
  19   11   30 1
  20   12   13 ar
  21   12   31 1
  22   13   14 ar
  23   13   17 1
  24   14   15 ar
  25   14   16 1
  26   15   32 1
  27   16   18 1
  28   18   19 ar
  29   18   23 ar
  30   19   20 ar
  31   19   33 1
  32   20   21 ar
  33   20   34 1
  34   21   22 ar
  35   21   24 1
  36   22   23 ar
  37   22   35 1

#	End of record

