#	Name: ASD04930041
#	Creating user name:	WinNT
#	Creation time:	15. 06. 2019 20:56

#	Modifying user name:	WinNT
#	Modification time:	15. 06. 2019 20:56

#	Program:	/corina/corina34_cracker 3.40 0067  02.08.2006

@<TRIPOS>MOLECULE
ASD04930041
  51   52    0    0    0
SMALL
NO_CHARGES


@<TRIPOS>ATOM
   1 C1             1.2428    -0.9307     2.2124 C.ar    
   2 C2             0.5778    -1.0605     1.0020 C.ar    
   3 C3             1.1214    -0.5505    -0.1575 C.ar    
   4 C4             2.3497     0.1026    -0.1236 C.ar    
   5 C5             3.0259     0.2356     1.1025 C.ar    
   6 C6             2.4599    -0.2878     2.2721 C.ar    
   7 N7             2.8960     0.6131    -1.2836 N.am    
   8 C8             4.0796     1.2492    -1.2872 C.2     
   9 C9             4.8407     1.4259    -0.0514 C.2     
  10 C10            4.3201     0.9227     1.1437 C.2     
  11 O11            4.9915     1.0652     2.3054 O.3     
  12 O12            4.5247     1.6842    -2.3344 O.2     
  13 C13            6.1333     2.1214    -0.0660 C.2     
  14 O14            6.1703     3.3348    -0.1499 O.2     
  15 N15            7.2790     1.4161     0.0135 N.am    
  16 N16            8.5129     2.0680    -0.1104 N.am    
  17 C17            9.6586     1.3626    -0.0309 C.2     
  18 C18           10.9859     2.0638    -0.1642 C.3     
  19 O19            9.6214     0.1636     0.1479 O.2     
  20 C20           12.1175     1.0419    -0.0374 C.3     
  21 C21           13.4650     1.7537    -0.1727 C.3     
  22 C22           14.5966     0.7318    -0.0459 C.3     
  23 C23           15.9442     1.4437    -0.1812 C.3     
  24 C24           17.0758     0.4218    -0.0544 C.3     
  25 C25           18.4233     1.1336    -0.1897 C.3     
  26 Cl26           3.2881    -0.1273     3.7894 Cl      
  27 C27            2.1665     0.4569    -2.5444 C.3     
  28 H28            0.8021    -1.3316     3.1132 H       
  29 H29           -0.3755    -1.5667     0.9677 H       
  30 H30            0.5935    -0.6583    -1.0935 H       
  31 H31            5.8678     1.4620     2.2071 H       
  32 H32            7.2492     0.4572     0.1565 H       
  33 H33            8.5426     3.0269    -0.2535 H       
  34 H34           11.0434     2.5507    -1.1377 H       
  35 H35           11.0821     2.8120     0.6225 H       
  36 H36           12.0599     0.5550     0.9361 H       
  37 H37           12.0212     0.2936    -0.8241 H       
  38 H38           13.5226     2.2406    -1.1462 H       
  39 H39           13.5613     2.5020     0.6140 H       
  40 H40           14.5391     0.2449     0.9276 H       
  41 H41           14.5004    -0.0164    -0.8326 H       
  42 H42           16.0017     1.9306    -1.1547 H       
  43 H43           16.0405     2.1919     0.6055 H       
  44 H44           17.0182    -0.0651     0.9191 H       
  45 H45           16.9795    -0.3265    -0.8411 H       
  46 H46           19.2295     0.4056    -0.0993 H       
  47 H47           18.4809     1.6205    -1.1632 H       
  48 H48           18.5196     1.8819     0.5970 H       
  49 H49            1.5056     1.3113    -2.6901 H       
  50 H50            2.8758     0.4013    -3.3702 H       
  51 H51            1.5752    -0.4582    -2.5111 H       
@<TRIPOS>BOND
   1    1    2 ar
   2    1    6 ar
   3    1   28 1
   4    2    3 ar
   5    2   29 1
   6    3    4 ar
   7    3   30 1
   8    4    5 ar
   9    4    7 1
  10    5    6 ar
  11    5   10 1
  12    6   26 1
  13    7    8 am
  14    7   27 1
  15    8    9 1
  16    8   12 2
  17    9   10 2
  18    9   13 1
  19   10   11 1
  20   11   31 1
  21   13   14 2
  22   13   15 am
  23   15   16 1
  24   15   32 1
  25   16   17 am
  26   16   33 1
  27   17   18 1
  28   17   19 2
  29   18   20 1
  30   18   34 1
  31   18   35 1
  32   20   21 1
  33   20   36 1
  34   20   37 1
  35   21   22 1
  36   21   38 1
  37   21   39 1
  38   22   23 1
  39   22   40 1
  40   22   41 1
  41   23   24 1
  42   23   42 1
  43   23   43 1
  44   24   25 1
  45   24   44 1
  46   24   45 1
  47   25   46 1
  48   25   47 1
  49   25   48 1
  50   27   49 1
  51   27   50 1
  52   27   51 1

#	End of record

