#	Name: ASD01884380
#	Creating user name:	WinNT
#	Creation time:	15. 06. 2019 19:48

#	Modifying user name:	WinNT
#	Modification time:	15. 06. 2019 19:48

#	Program:	/corina/corina34_cracker 3.40 0067  02.08.2006

@<TRIPOS>MOLECULE
ASD01884380
  32   33    0    0    0
SMALL
NO_CHARGES


@<TRIPOS>ATOM
   1 C1             0.1930     1.5952    -1.1422 C.ar    
   2 C2             0.2970     0.3046    -1.6196 C.ar    
   3 N3             1.4049    -0.3917    -1.4504 N.ar    
   4 C4             2.4534     0.1085    -0.8240 C.ar    
   5 C5             2.4288     1.3916    -0.3180 C.ar    
   6 C6             1.2774     2.1598    -0.4754 C.ar    
   7 O7             1.2143     3.4264     0.0084 O.3     
   8 C8             0.0310     4.0842    -0.0811 C.ar    
   9 C9            -0.9035     3.9712     0.9404 C.ar    
  10 C10           -0.2409     4.8747    -1.1932 C.ar    
  11 C11           -1.4394     5.5444    -1.2886 C.ar    
  12 C12           -2.3852     5.4302    -0.2679 C.ar    
  13 C13           -2.1083     4.6389     0.8518 C.ar    
  14 B14           -3.7532     6.1933    -0.3735 Du      
  15 F15           -3.0198     4.5250     1.8424 F       
  16 O16           -4.0300     7.0008    -1.5082 O.3     
  17 O17           -4.7137     6.0759     0.6658 O.3     
  18 C18            3.6306     1.9541     0.3963 C.3     
  19 C19            3.6928    -0.7328    -0.6592 C.3     
  20 H20           -0.7152     2.1611    -1.2876 H       
  21 H21           -0.5391    -0.1412    -2.1379 H       
  22 H22           -0.6874     3.3602     1.8044 H       
  23 H23            0.4903     4.9633    -1.9830 H       
  24 H24           -1.6482     6.1581    -2.1524 H       
  25 H25           -4.8961     7.4302    -1.4836 H       
  26 H26           -5.5236     6.5813     0.5117 H       
  27 H27            4.2826     2.4486    -0.3238 H       
  28 H28            3.3035     2.6753     1.1453 H       
  29 H29            4.1750     1.1454     0.8838 H       
  30 H30            4.3537    -0.5771    -1.5119 H       
  31 H31            4.2080    -0.4450     0.2572 H       
  32 H32            3.4131    -1.7848    -0.6036 H       
@<TRIPOS>BOND
   1    1    2 ar
   2    1    6 ar
   3    1   20 1
   4    2    3 ar
   5    2   21 1
   6    3    4 ar
   7    4    5 ar
   8    4   19 1
   9    5    6 ar
  10    5   18 1
  11    6    7 1
  12    7    8 1
  13    8    9 ar
  14    8   10 ar
  15    9   13 ar
  16    9   22 1
  17   10   11 ar
  18   10   23 1
  19   11   12 ar
  20   11   24 1
  21   12   13 ar
  22   12   14 1
  23   13   15 1
  24   14   16 1
  25   14   17 1
  26   16   25 1
  27   17   26 1
  28   18   27 1
  29   18   28 1
  30   18   29 1
  31   19   30 1
  32   19   31 1
  33   19   32 1

#	End of record

