#	Name: ASD03140005
#	Creating user name:	WinNT
#	Creation time:	15. 06. 2019 20:33

#	Modifying user name:	WinNT
#	Modification time:	15. 06. 2019 20:33

#	Program:	/corina/corina34_cracker 3.40 0067  02.08.2006

@<TRIPOS>MOLECULE
ASD03140005
  38   40    0    0    0
SMALL
NO_CHARGES


@<TRIPOS>ATOM
   1 N1             0.2329     1.3814     0.3432 N.pl3   
   2 C2             0.1891    -0.0146     0.2517 C.ar    
   3 C3            -1.0231    -0.6808     0.3747 C.ar    
   4 C4             1.3571    -0.7330     0.0321 C.ar    
   5 C5            -1.0664    -2.0579     0.2845 C.ar    
   6 C6             1.3139    -2.1101    -0.0591 C.ar    
   7 C7             0.1024    -2.7768     0.0702 C.ar    
   8 N8             0.0586    -4.1733    -0.0214 N.pl3   
   9 C9             2.5752     4.3213     0.0956 C.2     
  10 C10            1.2821     3.5906     0.3508 C.3     
  11 N11            3.5482     4.5698     0.9918 N.pl3   
  12 N12            2.9732     4.8332    -1.0435 N.2     
  13 C13            1.5118     2.0842     0.2133 C.3     
  14 C14            0.8082     3.8926     1.7114 C.1     
  15 N15            4.4786     5.2151     0.3732 N.2     
  16 N16            4.1281     5.3723    -0.8555 N.2     
  17 N17            0.4424     4.1256     2.7613 N.1     
  18 C18           -0.9158    -4.8888     0.6784 C.ar    
  19 C19           -1.3906    -6.0937     0.1752 C.ar    
  20 C20           -1.4083    -4.4002     1.8821 C.ar    
  21 C21           -2.3536    -6.7987     0.8698 C.ar    
  22 C22           -2.3713    -5.1104     2.5715 C.ar    
  23 C23           -2.8454    -6.3068     2.0651 C.ar    
  24 H24           -0.5840     1.8838     0.4885 H       
  25 H25           -1.9320    -0.1218     0.5414 H       
  26 H26            2.2993    -0.2146    -0.0677 H       
  27 H27           -2.0091    -2.5761     0.3809 H       
  28 H28            2.2222    -2.6688    -0.2298 H       
  29 H29            0.7049    -4.6438    -0.5707 H       
  30 H30            0.5341     3.9118    -0.3741 H       
  31 H31            3.5494     4.3127     1.9271 H       
  32 H32            2.1924     1.7476     0.9954 H       
  33 H33            1.9463     1.8706    -0.7632 H       
  34 H34           -1.0071    -6.4783    -0.7584 H       
  35 H35           -1.0383    -3.4661     2.2784 H       
  36 H36           -2.7233    -7.7352     0.4790 H       
  37 H37           -2.7544    -4.7313     3.5075 H       
  38 H38           -3.5985    -6.8602     2.6063 H       
@<TRIPOS>BOND
   1    1    2 1
   2    1   13 1
   3    1   24 1
   4    2    3 ar
   5    2    4 ar
   6    3    5 ar
   7    3   25 1
   8    4    6 ar
   9    4   26 1
  10    5    7 ar
  11    5   27 1
  12    6    7 ar
  13    6   28 1
  14    7    8 1
  15    8   18 1
  16    8   29 1
  17    9   10 1
  18    9   11 1
  19    9   12 2
  20   10   13 1
  21   10   14 1
  22   10   30 1
  23   11   15 1
  24   11   31 1
  25   12   16 1
  26   13   32 1
  27   13   33 1
  28   14   17 3
  29   15   16 2
  30   18   19 ar
  31   18   20 ar
  32   19   21 ar
  33   19   34 1
  34   20   22 ar
  35   20   35 1
  36   21   23 ar
  37   21   36 1
  38   22   23 ar
  39   22   37 1
  40   23   38 1

#	End of record

