#	Name: ASD01200067
#	Creating user name:	WinNT
#	Creation time:	15. 06. 2019 19:08

#	Modifying user name:	WinNT
#	Modification time:	15. 06. 2019 19:08

#	Program:	/corina/corina34_cracker 3.40 0067  02.08.2006

@<TRIPOS>MOLECULE
ASD01200067
  47   49    0    0    0
SMALL
NO_CHARGES


@<TRIPOS>ATOM
   1 C1            -0.0167     1.3781     0.0096 C.ar    
   2 C2             0.0021    -0.0041     0.0020 C.ar    
   3 C3            -1.1855    -0.7115     0.0095 C.ar    
   4 C4            -2.3919    -0.0367     0.0251 C.ar    
   5 C5            -2.4106     1.3455     0.0336 C.ar    
   6 C6            -1.2230     2.0529     0.0305 C.ar    
   7 S7            -3.9057    -0.9383     0.0334 S.o2    
   8 C8             1.2780     2.1493     0.0014 C.3     
   9 C9             1.3344     3.0233    -1.2250 C.2     
  10 C10            1.3591     3.0232     1.2546 C.3     
  11 C11            1.4275     2.1306     2.4953 C.3     
  12 C12            1.6350     2.9918     3.7535 C.3     
  13 C13            0.4157     2.7416     4.6648 C.3     
  14 C14           -0.1117     1.3544     4.2214 C.3     
  15 C15            0.0893     1.3871     2.6859 C.3     
  16 O16           -4.8453    -0.0511    -0.5574 O.2     
  17 O17           -3.5795    -2.1765    -0.5827 O.2     
  18 C18           -4.2782    -1.1811     1.7921 C.3     
  19 N19            2.4077     3.8083    -1.4443 N.am    
  20 C20            2.4597     4.6145    -2.5755 C.2     
  21 S21            3.7548     5.6557    -2.9773 S.3     
  22 C22            2.9108     6.1583    -4.4398 C.2     
  23 C23            1.7479     5.5058    -4.4913 C.2     
  24 N24            1.5357     4.6821    -3.4821 N.2     
  25 O25            0.4138     3.0203    -2.0146 O.2     
  26 H26            2.1160     1.4524    -0.0103 H       
  27 H27            0.9446    -0.5313    -0.0101 H       
  28 H28           -1.1709    -1.7913     0.0029 H       
  29 H29           -3.3531     1.8728     0.0454 H       
  30 H30           -1.2376     3.1328     0.0372 H       
  31 H31            2.2519     3.6466     1.2058 H       
  32 H32            0.4752     3.6585     1.3124 H       
  33 H33            2.2426     1.4139     2.3948 H       
  34 H34            2.5504     2.6925     4.2641 H       
  35 H35            1.6869     4.0457     3.4802 H       
  36 H36            0.7200     2.7174     5.7112 H       
  37 H37           -0.3435     3.5072     4.5049 H       
  38 H38            0.4777     0.5553     4.6711 H       
  39 H39           -1.1671     1.2446     4.4705 H       
  40 H40           -0.7225     1.9340     2.2065 H       
  41 H41            0.1555     0.3744     2.2882 H       
  42 H42           -4.3795    -0.2114     2.2793 H       
  43 H43           -5.2101    -1.7374     1.8927 H       
  44 H44           -3.4687    -1.7406     2.2611 H       
  45 H45            3.1440     3.8108    -0.8128 H       
  46 H46            3.2713     6.8706    -5.1672 H       
  47 H47            1.0396     5.6380    -5.2958 H       
@<TRIPOS>BOND
   1    1    2 ar
   2    1    8 1
   3    1    6 ar
   4    2    3 ar
   5    2   27 1
   6    3    4 ar
   7    3   28 1
   8    4    5 ar
   9    4    7 1
  10    5    6 ar
  11    5   29 1
  12    6   30 1
  13    7   16 2
  14    7   17 2
  15    7   18 1
  16    8    9 1
  17    8   10 1
  18    8   26 1
  19    9   19 am
  20    9   25 2
  21   10   11 1
  22   10   31 1
  23   10   32 1
  24   11   12 1
  25   11   15 1
  26   11   33 1
  27   12   13 1
  28   12   34 1
  29   12   35 1
  30   13   14 1
  31   13   36 1
  32   13   37 1
  33   14   15 1
  34   14   38 1
  35   14   39 1
  36   15   40 1
  37   15   41 1
  38   18   42 1
  39   18   43 1
  40   18   44 1
  41   19   20 1
  42   19   45 1
  43   20   21 1
  44   20   24 2
  45   21   22 1
  46   22   23 2
  47   22   46 1
  48   23   24 1
  49   23   47 1

#	End of record

