#	Name: ASD05323018
#	Creating user name:	WinNT
#	Creation time:	15. 06. 2019 20:59

#	Modifying user name:	WinNT
#	Modification time:	15. 06. 2019 20:59

#	Program:	/corina/corina34_cracker 3.40 0067  02.08.2006

@<TRIPOS>MOLECULE
ASD05323018
  52   53    0    0    0
SMALL
NO_CHARGES


@<TRIPOS>ATOM
   1 C1            -0.0187     1.5258     0.0104 C.3     
   2 C2             0.0021    -0.0041     0.0020 C.3     
   3 P3             1.6916     2.1568    -0.0025 P.3     
   4 O4             2.4039     1.7481    -1.3873 O.3     
   5 O5             1.6730     3.7605     0.1386 O.3     
   6 O6             2.4423     1.5705     1.1303 O.2     
   7 O7            -2.1040    -0.1936    -1.2201 O.3     
   8 C8            -1.4333    -0.5336     0.0129 C.3     
   9 C9            -1.4365    -2.0780     0.0510 C.3     
  10 C10           -2.6298    -2.4732    -0.8473 C.3     
  11 C11           -3.2065    -1.1210    -1.3219 C.3     
  12 C12           -3.6741    -3.2481    -0.0412 C.3     
  13 C13           -1.6527    -2.5785     1.4805 C.3     
  14 C14           -4.9612    -1.0201    -3.0011 C.2     
  15 N15           -5.4075    -1.1049    -4.2681 N.am    
  16 C16           -4.5542    -1.3939    -5.2713 C.2     
  17 C17           -3.1854    -1.6068    -4.9794 C.2     
  18 C18           -2.7646    -1.5153    -3.6996 C.2     
  19 N19           -3.6629    -1.2203    -2.7105 N.am    
  20 O20           -4.9574    -1.4716    -6.4178 O.2     
  21 O21           -5.7414    -0.7541    -2.1073 O.2     
  22 C22            3.7827     2.0069    -1.6593 C.3     
  23 C23            4.1320     1.4930    -3.0574 C.3     
  24 C24            2.8611     4.5445     0.2648 C.3     
  25 C25            2.4864     6.0236     0.3778 C.3     
  26 H26           -0.5459     1.8868    -0.8726 H       
  27 H27           -0.5289     1.8773     0.9072 H       
  28 H28            0.5123    -0.3556    -0.8948 H       
  29 H29            0.5293    -0.3651     0.8851 H       
  30 H30           -1.9804    -0.1319     0.8657 H       
  31 H31           -0.5052    -2.4720    -0.3559 H       
  32 H32           -2.2885    -3.0626    -1.6983 H       
  33 H33           -4.0256    -0.8093    -0.6738 H       
  34 H34           -4.0375    -2.6253     0.7763 H       
  35 H35           -4.5072    -3.5181    -0.6902 H       
  36 H36           -3.2218    -4.1529     0.3648 H       
  37 H37           -2.5979    -2.1921     1.8617 H       
  38 H38           -1.6777    -3.6682     1.4840 H       
  39 H39           -0.8364    -2.2318     2.1142 H       
  40 H40           -6.3468    -0.9577    -4.4602 H       
  41 H41           -2.4871    -1.8397    -5.7696 H       
  42 H42           -1.7242    -1.6745    -3.4579 H       
  43 H43            3.9676     3.0800    -1.6100 H       
  44 H44            4.4008     1.4974    -0.9200 H       
  45 H45            3.5139     2.0025    -3.7967 H       
  46 H46            5.1837     1.6904    -3.2649 H       
  47 H47            3.9471     0.4199    -3.1068 H       
  48 H48            3.4053     4.2382     1.1582 H       
  49 H49            3.4900     4.3950    -0.6129 H       
  50 H50            1.9422     6.3298    -0.5155 H       
  51 H51            1.8575     6.1730     1.2555 H       
  52 H52            3.3926     6.6216     0.4741 H       
@<TRIPOS>BOND
   1    1    2 1
   2    1    3 1
   3    1   26 1
   4    1   27 1
   5    2    8 1
   6    2   28 1
   7    2   29 1
   8    3    4 1
   9    3    5 1
  10    3    6 2
  11    4   22 1
  12    5   24 1
  13    7    8 1
  14    7   11 1
  15    8    9 1
  16    8   30 1
  17    9   10 1
  18    9   13 1
  19    9   31 1
  20   10   11 1
  21   10   12 1
  22   10   32 1
  23   11   19 1
  24   11   33 1
  25   12   34 1
  26   12   35 1
  27   12   36 1
  28   13   37 1
  29   13   38 1
  30   13   39 1
  31   14   15 am
  32   14   19 am
  33   14   21 2
  34   15   16 am
  35   15   40 1
  36   16   17 1
  37   16   20 2
  38   17   18 2
  39   17   41 1
  40   18   19 1
  41   18   42 1
  42   22   23 1
  43   22   43 1
  44   22   44 1
  45   23   45 1
  46   23   46 1
  47   23   47 1
  48   24   25 1
  49   24   48 1
  50   24   49 1
  51   25   50 1
  52   25   51 1
  53   25   52 1

#	End of record

