#	Name: ASD05503019
#	Creating user name:	WinNT
#	Creation time:	15. 06. 2019 21:01

#	Modifying user name:	WinNT
#	Modification time:	15. 06. 2019 21:01

#	Program:	/corina/corina34_cracker 3.40 0067  02.08.2006

@<TRIPOS>MOLECULE
ASD05503019
  50   52    0    0    0
SMALL
NO_CHARGES


@<TRIPOS>ATOM
   1 C1             0.4697     1.7474     0.2244 C.ar    
   2 C2             0.4458     0.5256    -0.4361 C.ar    
   3 C3             1.6116    -0.2165    -0.5615 C.ar    
   4 C4             2.7977     0.2647    -0.0263 C.ar    
   5 C5             2.8149     1.4877     0.6333 C.ar    
   6 C6             1.6526     2.2240     0.7563 C.ar    
   7 N7            -0.7526     0.0436    -0.9740 N.am    
   8 C8            -0.7399    -0.6645    -2.1207 C.2     
   9 C9            -2.0117    -1.2876    -2.6356 C.3     
  10 O10            0.2952    -0.8002    -2.7382 O.2     
  11 C11           -1.7235    -2.0293    -3.9425 C.3     
  12 C12           -3.0148    -2.6619    -4.4653 C.3     
  13 N13            3.9747    -0.4803    -0.1501 N.am    
  14 C14            5.1557     0.1478    -0.3152 C.2     
  15 C15            6.3853    -0.6392    -0.5474 C.ar    
  16 O16            5.2097     1.3615    -0.2731 O.2     
  17 C17            6.3261    -2.0329    -0.5963 C.ar    
  18 C18            7.4760    -2.7646    -0.8132 C.ar    
  19 C19            8.6880    -2.1217    -0.9822 C.ar    
  20 C20            8.7569    -0.7354    -0.9353 C.ar    
  21 C21            7.6083     0.0087    -0.7243 C.ar    
  22 O22            9.9512    -0.1087    -1.1020 O.3     
  23 C23           10.5604     0.4064    -0.0020 C.ar    
  24 C24           11.8262     0.9651    -0.1062 C.ar    
  25 C25           12.4432     1.4884     1.0135 C.ar    
  26 C26           11.8004     1.4559     2.2373 C.ar    
  27 C27           10.5390     0.8997     2.3438 C.ar    
  28 C28            9.9154     0.3797     1.2262 C.ar    
  29 H29           -0.4364     2.3275     0.3184 H       
  30 H30            1.5955    -1.1669    -1.0742 H       
  31 H31            3.7378     1.8630     1.0501 H       
  32 H32            1.6685     3.1742     1.2694 H       
  33 H33           -1.5925     0.2190    -0.5216 H       
  34 H34           -2.3973    -1.9901    -1.8967 H       
  35 H35           -2.7514    -0.5076    -2.8160 H       
  36 H36           -1.3380    -1.3269    -4.6814 H       
  37 H37           -0.9839    -2.8093    -3.7621 H       
  38 H38           -2.8095    -3.1902    -5.3963 H       
  39 H39           -3.4003    -3.3643    -3.7263 H       
  40 H40           -3.7544    -1.8819    -4.6457 H       
  41 H41            3.9411    -1.4492    -0.1172 H       
  42 H42            5.3810    -2.5385    -0.4640 H       
  43 H43            7.4288    -3.8429    -0.8508 H       
  44 H44            9.5847    -2.6996    -1.1510 H       
  45 H45            7.6604     1.0869    -0.6880 H       
  46 H46           12.3289     0.9905    -1.0618 H       
  47 H47           13.4285     1.9231     0.9330 H       
  48 H48           12.2846     1.8652     3.1116 H       
  49 H49           10.0391     0.8755     3.3009 H       
  50 H50            8.9300    -0.0543     1.3099 H       
@<TRIPOS>BOND
   1    1    2 ar
   2    1    6 ar
   3    1   29 1
   4    2    3 ar
   5    2    7 1
   6    3    4 ar
   7    3   30 1
   8    4    5 ar
   9    4   13 1
  10    5    6 ar
  11    5   31 1
  12    6   32 1
  13    7    8 am
  14    7   33 1
  15    8    9 1
  16    8   10 2
  17    9   11 1
  18    9   34 1
  19    9   35 1
  20   11   12 1
  21   11   36 1
  22   11   37 1
  23   12   38 1
  24   12   39 1
  25   12   40 1
  26   13   14 am
  27   13   41 1
  28   14   15 1
  29   14   16 2
  30   15   17 ar
  31   15   21 ar
  32   17   18 ar
  33   17   42 1
  34   18   19 ar
  35   18   43 1
  36   19   20 ar
  37   19   44 1
  38   20   21 ar
  39   20   22 1
  40   21   45 1
  41   22   23 1
  42   23   24 ar
  43   23   28 ar
  44   24   25 ar
  45   24   46 1
  46   25   26 ar
  47   25   47 1
  48   26   27 ar
  49   26   48 1
  50   27   28 ar
  51   27   49 1
  52   28   50 1

#	End of record

