#	Name: ASD01915032
#	Creating user name:	WinNT
#	Creation time:	15. 06. 2019 20:04

#	Modifying user name:	WinNT
#	Modification time:	15. 06. 2019 20:04

#	Program:	/corina/corina34_cracker 3.40 0067  02.08.2006

@<TRIPOS>MOLECULE
ASD01915032
  29   31    0    0    0
SMALL
NO_CHARGES


@<TRIPOS>ATOM
   1 C1            -0.0180     1.4737     0.0101 C.2     
   2 C2             0.0021    -0.0041     0.0020 C.ar    
   3 C3             1.2186    -0.6887    -0.0133 C.ar    
   4 C4             1.2302    -2.0681    -0.0203 C.ar    
   5 C5             0.0396    -2.7731    -0.0127 C.ar    
   6 C6            -1.1696    -2.1008     0.0024 C.ar    
   7 C7            -1.1954    -0.7216     0.0154 C.ar    
   8 O8             1.0263     2.0957     0.0035 O.2     
   9 N9            -1.1942     2.1316     0.0193 N.am    
  10 C10           -1.2130     3.5150     0.0269 C.2     
  11 N11           -0.1061     4.3141     0.0260 N.pl3   
  12 C12           -0.5471     5.6263     0.0352 C.ar    
  13 C13           -1.9509     5.5662     0.0416 C.ar    
  14 N14           -2.2945     4.2520     0.0304 N.2     
  15 C15           -2.6898     6.7518     0.0519 C.ar    
  16 C16           -2.0371     7.9643     0.0558 C.ar    
  17 C17           -0.6513     8.0178     0.0495 C.ar    
  18 C18            0.0931     6.8562     0.0393 C.ar    
  19 H19            2.1486    -0.1396    -0.0199 H       
  20 H20            2.1706    -2.5990    -0.0321 H       
  21 H21            0.0543    -3.8529    -0.0190 H       
  22 H22           -2.0953    -2.6571     0.0080 H       
  23 H23           -2.1399    -0.1980     0.0314 H       
  24 H24           -2.0276     1.6352     0.0206 H       
  25 H25            0.8175     4.0176     0.0203 H       
  26 H26           -3.7692     6.7175     0.0565 H       
  27 H27           -2.6088     8.8805     0.0635 H       
  28 H28           -0.1515     8.9752     0.0527 H       
  29 H29            1.1720     6.9047     0.0348 H       
@<TRIPOS>BOND
   1    1    2 1
   2    1    8 2
   3    1    9 am
   4    2    3 ar
   5    2    7 ar
   6    3    4 ar
   7    3   19 1
   8    4    5 ar
   9    4   20 1
  10    5    6 ar
  11    5   21 1
  12    6    7 ar
  13    6   22 1
  14    7   23 1
  15    9   10 1
  16    9   24 1
  17   10   11 1
  18   10   14 2
  19   11   12 1
  20   11   25 1
  21   12   13 ar
  22   12   18 ar
  23   13   14 1
  24   13   15 ar
  25   15   16 ar
  26   15   26 1
  27   16   17 ar
  28   16   27 1
  29   17   18 ar
  30   17   28 1
  31   18   29 1

#	End of record

