#	Name: ASD01814258
#	Creating user name:	WinNT
#	Creation time:	15. 06. 2019 19:32

#	Modifying user name:	WinNT
#	Modification time:	15. 06. 2019 19:32

#	Program:	/corina/corina34_cracker 3.40 0067  02.08.2006

@<TRIPOS>MOLECULE
ASD01814258
  50   54    0    0    0
SMALL
NO_CHARGES


@<TRIPOS>ATOM
   1 C1            -0.0168     1.3869     0.0097 C.ar    
   2 C2             0.0021    -0.0041     0.0020 C.ar    
   3 C3             1.1801    -0.6897    -0.0129 C.ar    
   4 C4             2.3948     0.0129    -0.0207 C.ar    
   5 C5             2.3717     1.4290    -0.0129 C.ar    
   6 C6             1.1455     2.1015     0.0024 C.ar    
   7 C7             3.6293    -0.6694    -0.0365 C.ar    
   8 C8             4.8031     0.0063    -0.0446 C.ar    
   9 C9             4.8359     1.4095    -0.0374 C.ar    
  10 C10            3.6406     2.1511    -0.0211 C.ar    
  11 C11            6.1026     2.1526    -0.0470 C.2     
  12 N12            6.0328     3.5041    -0.0399 N.am    
  13 C13            4.8302     4.1313    -0.0241 C.2     
  14 N14            3.6961     3.4935    -0.0158 N.2     
  15 C15            3.6424    -2.1763    -0.0442 C.3     
  16 C16            3.5087    -2.6726    -1.4608 C.ar    
  17 C17            4.6367    -2.8928    -2.2367 C.ar    
  18 C18            4.4664    -3.3494    -3.5343 C.ar    
  19 C19            3.1855    -3.5688    -4.0089 C.ar    
  20 N20            2.1348    -3.3481    -3.2413 N.ar    
  21 C21            2.2607    -2.9192    -2.0006 C.ar    
  22 O22            7.1745     1.5748    -0.0604 O.2     
  23 Cl23           2.9576    -4.1401    -5.6323 Cl      
  24 C24            7.2655     4.2957    -0.0490 C.3     
  25 C25            7.3208     5.1639     1.1885 C.2     
  26 C26            8.4074     6.2122     1.2810 C.3     
  27 C27            8.3851     7.0513    -0.0009 C.3     
  28 C28            8.5020     6.1279    -1.2147 C.3     
  29 C29            7.2847     5.2042    -1.2827 C.3     
  30 O30            6.5179     5.0239     2.0796 O.2     
  31 H31           -0.9630     1.9076     0.0169 H       
  32 H32           -0.9305    -0.5488     0.0083 H       
  33 H33            1.1786    -1.7697    -0.0183 H       
  34 H34            1.1188     3.1811     0.0081 H       
  35 H35            5.7317    -0.5451    -0.0563 H       
  36 H36            4.8132     5.2111    -0.0182 H       
  37 H37            4.5813    -2.5336     0.3789 H       
  38 H38            2.8098    -2.5499     0.5518 H       
  39 H39            5.6246    -2.7124    -1.8395 H       
  40 H40            5.3226    -3.5313    -4.1669 H       
  41 H41            1.3776    -2.7501    -1.4022 H       
  42 H42            8.1299     3.6320    -0.0696 H       
  43 H43            8.2239     6.8547     2.1423 H       
  44 H44            9.3775     5.7260     1.3836 H       
  45 H45            7.4489     7.6069    -0.0556 H       
  46 H46            9.2224     7.7492     0.0068 H       
  47 H47            8.5524     6.7282    -2.1231 H       
  48 H48            9.4077     5.5277    -1.1276 H       
  49 H49            7.3419     4.5930    -2.1834 H       
  50 H50            6.3745     5.8035    -1.3070 H       
@<TRIPOS>BOND
   1    1    2 ar
   2    1    6 ar
   3    1   31 1
   4    2    3 ar
   5    2   32 1
   6    3    4 ar
   7    3   33 1
   8    4    5 ar
   9    4    7 ar
  10    5    6 ar
  11    5   10 ar
  12    6   34 1
  13    7    8 ar
  14    7   15 1
  15    8    9 ar
  16    8   35 1
  17    9   10 ar
  18    9   11 1
  19   10   14 1
  20   11   12 am
  21   11   22 2
  22   12   13 1
  23   12   24 1
  24   13   14 2
  25   13   36 1
  26   15   16 1
  27   15   37 1
  28   15   38 1
  29   16   17 ar
  30   16   21 ar
  31   17   18 ar
  32   17   39 1
  33   18   19 ar
  34   18   40 1
  35   19   20 ar
  36   19   23 1
  37   20   21 ar
  38   21   41 1
  39   24   25 1
  40   24   29 1
  41   24   42 1
  42   25   26 1
  43   25   30 2
  44   26   27 1
  45   26   43 1
  46   26   44 1
  47   27   28 1
  48   27   45 1
  49   27   46 1
  50   28   29 1
  51   28   47 1
  52   28   48 1
  53   29   49 1
  54   29   50 1

#	End of record

