#	Name: ASD01140102
#	Creating user name:	WinNT
#	Creation time:	15. 06. 2019 18:59

#	Modifying user name:	WinNT
#	Modification time:	15. 06. 2019 18:59

#	Program:	/corina/corina34_cracker 3.40 0067  02.08.2006

@<TRIPOS>MOLECULE
ASD01140102
  31   32    0    0    0
SMALL
NO_CHARGES


@<TRIPOS>ATOM
   1 C1            -0.0189     1.5394     0.0105 C.3     
   2 C2             0.0021    -0.0041     0.0020 C.3     
   3 C3             1.4348    -0.3307    -0.4740 C.3     
   4 C4             2.0814     1.0211    -0.6973 C.2     
   5 O5             1.3851     1.9380    -0.0008 O.3     
   6 O6             3.0534     1.2381    -1.3815 O.2     
   7 H7             1.4062    -0.8968    -1.4050 H       
   8 N8            -0.9891    -0.5303    -0.9398 N.pl3   
   9 C9            -2.3088    -0.7273    -0.5271 C.ar    
  10 C10           -3.2499    -1.2262    -1.4188 C.ar    
  11 C11           -4.5539    -1.4203    -1.0074 C.ar    
  12 C12           -4.9231    -1.1186     0.2907 C.ar    
  13 C13           -3.9888    -0.6219     1.1810 C.ar    
  14 C14           -2.6819    -0.4303     0.7776 C.ar    
  15 C15            2.1785    -1.0999     0.5873 C.2     
  16 C16            2.3936    -0.4901     1.9486 C.3     
  17 C17            2.6380    -2.2987     0.3266 C.2     
  18 H18           -0.5264     1.9160    -0.8776 H       
  19 H19           -0.5093     1.9064     0.9121 H       
  20 H20           -0.1701    -0.3973     1.0039 H       
  21 H21           -0.7288    -0.7418    -1.8499 H       
  22 H22           -2.9623    -1.4616    -2.4328 H       
  23 H23           -5.2861    -1.8077    -1.7002 H       
  24 H24           -5.9436    -1.2710     0.6098 H       
  25 H25           -4.2805    -0.3873     2.1940 H       
  26 H26           -1.9527    -0.0427     1.4735 H       
  27 H27            1.5602    -0.7527     2.6001 H       
  28 H28            3.3219    -0.8707     2.3746 H       
  29 H29            2.4543     0.5942     1.8554 H       
  30 H30            3.1709    -2.8499     1.0872 H       
  31 H31            2.4838    -2.7357    -0.6489 H       
@<TRIPOS>BOND
   1    1    2 1
   2    1    5 1
   3    1   18 1
   4    1   19 1
   5    2    3 1
   6    2    8 1
   7    2   20 1
   8    3    4 1
   9    3    7 1
  10    3   15 1
  11    4    5 1
  12    4    6 2
  13    8    9 1
  14    8   21 1
  15    9   10 ar
  16    9   14 ar
  17   10   11 ar
  18   10   22 1
  19   11   12 ar
  20   11   23 1
  21   12   13 ar
  22   12   24 1
  23   13   14 ar
  24   13   25 1
  25   14   26 1
  26   15   16 1
  27   15   17 2
  28   16   27 1
  29   16   28 1
  30   16   29 1
  31   17   30 1
  32   17   31 1

#	End of record

