#	Name: ASD06170408
#	Creating user name:	WinNT
#	Creation time:	15. 06. 2019 21:05

#	Modifying user name:	WinNT
#	Modification time:	15. 06. 2019 21:05

#	Program:	/corina/corina34_cracker 3.40 0067  02.08.2006

@<TRIPOS>MOLECULE
ASD06170408
  71   75    0    0    0
SMALL
NO_CHARGES


@<TRIPOS>ATOM
   1 N1             0.0281    -0.7472    -1.0066 N.pl3   
   2 N2             0.5349    -2.0205    -1.2831 N.am    
   3 C3             1.8630    -2.0151    -1.0454 C.2     
   4 C4             2.2014    -0.6561    -0.5939 C.2     
   5 C5             1.0223     0.0632    -0.5964 C.2     
   6 C6             3.5307    -0.1622    -0.2148 C.2     
   7 O7             3.6715     0.9924     0.1432 O.2     
   8 N8             4.5953    -0.9873    -0.2631 N.am    
   9 C9            -0.2101    -3.1163    -1.7308 C.ar    
  10 C10           -1.1092    -2.9654    -2.7785 C.ar    
  11 C11           -1.8433    -4.0495    -3.2181 C.ar    
  12 C12           -1.6839    -5.2842    -2.6162 C.ar    
  13 C13           -0.7895    -5.4379    -1.5728 C.ar    
  14 C14           -0.0481    -4.3591    -1.1323 C.ar    
  15 O15            2.6301    -2.9504    -1.1779 O.2     
  16 C16            5.8753    -0.4965     0.0240 C.ar    
  17 C17            6.0439     0.4707     1.0062 C.ar    
  18 C18            7.3054     0.9548     1.2890 C.ar    
  19 C19            8.4062     0.4741     0.5914 C.ar    
  20 C20            8.2375    -0.4937    -0.3907 C.ar    
  21 C21            6.9765    -0.9813    -0.6696 C.ar    
  22 N22            9.6849     0.9650     0.8776 N.pl3   
  23 N23           12.3713     1.6367    -2.2214 N.ar    
  24 C24           11.1229     1.3269    -2.4855 C.ar    
  25 C25           10.1969     1.0961    -1.4782 C.ar    
  26 C26           10.5873     1.1905    -0.1509 C.ar    
  27 C27           11.9355     1.5245     0.1212 C.ar    
  28 C28           12.4049     1.6381     1.4372 C.ar    
  29 C29           13.7074     1.9604     1.6665 C.ar    
  30 C30           14.5871     2.1807     0.6031 C.ar    
  31 C31           14.1561     2.0766    -0.7003 C.ar    
  32 C32           12.8176     1.7455    -0.9640 C.ar    
  33 O33           15.8821     2.5015     0.8584 O.3     
  34 C34           16.2689     2.5949     2.2309 C.3     
  35 C35            0.8736     1.5112    -0.2064 C.3     
  36 C36           -1.3754    -0.3515    -1.1481 C.3     
  37 C37           -2.0804    -0.4806     0.2036 C.3     
  38 C38           -3.5722    -0.1879     0.0307 C.3     
  39 C39           -1.8984    -1.9019     0.7401 C.3     
  40 O40           -1.5156     0.4529     1.1265 O.3     
  41 H41            4.4749    -1.9210    -0.4967 H       
  42 H42           -1.2344    -2.0012    -3.2487 H       
  43 H43           -2.5429    -3.9327    -4.0325 H       
  44 H44           -2.2594    -6.1303    -2.9616 H       
  45 H45           -0.6673    -6.4036    -1.1049 H       
  46 H46            0.6537    -4.4809    -0.3205 H       
  47 H47            5.1880     0.8444     1.5486 H       
  48 H48            7.4364     1.7075     2.0524 H       
  49 H49            9.0932    -0.8673    -0.9334 H       
  50 H50            6.8458    -1.7370    -1.4301 H       
  51 H51            9.9401     1.1477     1.7955 H       
  52 H52           10.8079     1.2503    -3.5157 H       
  53 H53            9.1767     0.8437    -1.7267 H       
  54 H54           11.7346     1.4706     2.2672 H       
  55 H55           14.0650     2.0473     2.6819 H       
  56 H56           14.8438     2.2484    -1.5151 H       
  57 H57           17.3251     2.8569     2.2938 H       
  58 H58           15.6740     3.3634     2.7245 H       
  59 H59           16.1026     1.6358     2.7213 H       
  60 H60            0.6644     1.5803     0.8611 H       
  61 H61            1.7972     2.0447    -0.4308 H       
  62 H62            0.0516     1.9560    -0.7673 H       
  63 H63           -1.4288     0.6826    -1.4885 H       
  64 H64           -1.8639    -0.9993    -1.8760 H       
  65 H65           -4.0029    -0.8999    -0.6732 H       
  66 H66           -4.0745    -0.2799     0.9937 H       
  67 H67           -3.7019     0.8246    -0.3515 H       
  68 H68           -0.8356    -2.1104     0.8633 H       
  69 H69           -2.4007    -1.9938     1.7031 H       
  70 H70           -2.3292    -2.6139     0.0362 H       
  71 H71           -1.5951     1.3762     0.8502 H       
@<TRIPOS>BOND
   1    1    2 1
   2    1    5 1
   3    1   36 1
   4    2    3 am
   5    2    9 1
   6    3    4 1
   7    3   15 2
   8    4    5 2
   9    4    6 1
  10    5   35 1
  11    6    7 2
  12    6    8 am
  13    8   16 1
  14    8   41 1
  15    9   10 ar
  16    9   14 ar
  17   10   11 ar
  18   10   42 1
  19   11   12 ar
  20   11   43 1
  21   12   13 ar
  22   12   44 1
  23   13   14 ar
  24   13   45 1
  25   14   46 1
  26   16   17 ar
  27   16   21 ar
  28   17   18 ar
  29   17   47 1
  30   18   19 ar
  31   18   48 1
  32   19   20 ar
  33   19   22 1
  34   20   21 ar
  35   20   49 1
  36   21   50 1
  37   22   26 1
  38   22   51 1
  39   23   24 ar
  40   23   32 ar
  41   24   25 ar
  42   24   52 1
  43   25   26 ar
  44   25   53 1
  45   26   27 ar
  46   27   28 ar
  47   27   32 ar
  48   28   29 ar
  49   28   54 1
  50   29   30 ar
  51   29   55 1
  52   30   31 ar
  53   30   33 1
  54   31   32 ar
  55   31   56 1
  56   33   34 1
  57   34   57 1
  58   34   58 1
  59   34   59 1
  60   35   60 1
  61   35   61 1
  62   35   62 1
  63   36   37 1
  64   36   63 1
  65   36   64 1
  66   37   38 1
  67   37   39 1
  68   37   40 1
  69   38   65 1
  70   38   66 1
  71   38   67 1
  72   39   68 1
  73   39   69 1
  74   39   70 1
  75   40   71 1

#	End of record

