#	Name: ASD01811362
#	Creating user name:	WinNT
#	Creation time:	15. 06. 2019 19:26

#	Modifying user name:	WinNT
#	Modification time:	15. 06. 2019 19:26

#	Program:	/corina/corina34_cracker 3.40 0067  02.08.2006

@<TRIPOS>MOLECULE
ASD01811362
  65   68    0    0    0
SMALL
NO_CHARGES


@<TRIPOS>ATOM
   1 C1            -0.1669     1.0293     0.8095 C.2     
   2 N2            -0.0776    -0.2436     0.3757 N.am    
   3 O3             0.8407     1.6468     1.0926 O.2     
   4 O4            -1.3721     1.6186     0.9241 O.3     
   5 C5             1.1778    -0.8163     0.1399 C.ar    
   6 C6             1.3665    -2.1799     0.3312 C.ar    
   7 C7             2.6040    -2.7502     0.0998 C.ar    
   8 C8             3.6609    -1.9693    -0.3225 C.ar    
   9 C9             3.4816    -0.5989    -0.5176 C.ar    
  10 C10            2.2309    -0.0245    -0.2898 C.ar    
  11 C11            0.2181    -3.0394     0.7931 C.3     
  12 C12            5.0083    -2.5961    -0.5724 C.3     
  13 C13            5.8457    -2.5320     0.7066 C.3     
  14 C14            4.6121     0.2402    -0.9695 C.2     
  15 O15            5.6463     0.2615    -0.3312 O.2     
  16 N16            4.4958     0.9814    -2.0891 N.am    
  17 C17            5.6432     1.7377    -2.6087 C.3     
  18 C18            5.8608     1.3570    -4.0766 C.3     
  19 C19            4.5606     1.5746    -4.8539 C.3     
  20 C20            3.4640     0.6751    -4.2791 C.3     
  21 C21            3.2208     1.0435    -2.8166 C.3     
  22 F22            4.1703     2.9135    -4.7440 F       
  23 C23            4.7802     1.2334    -6.3053 C.ar    
  24 C24            3.8594     1.6389    -7.2550 C.ar    
  25 C25            4.0543     1.3301    -8.5853 C.ar    
  26 C26            5.1842     0.6069    -8.9724 C.ar    
  27 C27            6.1097     0.2012    -8.0088 C.ar    
  28 C28            5.9048     0.5211    -6.6826 C.ar    
  29 C29            5.3927     0.2823   -10.3515 C.1     
  30 N30            5.5581     0.0248   -11.4455 N.1     
  31 O31           -2.2351     5.0572     0.5071 O.3     
  32 C32           -1.3359     3.9813     0.2144 C.3     
  33 C33           -1.3925     2.9911     1.3975 C.3     
  34 C34           -2.7616     3.3314     2.0470 C.3     
  35 C35           -2.8337     4.8590     1.7978 C.3     
  36 H36           -0.8833    -0.7629     0.2268 H       
  37 H37            2.7447    -3.8104     0.2503 H       
  38 H38            2.0850     1.0345    -0.4433 H       
  39 H39           -0.3221    -3.4203    -0.0736 H       
  40 H40            0.6021    -3.8751     1.3781 H       
  41 H41           -0.4564    -2.4444     1.4089 H       
  42 H42            4.8757    -3.6368    -0.8680 H       
  43 H43            5.5190    -2.0544    -1.3685 H       
  44 H44            6.8203    -2.9854     0.5258 H       
  45 H45            5.9783    -1.4913     1.0022 H       
  46 H46            5.3350    -3.0737     1.5027 H       
  47 H47            5.4405     2.8061    -2.5345 H       
  48 H48            6.5346     1.4918    -2.0315 H       
  49 H49            6.6473     1.9807    -4.5014 H       
  50 H50            6.1522     0.3087    -4.1412 H       
  51 H51            2.5446     0.8133    -4.8480 H       
  52 H52            3.7780    -0.3668    -4.3418 H       
  53 H53            2.5143     0.3398    -2.3766 H       
  54 H54            2.8165     2.0542    -2.7597 H       
  55 H55            2.9859     2.1983    -6.9541 H       
  56 H56            3.3343     1.6466    -9.3255 H       
  57 H57            6.9857    -0.3584    -8.3015 H       
  58 H58            6.6218     0.2115    -5.9367 H       
  59 H59           -1.6453     3.4798    -0.7026 H       
  60 H60           -0.3224     4.3665     0.1028 H       
  61 H61           -0.5758     3.1739     2.0958 H       
  62 H62           -3.5760     2.8121     1.5418 H       
  63 H63           -2.7570     3.1072     3.1137 H       
  64 H64           -2.2703     5.3941     2.5622 H       
  65 H65           -3.8714     5.1923     1.7887 H       
@<TRIPOS>BOND
   1    1    2 am
   2    1    3 2
   3    1    4 1
   4    2    5 1
   5    2   36 1
   6    4   33 1
   7    5    6 ar
   8    5   10 ar
   9    6    7 ar
  10    6   11 1
  11    7    8 ar
  12    7   37 1
  13    8    9 ar
  14    8   12 1
  15    9   10 ar
  16    9   14 1
  17   10   38 1
  18   11   39 1
  19   11   40 1
  20   11   41 1
  21   12   13 1
  22   12   42 1
  23   12   43 1
  24   13   44 1
  25   13   45 1
  26   13   46 1
  27   14   15 2
  28   14   16 am
  29   16   17 1
  30   16   21 1
  31   17   18 1
  32   17   47 1
  33   17   48 1
  34   18   19 1
  35   18   49 1
  36   18   50 1
  37   19   20 1
  38   19   22 1
  39   19   23 1
  40   20   21 1
  41   20   51 1
  42   20   52 1
  43   21   53 1
  44   21   54 1
  45   23   24 ar
  46   23   28 ar
  47   24   25 ar
  48   24   55 1
  49   25   26 ar
  50   25   56 1
  51   26   27 ar
  52   26   29 1
  53   27   28 ar
  54   27   57 1
  55   28   58 1
  56   29   30 3
  57   31   32 1
  58   31   35 1
  59   32   33 1
  60   32   59 1
  61   32   60 1
  62   33   34 1
  63   33   61 1
  64   34   35 1
  65   34   62 1
  66   34   63 1
  67   35   64 1
  68   35   65 1

#	End of record

