#	Name: ASD01884873
#	Creating user name:	WinNT
#	Creation time:	15. 06. 2019 19:49

#	Modifying user name:	WinNT
#	Modification time:	15. 06. 2019 19:49

#	Program:	/corina/corina34_cracker 3.40 0067  02.08.2006

@<TRIPOS>MOLECULE
ASD01884873
  35   39    0    0    0
SMALL
NO_CHARGES


@<TRIPOS>ATOM
   1 C1            -0.0164     1.3603     0.0095 C.ar    
   2 C2             0.0021    -0.0041     0.0020 C.ar    
   3 C3             1.2155    -0.7020    -0.0133 C.ar    
   4 C4             2.4183    -0.0074    -0.0210 C.ar    
   5 C5             2.4037     1.3870    -0.0134 C.ar    
   6 C6             1.1772     2.0775     0.0020 C.ar    
   7 C7             3.4476     2.4152    -0.0183 C.2     
   8 C8             2.8260     3.6047    -0.0062 C.2     
   9 N9             1.4700     3.4228     0.0060 N.pl3   
  10 C10            1.2167    -2.1838    -0.0208 C.2     
  11 C11            0.7023    -2.8772    -1.1012 C.2     
  12 C12            1.7499    -2.9040     1.0758 C.2     
  13 C13            1.7501    -4.2500     1.0672 C.2     
  14 N14            1.2397    -4.9434     0.0073 N.pl3   
  15 C15            0.7177    -4.2833    -1.0786 C.2     
  16 Cl16           0.0472    -2.0249    -2.4643 Cl      
  17 C17            1.1110    -6.2707    -0.2677 C.2     
  18 N18            0.5432    -6.3768    -1.4413 N.2     
  19 N19            0.3069    -5.2103    -1.9303 N.2     
  20 C20            1.5439    -7.4100     0.6187 C.3     
  21 H21            0.8124     4.1359     0.0155 H       
  22 C22            0.4665    -8.3918     1.0839 C.3     
  23 C23            1.4902    -8.8218     0.0313 C.3     
  24 H24           -0.9600     1.8857     0.0168 H       
  25 H25           -0.9291    -0.5512     0.0083 H       
  26 H26            3.3564    -0.5424    -0.0325 H       
  27 H27            4.5145     2.2477    -0.0292 H       
  28 H28            3.3228     4.5637    -0.0056 H       
  29 H29            2.1582    -2.3713     1.9219 H       
  30 H30            2.1595    -4.7885     1.9092 H       
  31 H31            2.3527    -7.1840     1.3135 H       
  32 H32            0.5668    -8.8119     2.0847 H       
  33 H33           -0.5553    -8.2136     0.7489 H       
  34 H34            1.1419    -8.9265    -0.9962 H       
  35 H35            2.2640    -9.5249     0.3395 H       
@<TRIPOS>BOND
   1    1    2 ar
   2    1    6 ar
   3    1   24 1
   4    2    3 ar
   5    2   25 1
   6    3    4 ar
   7    3   10 1
   8    4    5 ar
   9    4   26 1
  10    5    6 ar
  11    5    7 1
  12    6    9 1
  13    7    8 2
  14    7   27 1
  15    8    9 1
  16    8   28 1
  17    9   21 1
  18   10   11 2
  19   10   12 1
  20   11   16 1
  21   11   15 1
  22   12   13 2
  23   12   29 1
  24   13   14 1
  25   13   30 1
  26   14   15 1
  27   14   17 1
  28   15   19 2
  29   17   18 2
  30   17   20 1
  31   18   19 1
  32   20   22 1
  33   20   23 1
  34   20   31 1
  35   22   23 1
  36   22   32 1
  37   22   33 1
  38   23   34 1
  39   23   35 1

#	End of record

