#	Name: ASD00191006
#	Creating user name:	WinNT
#	Creation time:	15. 06. 2019 18:33

#	Modifying user name:	WinNT
#	Modification time:	15. 06. 2019 18:33

#	Program:	/corina/corina34_cracker 3.40 0067  02.08.2006

@<TRIPOS>MOLECULE
ASD00191006
  50   53    0    0    0
SMALL
NO_CHARGES


@<TRIPOS>ATOM
   1 C1            -1.0434     0.9416     0.3249 C.3     
   2 C2            -1.0169    -0.5958     0.2649 C.3     
   3 C3             0.4689    -1.0104     0.2427 C.3     
   4 C4             1.2074     0.1883     0.8883 C.3     
   5 C5             0.4272     1.4075     0.3371 C.3     
   6 C6            -1.7497     1.4934    -0.8866 C.2     
   7 O7            -2.1941     0.7388    -1.7255 O.2     
   8 N8            -1.8875     2.8255    -1.0377 N.am    
   9 N9            -3.3493     4.3642    -4.6203 N.ar    
  10 C10           -2.7798     3.1751    -4.5887 C.ar    
  11 C11           -2.2804     2.6321    -3.4007 C.ar    
  12 C12           -2.3771     3.3432    -2.2330 C.ar    
  13 C13           -2.9899     4.6201    -2.2768 C.ar    
  14 C14           -3.1229     5.4029    -1.1229 C.ar    
  15 C15           -3.7178     6.6271    -1.2031 C.ar    
  16 C16           -4.1956     7.1094    -2.4180 C.ar    
  17 C17           -4.0821     6.3733    -3.5585 C.ar    
  18 C18           -3.4744     5.1077    -3.5138 C.ar    
  19 N19           -2.6750     2.4438    -5.7635 N.pl3   
  20 C20           -3.3551     2.8640    -6.9128 C.ar    
  21 C21           -3.7682     1.9318    -7.8555 C.ar    
  22 C22           -4.4390     2.3472    -8.9889 C.ar    
  23 C23           -4.6998     3.6953    -9.1860 C.ar    
  24 C24           -4.2871     4.6272    -8.2450 C.ar    
  25 C25           -3.6221     4.2128    -7.1079 C.ar    
  26 O26           -5.3600     4.1035   -10.3025 O.3     
  27 C27           -5.5947     5.5063   -10.4409 C.3     
  28 H28           -1.5470     1.2711     1.2336 H       
  29 H29           -1.5077    -1.0123     1.1445 H       
  30 H30           -1.5149    -0.9427    -0.6405 H       
  31 H31            0.6214    -1.9147     0.8319 H       
  32 H32            0.8079    -1.1601    -0.7824 H       
  33 H33            1.1382     0.1446     1.9752 H       
  34 H34            2.2486     0.2188     0.5674 H       
  35 H35            0.7595     1.6483    -0.6727 H       
  36 H36            0.5493     2.2678     0.9952 H       
  37 H37           -1.6453     3.4235    -0.3133 H       
  38 H38           -1.8190     1.6556    -3.4036 H       
  39 H39           -2.7565     5.0386    -0.1746 H       
  40 H40           -3.8197     7.2298    -0.3127 H       
  41 H41           -4.6639     8.0818    -2.4571 H       
  42 H42           -4.4575     6.7615    -4.4938 H       
  43 H43           -2.1304     1.6414    -5.7884 H       
  44 H44           -3.5646     0.8822    -7.7026 H       
  45 H45           -4.7603     1.6223    -9.7222 H       
  46 H46           -4.4903     5.6766    -8.3994 H       
  47 H47           -3.3012     4.9384    -6.3751 H       
  48 H48           -6.1935     5.8591    -9.6012 H       
  49 H49           -4.6414     6.0346   -10.4548 H       
  50 H50           -6.1284     5.6952   -11.3724 H       
@<TRIPOS>BOND
   1    1    2 1
   2    1    5 1
   3    1    6 1
   4    1   28 1
   5    2    3 1
   6    2   29 1
   7    2   30 1
   8    3    4 1
   9    3   31 1
  10    3   32 1
  11    4    5 1
  12    4   33 1
  13    4   34 1
  14    5   35 1
  15    5   36 1
  16    6    7 2
  17    6    8 am
  18    8   12 1
  19    8   37 1
  20    9   10 ar
  21    9   18 ar
  22   10   11 ar
  23   10   19 1
  24   11   12 ar
  25   11   38 1
  26   12   13 ar
  27   13   14 ar
  28   13   18 ar
  29   14   15 ar
  30   14   39 1
  31   15   16 ar
  32   15   40 1
  33   16   17 ar
  34   16   41 1
  35   17   18 ar
  36   17   42 1
  37   19   20 1
  38   19   43 1
  39   20   21 ar
  40   20   25 ar
  41   21   22 ar
  42   21   44 1
  43   22   23 ar
  44   22   45 1
  45   23   24 ar
  46   23   26 1
  47   24   25 ar
  48   24   46 1
  49   25   47 1
  50   26   27 1
  51   27   48 1
  52   27   49 1
  53   27   50 1

#	End of record

