#	Name: ASD03091619
#	Creating user name:	WinNT
#	Creation time:	15. 06. 2019 20:31

#	Modifying user name:	WinNT
#	Modification time:	15. 06. 2019 20:31

#	Program:	/corina/corina34_cracker 3.40 0067  02.08.2006

@<TRIPOS>MOLECULE
ASD03091619
  59   62    0    0    0
SMALL
NO_CHARGES


@<TRIPOS>ATOM
   1 C1            -0.0653     1.3763    -0.2017 C.2     
   2 C2             0.0351     0.0525     0.0401 C.2     
   3 N3            -1.1164    -0.5494     0.2449 N.2     
   4 C4            -2.1858     0.1864     0.1909 C.2     
   5 S5            -1.7714     1.8113    -0.1406 S.3     
   6 N6            -3.4747    -0.2776     0.3807 N.3     
   7 C7            -4.4517     0.8134     0.2523 C.3     
   8 C8            -3.7854    -1.3678    -0.5554 C.3     
   9 C9            -5.1962    -1.8904    -0.2716 C.3     
  10 O10           -6.1281    -0.8100    -0.3703 O.3     
  11 C11           -5.8558     0.2690     0.5280 C.3     
  12 C12           -6.8853     1.3811     0.3176 C.3     
  13 C13           -5.5561    -2.9705    -1.2937 C.3     
  14 C14            1.0569     2.2983    -0.4647 C.ar    
  15 C15            1.0149     3.1957    -1.5401 C.ar    
  16 C16            2.1916     2.3048     0.3575 C.ar    
  17 C17            3.2156     3.1828     0.0754 C.ar    
  18 N18            3.1371     4.0089    -0.9515 N.ar    
  19 C19            2.0848     4.0389    -1.7482 C.ar    
  20 C20            1.3546    -0.6747     0.0726 C.3     
  21 C21            4.4418     3.2005     0.9513 C.3     
  22 N22            1.8272    -0.7673     1.4562 N.am    
  23 C23            2.9955    -1.3812     1.7296 C.2     
  24 C24            3.4709    -1.4742     3.1215 C.2     
  25 O25            3.6573    -1.8583     0.8278 O.2     
  26 C26            2.0557     5.0049    -2.9045 C.3     
  27 C27            2.8514    -0.9948     4.2383 C.2     
  28 O28            3.6101    -1.2860     5.2994 O.3     
  29 C29            4.7187    -1.9456     4.9290 C.2     
  30 C30            4.7088    -2.1088     3.5972 C.2     
  31 C31            5.7995    -2.4303     5.8608 C.3     
  32 H32           -4.2177     1.5980     0.9720 H       
  33 H33           -4.4112     1.2213    -0.7577 H       
  34 H34           -3.7343    -0.9949    -1.5783 H       
  35 H35           -3.0651    -2.1755    -0.4253 H       
  36 H36           -5.2329    -2.3121     0.7328 H       
  37 H37           -5.9117    -0.0900     1.5557 H       
  38 H38           -7.8850     0.9919     0.5103 H       
  39 H39           -6.6772     2.2032     1.0025 H       
  40 H40           -6.8271     1.7405    -0.7097 H       
  41 H41           -4.8433    -3.7918    -1.2207 H       
  42 H42           -6.5606    -3.3421    -1.0912 H       
  43 H43           -5.5209    -2.5470    -2.2975 H       
  44 H44            0.1574     3.2259    -2.1959 H       
  45 H45            2.2624     1.6324     1.1997 H       
  46 H46            1.2271    -1.6773    -0.3356 H       
  47 H47            2.0849    -0.1293    -0.5251 H       
  48 H48            5.1777     2.4978     0.5605 H       
  49 H49            4.8670     4.2041     0.9608 H       
  50 H50            4.1675     2.9125     1.9661 H       
  51 H51            1.2993    -0.3867     2.1755 H       
  52 H52            2.4850     4.5293    -3.7863 H       
  53 H53            1.0249     5.2921    -3.1121 H       
  54 H54            2.6361     5.8922    -2.6515 H       
  55 H55            1.9084    -0.4688     4.2611 H       
  56 H56            5.4601    -2.6001     2.9967 H       
  57 H57            5.5424    -2.1628     6.8857 H       
  58 H58            5.8902    -3.5135     5.7798 H       
  59 H59            6.7475    -1.9651     5.5907 H       
@<TRIPOS>BOND
   1    1    2 2
   2    1   14 1
   3    1    5 1
   4    2    3 1
   5    2   20 1
   6    3    4 2
   7    4    5 1
   8    4    6 1
   9    6    7 1
  10    6    8 1
  11    7   11 1
  12    7   32 1
  13    7   33 1
  14    8    9 1
  15    8   34 1
  16    8   35 1
  17    9   10 1
  18    9   13 1
  19    9   36 1
  20   10   11 1
  21   11   12 1
  22   11   37 1
  23   12   38 1
  24   12   39 1
  25   12   40 1
  26   13   41 1
  27   13   42 1
  28   13   43 1
  29   14   15 ar
  30   14   16 ar
  31   15   19 ar
  32   15   44 1
  33   16   17 ar
  34   16   45 1
  35   17   18 ar
  36   17   21 1
  37   18   19 ar
  38   19   26 1
  39   20   22 1
  40   20   46 1
  41   20   47 1
  42   21   48 1
  43   21   49 1
  44   21   50 1
  45   22   23 am
  46   22   51 1
  47   23   24 1
  48   23   25 2
  49   24   27 2
  50   24   30 1
  51   26   52 1
  52   26   53 1
  53   26   54 1
  54   27   28 1
  55   27   55 1
  56   28   29 1
  57   29   30 2
  58   29   31 1
  59   30   56 1
  60   31   57 1
  61   31   58 1
  62   31   59 1

#	End of record

