#	Name: ASD08070515
#	Creating user name:	WinNT
#	Creation time:	15. 06. 2019 21:15

#	Modifying user name:	WinNT
#	Modification time:	15. 06. 2019 21:15

#	Program:	/corina/corina34_cracker 3.40 0067  02.08.2006

@<TRIPOS>MOLECULE
ASD08070515
  47   48    0    0    0
SMALL
NO_CHARGES


@<TRIPOS>ATOM
   1 C1            -0.0167     1.3833     0.0096 C.ar    
   2 C2             0.0021    -0.0041     0.0020 C.ar    
   3 C3             1.2127    -0.6798    -0.0131 C.ar    
   4 C4             2.4016     0.0330    -0.0207 C.ar    
   5 C5             2.3775     1.4207    -0.0130 C.ar    
   6 C6             1.1699     2.0916     0.0021 C.ar    
   7 O7            -1.1651    -0.7001     0.0099 O.3     
   8 C8            -2.3743     0.0612     0.0259 C.3     
   9 C9            -3.5744    -0.8878     0.0327 C.3     
  10 O10            3.5897    -0.6265    -0.0351 O.3     
  11 C11            3.5391    -2.0546    -0.0418 C.3     
  12 C12            3.6696     2.1962    -0.0211 C.3     
  13 N13            4.1987     2.2491    -1.3862 N.am    
  14 C14            5.3546     2.8957    -1.6363 C.2     
  15 O15            5.9569     3.4339    -0.7307 O.2     
  16 C16            5.8944     2.9497    -3.0288 C.2     
  17 N17            7.0502     3.5962    -3.2789 N.am    
  18 O18            5.2920     2.4114    -3.9344 O.2     
  19 C19            7.5793     3.6491    -4.6440 C.3     
  20 C20            8.8912     4.4365    -4.6523 C.3     
  21 C21            9.4355     4.4910    -6.0565 C.2     
  22 C22            9.1649     5.4418    -6.9687 C.2     
  23 C23            9.8813     5.1020    -8.1393 C.2     
  24 C24           10.5468     3.9639    -7.8724 C.2     
  25 O25           10.2776     3.6016    -6.6075 O.3     
  26 H26           -0.9595     1.9101     0.0170 H       
  27 H27            1.2295    -1.7596    -0.0187 H       
  28 H28            1.1532     3.1715     0.0081 H       
  29 H29           -2.3992     0.6849     0.9196 H       
  30 H30           -2.4168     0.6944    -0.8603 H       
  31 H31           -3.5496    -1.5114    -0.8609 H       
  32 H32           -3.5319    -1.5209     0.9189 H       
  33 H33           -4.4968    -0.3071     0.0450 H       
  34 H34            3.0210    -2.4040     0.8513 H       
  35 H35            3.0044    -2.3950    -0.9285 H       
  36 H36            4.5532    -2.4540    -0.0533 H       
  37 H37            3.4876     3.2093     0.3376 H       
  38 H38            4.3925     1.7046     0.6300 H       
  39 H39            3.7172     1.8189    -2.1100 H       
  40 H40            7.5317     4.0264    -2.5551 H       
  41 H41            7.7614     2.6361    -5.0027 H       
  42 H42            6.8565     4.1407    -5.2951 H       
  43 H43            8.7092     5.4496    -4.2936 H       
  44 H44            9.6141     3.9449    -4.0012 H       
  45 H45            8.5231     6.2997    -6.8332 H       
  46 H46            9.8919     5.6507    -9.0694 H       
  47 H47           11.1915     3.4336    -8.5577 H       
@<TRIPOS>BOND
   1    1    2 ar
   2    1    6 ar
   3    1   26 1
   4    2    3 ar
   5    2    7 1
   6    3    4 ar
   7    3   27 1
   8    4    5 ar
   9    4   10 1
  10    5    6 ar
  11    5   12 1
  12    6   28 1
  13    7    8 1
  14    8    9 1
  15    8   29 1
  16    8   30 1
  17    9   31 1
  18    9   32 1
  19    9   33 1
  20   10   11 1
  21   11   34 1
  22   11   35 1
  23   11   36 1
  24   12   13 1
  25   12   37 1
  26   12   38 1
  27   13   14 am
  28   13   39 1
  29   14   15 2
  30   14   16 1
  31   16   17 am
  32   16   18 2
  33   17   19 1
  34   17   40 1
  35   19   20 1
  36   19   41 1
  37   19   42 1
  38   20   21 1
  39   20   43 1
  40   20   44 1
  41   21   22 2
  42   21   25 1
  43   22   23 1
  44   22   45 1
  45   23   24 2
  46   23   46 1
  47   24   25 1
  48   24   47 1

#	End of record

