#	Name: ASD02440013
#	Creating user name:	WinNT
#	Creation time:	15. 06. 2019 20:21

#	Modifying user name:	WinNT
#	Modification time:	15. 06. 2019 20:21

#	Program:	/corina/corina34_cracker 3.40 0067  02.08.2006

@<TRIPOS>MOLECULE
ASD02440013
  53   58    0    0    0
SMALL
NO_CHARGES


@<TRIPOS>ATOM
   1 C1            -0.0168     1.3911     0.0097 C.ar    
   2 C2             0.0021    -0.0041     0.0020 C.ar    
   3 C3            -1.1648    -0.7094     0.0093 C.ar    
   4 C4            -2.3896    -0.0288     0.0246 C.ar    
   5 C5            -2.4167     1.3815     0.0325 C.ar    
   6 C6            -1.2187     2.0807     0.0306 C.ar    
   7 C7            -3.6568    -0.7632     0.0321 C.2     
   8 C8            -4.8506    -0.0091     0.0468 C.2     
   9 C9            -4.7801     1.4053     0.0540 C.2     
  10 O10           -3.5914     2.0430     0.0473 O.3     
  11 C11           -6.1013    -0.6580     0.0539 C.2     
  12 C12           -7.2440     0.0718     0.0676 C.2     
  13 C13           -7.1861     1.4814     0.0743 C.2     
  14 C14           -5.9500     2.1387     0.0683 C.2     
  15 O15           -8.2230     2.1338     0.0858 O.2     
  16 O16            1.1524     2.0790     0.0022 O.3     
  17 C17           -3.6850    -2.2373     0.0240 C.ar    
  18 C18           -4.0031    -2.9479     1.2000 C.ar    
  19 C19           -3.4028    -2.9388    -1.1485 C.ar    
  20 C20           -3.4312    -4.3199    -1.1502 C.ar    
  21 C21           -3.7388    -5.0165     0.0057 C.ar    
  22 C22           -4.0261    -4.3396     1.1766 C.ar    
  23 As23          -1.2261     4.0707     0.0416 Du      
  24 As24          -5.8792     4.1274     0.0793 Du      
  25 S25           -1.2186     4.8183     2.1939 S.3     
  26 C26            0.4780     5.5267     2.1458 C.3     
  27 C27            0.9053     6.0974     0.7923 C.3     
  28 S28            0.8345     4.8422    -0.5636 S.3     
  29 S29           -7.9989     4.9628     0.1009 S.3     
  30 C30           -7.9166     5.6528     1.8038 C.3     
  31 C31           -6.5395     6.1634     2.2317 C.3     
  32 S32           -5.2366     4.8542     2.1447 S.3     
  33 C33           -4.3093    -2.2201     2.4486 C.2     
  34 O34           -4.2877    -1.0057     2.4647 O.2     
  35 O35           -4.6126    -2.9032     3.5695 O.3     
  36 H36            0.9463    -0.5282    -0.0101 H       
  37 H37           -1.1452    -1.7892     0.0030 H       
  38 H38           -6.1498    -1.7369     0.0481 H       
  39 H39           -8.2016    -0.4276     0.0729 H       
  40 H40            1.4829     2.2831    -0.8833 H       
  41 H41           -3.1627    -2.4022    -2.0545 H       
  42 H42           -3.2123    -4.8597    -2.0596 H       
  43 H43           -3.7582    -6.0962    -0.0081 H       
  44 H44           -4.2648    -4.8908     2.0742 H       
  45 H45            0.5384     6.3227     2.8880 H       
  46 H46            1.1840     4.7452     2.4267 H       
  47 H47            0.2484     6.9290     0.5373 H       
  48 H48            1.9261     6.4708     0.8738 H       
  49 H49           -8.6253     6.4780     1.8740 H       
  50 H50           -8.2273     4.8770     2.5035 H       
  51 H51           -6.2525     6.9899     1.5816 H       
  52 H52           -6.6025     6.5303     3.2561 H       
  53 H53           -4.8057    -2.3834     4.3617 H       
@<TRIPOS>BOND
   1    1    2 ar
   2    1   16 1
   3    1    6 ar
   4    2    3 ar
   5    2   36 1
   6    3    4 ar
   7    3   37 1
   8    4    5 ar
   9    4    7 1
  10    5    6 ar
  11    5   10 1
  12    6   23 1
  13    7    8 2
  14    7   17 1
  15    8    9 1
  16    8   11 1
  17    9   10 1
  18    9   14 2
  19   11   12 2
  20   11   38 1
  21   12   13 1
  22   12   39 1
  23   13   14 1
  24   13   15 2
  25   14   24 1
  26   16   40 1
  27   17   18 ar
  28   17   19 ar
  29   18   33 1
  30   18   22 ar
  31   19   20 ar
  32   19   41 1
  33   20   21 ar
  34   20   42 1
  35   21   22 ar
  36   21   43 1
  37   22   44 1
  38   23   25 1
  39   23   28 1
  40   24   29 1
  41   24   32 1
  42   25   26 1
  43   26   27 1
  44   26   45 1
  45   26   46 1
  46   27   28 1
  47   27   47 1
  48   27   48 1
  49   29   30 1
  50   30   31 1
  51   30   49 1
  52   30   50 1
  53   31   32 1
  54   31   51 1
  55   31   52 1
  56   33   34 2
  57   33   35 1
  58   35   53 1

#	End of record

