#	Name: ASD09530062
#	Creating user name:	WinNT
#	Creation time:	15. 06. 2019 21:22

#	Modifying user name:	WinNT
#	Modification time:	15. 06. 2019 21:22

#	Program:	/corina/corina34_cracker 3.40 0067  02.08.2006

@<TRIPOS>MOLECULE
ASD09530062
  54   56    0    0    0
SMALL
NO_CHARGES


@<TRIPOS>ATOM
   1 C1            -0.0269     1.4886     0.0239 C.2     
   2 C2            -0.0026    -0.0180     0.0033 C.3     
   3 O3             1.0135     2.1119     0.0250 O.2     
   4 N4            -1.2048     2.1435     0.0355 N.am    
   5 C5            -1.2284     3.6082     0.0555 C.3     
   6 C6            -1.1077     4.1005     1.4991 C.3     
   7 C7            -2.5253     4.0978    -0.5354 C.ar    
   8 C8            -2.5850     5.3600    -1.0969 C.ar    
   9 C9            -3.7799     5.8037    -1.6387 C.ar    
  10 C10           -4.8823     4.9530    -1.5955 C.ar    
  11 C11           -4.7433     3.6992    -1.0143 C.ar    
  12 N12           -3.5858     3.3145    -0.5146 N.ar    
  13 N13           -6.1095     5.3553    -2.1283 N.pl3   
  14 C14           -7.2618     4.4520    -2.0771 C.3     
  15 C15           -8.4710     5.1307    -2.7237 C.3     
  16 F16           -8.1767     5.4360    -4.0569 F       
  17 F17           -9.5713     4.2681    -2.6748 F       
  18 F18           -8.7705     6.3085    -2.0307 F       
  19 C19            1.4261    -0.4972    -0.0133 C.ar    
  20 C20            2.0888    -0.7329     1.1771 C.ar    
  21 C21            3.3985    -1.1723     1.1646 C.ar    
  22 C22            4.0487    -1.3769    -0.0437 C.ar    
  23 C23            3.3816    -1.1397    -1.2367 C.ar    
  24 C24            2.0701    -0.7058    -1.2189 C.ar    
  25 O25            5.3372    -1.8086    -0.0586 O.3     
  26 O26            6.9447    -3.7438     2.4454 O.3     
  27 C27            5.7223    -3.2908     1.8520 C.3     
  28 C28            5.9995    -1.9178     1.2029 C.3     
  29 C29            7.5412    -1.9463     1.0172 C.3     
  30 C30            7.9728    -2.7569     2.2652 C.3     
  31 H31           -0.5042    -0.4017     0.8917 H       
  32 H32           -0.5168    -0.3775    -0.8881 H       
  33 H33           -2.0369     1.6451     0.0305 H       
  34 H34           -0.3938     3.9931    -0.5306 H       
  35 H35           -1.9422     3.7156     2.0852 H       
  36 H36           -0.1696     3.7464     1.9265 H       
  37 H37           -1.1252     5.1903     1.5140 H       
  38 H38           -1.7100     5.9928    -1.1125 H       
  39 H39           -3.8553     6.7850    -2.0834 H       
  40 H40           -5.5912     3.0313    -0.9748 H       
  41 H41           -6.1986     6.2327    -2.5323 H       
  42 H42           -7.0284     3.5344    -2.6170 H       
  43 H43           -7.4910     4.2141    -1.0384 H       
  44 H44            1.5823    -0.5731     2.1174 H       
  45 H45            3.9158    -1.3559     2.0947 H       
  46 H46            3.8856    -1.2982    -2.1786 H       
  47 H47            1.5488    -0.5256    -2.1474 H       
  48 H48            5.3953    -4.0000     1.0917 H       
  49 H49            4.9545    -3.1889     2.6190 H       
  50 H50            5.7007    -1.1071     1.8674 H       
  51 H51            7.8166    -2.4636     0.0982 H       
  52 H52            7.9582    -0.9395     1.0392 H       
  53 H53            8.0298    -2.1063     3.1378 H       
  54 H54            8.9340    -3.2398     2.0888 H       
@<TRIPOS>BOND
   1    1    2 1
   2    1    3 2
   3    1    4 am
   4    2   19 1
   5    2   31 1
   6    2   32 1
   7    4    5 1
   8    4   33 1
   9    5    6 1
  10    5    7 1
  11    5   34 1
  12    6   35 1
  13    6   36 1
  14    6   37 1
  15    7    8 ar
  16    7   12 ar
  17    8    9 ar
  18    8   38 1
  19    9   10 ar
  20    9   39 1
  21   10   11 ar
  22   10   13 1
  23   11   12 ar
  24   11   40 1
  25   13   14 1
  26   13   41 1
  27   14   15 1
  28   14   42 1
  29   14   43 1
  30   15   16 1
  31   15   17 1
  32   15   18 1
  33   19   20 ar
  34   19   24 ar
  35   20   21 ar
  36   20   44 1
  37   21   22 ar
  38   21   45 1
  39   22   23 ar
  40   22   25 1
  41   23   24 ar
  42   23   46 1
  43   24   47 1
  44   25   28 1
  45   26   27 1
  46   26   30 1
  47   27   28 1
  48   27   48 1
  49   27   49 1
  50   28   29 1
  51   28   50 1
  52   29   30 1
  53   29   51 1
  54   29   52 1
  55   30   53 1
  56   30   54 1

#	End of record

