#	Name: ASD09080126
#	Creating user name:	WinNT
#	Creation time:	15. 06. 2019 21:20

#	Modifying user name:	WinNT
#	Modification time:	15. 06. 2019 21:20

#	Program:	/corina/corina34_cracker 3.40 0067  02.08.2006

@<TRIPOS>MOLECULE
ASD09080126
  77   81    0    0    0
SMALL
NO_CHARGES


@<TRIPOS>ATOM
   1 C1             0.5372     1.6126    -0.8186 C.ar    
   2 C2             0.5844     0.2562    -0.5471 C.ar    
   3 C3             1.7893    -0.4180    -0.5918 C.ar    
   4 C4             2.9582     0.2696    -0.9109 C.ar    
   5 C5             2.9056     1.6349    -1.1834 C.ar    
   6 C6             1.6958     2.3002    -1.1361 C.ar    
   7 Cl7            1.6285     4.0013    -1.4759 Cl      
   8 Cl8           -0.8730    -0.5990    -0.1491 Cl      
   9 C9             4.2552    -0.4498    -0.9598 C.ar    
  10 C10            5.4244     0.2376    -1.2789 C.ar    
  11 C11            4.3091    -1.8140    -0.6813 C.ar    
  12 C12            5.5181    -2.4781    -0.7283 C.ar    
  13 C13            6.6749    -1.7918    -1.0507 C.ar    
  14 C14            6.6280    -0.4365    -1.3230 C.ar    
  15 C15            7.9922    -2.5222    -1.0995 C.3     
  16 C16            8.2233    -3.0633    -2.5118 C.3     
  17 C17            9.4978    -3.9097    -2.5315 C.3     
  18 C18            9.3109    -5.1986    -1.7012 C.3     
  19 O19           10.5740    -3.2319    -1.8385 O.3     
  20 C20           11.4312    -4.3155    -1.4192 C.3     
  21 O21           10.5577    -5.3803    -1.0062 O.3     
  22 C22           12.3065    -4.7759    -2.5866 C.3     
  23 C23           12.3078    -3.8695    -0.2472 C.3     
  24 C24            9.0420    -6.3713    -2.6087 C.2     
  25 O25            9.8605    -7.2537    -2.7142 O.2     
  26 O26            7.8930    -6.4354    -3.2998 O.3     
  27 C27            6.3826    -7.4889    -4.8640 C.ar    
  28 C28            6.4163    -6.8724    -6.1008 C.ar    
  29 C29            5.2539    -6.7340    -6.8360 C.ar    
  30 C30            4.0579    -7.2127    -6.3347 C.ar    
  31 C31            4.0243    -7.8300    -5.0983 C.ar    
  32 C32            5.1865    -7.9671    -4.3625 C.ar    
  33 C33            7.6509    -7.6453    -4.0652 C.3     
  34 N34            8.3659    -1.9441    -3.4464 N.am    
  35 C35           11.0432     2.8758    -6.9979 C.ar    
  36 C36           10.3771     4.0675    -6.7811 C.ar    
  37 C37            9.7189     4.2837    -5.5849 C.ar    
  38 C38            9.7269     3.3083    -4.6054 C.ar    
  39 C39           10.3930     2.1166    -4.8222 C.ar    
  40 C40           11.0512     1.9003    -6.0184 C.ar    
  41 C41           10.4018     1.0532    -3.7544 C.3     
  42 O42            9.3340     0.1027    -4.0092 O.3     
  43 C43            9.2672    -0.9724    -3.2015 C.2     
  44 O44           10.0194    -1.0667    -2.2520 O.2     
  45 H45           -0.4073     2.1354    -0.7870 H       
  46 H46            1.8251    -1.4763    -0.3794 H       
  47 H47            3.8091     2.1723    -1.4309 H       
  48 H48            5.3889     1.2958    -1.4916 H       
  49 H49            3.4065    -2.3506    -0.4287 H       
  50 H50            5.5610    -3.5355    -0.5126 H       
  51 H51            7.5342     0.0944    -1.5746 H       
  52 H52            8.7978    -1.8365    -0.8368 H       
  53 H53            7.9748    -3.3506    -0.3913 H       
  54 H54            7.3740    -3.6786    -2.8087 H       
  55 H55            9.7847    -4.1486    -3.5555 H       
  56 H56            8.4951    -5.0751    -0.9891 H       
  57 H57           12.9227    -3.9444    -2.9287 H       
  58 H58           12.9488    -5.5932    -2.2588 H       
  59 H59           11.6717    -5.1180    -3.4039 H       
  60 H60           11.6738    -3.5714     0.5879 H       
  61 H61           12.9500    -4.6946     0.0607 H       
  62 H62           12.9240    -3.0248    -0.5552 H       
  63 H63            7.3507    -6.4984    -6.4925 H       
  64 H64            5.2801    -6.2517    -7.8020 H       
  65 H65            3.1496    -7.1040    -6.9088 H       
  66 H66            3.0898    -8.2033    -4.7063 H       
  67 H67            5.1601    -8.4488    -3.3962 H       
  68 H68            8.4872    -7.8206    -4.7419 H       
  69 H69            7.5501    -8.4913    -3.3854 H       
  70 H70            7.8116    -1.9025    -4.2413 H       
  71 H71           11.5537     2.7051    -7.9342 H       
  72 H72           10.3712     4.8298    -7.5462 H       
  73 H73            9.1991     5.2151    -5.4152 H       
  74 H74            9.2133     3.4775    -3.6706 H       
  75 H75           11.5714     0.9692    -6.1879 H       
  76 H76           11.3603     0.5344    -3.7661 H       
  77 H77           10.2511     1.5162    -2.7793 H       
@<TRIPOS>BOND
   1    1    2 ar
   2    1    6 ar
   3    1   45 1
   4    2    3 ar
   5    2    8 1
   6    3    4 ar
   7    3   46 1
   8    4    5 ar
   9    4    9 1
  10    5    6 ar
  11    5   47 1
  12    6    7 1
  13    9   10 ar
  14    9   11 ar
  15   10   14 ar
  16   10   48 1
  17   11   12 ar
  18   11   49 1
  19   12   13 ar
  20   12   50 1
  21   13   14 ar
  22   13   15 1
  23   14   51 1
  24   15   16 1
  25   15   52 1
  26   15   53 1
  27   16   34 1
  28   16   17 1
  29   16   54 1
  30   17   18 1
  31   17   19 1
  32   17   55 1
  33   18   21 1
  34   18   24 1
  35   18   56 1
  36   19   20 1
  37   20   21 1
  38   20   22 1
  39   20   23 1
  40   22   57 1
  41   22   58 1
  42   22   59 1
  43   23   60 1
  44   23   61 1
  45   23   62 1
  46   24   25 2
  47   24   26 1
  48   26   33 1
  49   27   28 ar
  50   27   32 ar
  51   27   33 1
  52   28   29 ar
  53   28   63 1
  54   29   30 ar
  55   29   64 1
  56   30   31 ar
  57   30   65 1
  58   31   32 ar
  59   31   66 1
  60   32   67 1
  61   33   68 1
  62   33   69 1
  63   34   43 am
  64   34   70 1
  65   35   36 ar
  66   35   40 ar
  67   35   71 1
  68   36   37 ar
  69   36   72 1
  70   37   38 ar
  71   37   73 1
  72   38   39 ar
  73   38   74 1
  74   39   40 ar
  75   39   41 1
  76   40   75 1
  77   41   42 1
  78   41   76 1
  79   41   77 1
  80   42   43 1
  81   43   44 2

#	End of record

