#	Name: ASD01811380
#	Creating user name:	WinNT
#	Creation time:	15. 06. 2019 19:26

#	Modifying user name:	WinNT
#	Modification time:	15. 06. 2019 19:26

#	Program:	/corina/corina34_cracker 3.40 0067  02.08.2006

@<TRIPOS>MOLECULE
ASD01811380
  22   22    0    0    0
SMALL
NO_CHARGES


@<TRIPOS>ATOM
   1 C1            -0.0180     1.4732     0.0101 C.2     
   2 C2             0.0021    -0.0041     0.0020 C.ar    
   3 C3             1.2172    -0.6985    -0.0133 C.ar    
   4 C4             1.1801    -2.0881    -0.0205 C.ar    
   5 C5            -0.0517    -2.7328    -0.0122 C.ar    
   6 N6            -1.1773    -2.0461     0.0018 N.ar    
   7 C7            -1.1905    -0.7294     0.0153 C.ar    
   8 O8             1.0256     2.0948     0.0035 O.2     
   9 O9            -1.1936     2.1308     0.0193 O.3     
  10 C10           -0.1013    -4.2390    -0.0199 C.3     
  11 N11            2.3657    -2.8276    -0.0362 N.pl3   
  12 C12           -1.1373     3.5817     0.0269 C.3     
  13 H13            2.1585    -0.1690    -0.0198 H       
  14 H14           -2.1344    -0.2049     0.0317 H       
  15 H15           -0.1034    -4.6077     1.0059 H       
  16 H16           -1.0076    -4.5702    -0.5269 H       
  17 H17            0.7714    -4.6286    -0.5442 H       
  18 H18            3.2218    -2.3715    -0.0422 H       
  19 H19            2.3327    -3.7971    -0.0411 H       
  20 H20           -0.6140     3.9297    -0.8637 H       
  21 H21           -2.1501     3.9846     0.0339 H       
  22 H22           -0.6055     3.9200     0.9162 H       
@<TRIPOS>BOND
   1    1    2 1
   2    1    8 2
   3    1    9 1
   4    2    3 ar
   5    2    7 ar
   6    3    4 ar
   7    3   13 1
   8    4    5 ar
   9    4   11 1
  10    5    6 ar
  11    5   10 1
  12    6    7 ar
  13    7   14 1
  14    9   12 1
  15   10   15 1
  16   10   16 1
  17   10   17 1
  18   11   18 1
  19   11   19 1
  20   12   20 1
  21   12   21 1
  22   12   22 1

#	End of record

