#	Name: ASD01330020
#	Creating user name:	WinNT
#	Creation time:	15. 06. 2019 19:16

#	Modifying user name:	WinNT
#	Modification time:	15. 06. 2019 19:16

#	Program:	/corina/corina34_cracker 3.40 0067  02.08.2006

@<TRIPOS>MOLECULE
ASD01330020
  34   34    0    0    0
SMALL
NO_CHARGES


@<TRIPOS>ATOM
   1 C1            -0.0471     1.2916    -0.4789 C.2     
   2 C2            -0.0295     0.0200    -0.1384 C.2     
   3 C3             1.2086    -0.7118     0.2913 C.3     
   4 C4             2.3014     0.2857     0.6810 C.3     
   5 C5             2.4374     1.3221    -0.4412 C.3     
   6 C6             1.1669     2.1742    -0.4721 C.3     
   7 C7            -1.3280     1.8792    -0.8953 C.2     
   8 O8            -2.3318     1.1944    -0.9182 O.2     
   9 O9            -1.3896     3.1777    -1.2518 O.3     
  10 O10            1.6742    -1.5279    -0.7854 O.3     
  11 P11            1.8149    -3.1280    -0.6755 P.3     
  12 O12            2.6661    -3.4697     0.4860 O.2     
  13 O13            0.3568    -3.7830    -0.4834 O.3     
  14 O14            2.4877    -3.7012    -2.0211 O.3     
  15 O15            3.5694     2.1570    -0.1890 O.3     
  16 C16            3.5722     2.6612    -2.4670 C.2     
  17 C17            4.1354     2.7707    -1.2626 C.2     
  18 C18            5.3705     3.5565    -1.0955 C.2     
  19 O19            5.8835     3.6562     0.0016 O.2     
  20 O20            5.9314     4.1648    -2.1595 O.3     
  21 O21            3.5417    -0.4033     0.8511 O.3     
  22 H22           -0.9595    -0.5281    -0.1698 H       
  23 H23            0.9753    -1.3449     1.1473 H       
  24 H24            2.0266     0.7856     1.6098 H       
  25 H25            2.5601     0.8128    -1.3971 H       
  26 H26            1.1687     2.7932    -1.3693 H       
  27 H27            1.1414     2.8170     0.4079 H       
  28 H28           -2.2542     3.5193    -1.5183 H       
  29 H29           -0.2555    -3.5996    -1.2091 H       
  30 H30            2.6035    -4.6613    -2.0248 H       
  31 H31            4.0687     3.0704    -3.3345 H       
  32 H32            2.6198     2.1635    -2.5746 H       
  33 H33            6.7411     4.6690    -2.0005 H       
  34 H34            3.5221    -1.0851     1.5366 H       
@<TRIPOS>BOND
   1    1    2 2
   2    1    6 1
   3    1    7 1
   4    2    3 1
   5    2   22 1
   6    3    4 1
   7    3   10 1
   8    3   23 1
   9    4    5 1
  10    4   21 1
  11    4   24 1
  12    5    6 1
  13    5   15 1
  14    5   25 1
  15    6   26 1
  16    6   27 1
  17    7    8 2
  18    7    9 1
  19    9   28 1
  20   10   11 1
  21   11   12 2
  22   11   13 1
  23   11   14 1
  24   13   29 1
  25   14   30 1
  26   15   17 1
  27   16   17 2
  28   16   31 1
  29   16   32 1
  30   17   18 1
  31   18   19 2
  32   18   20 1
  33   20   33 1
  34   21   34 1

#	End of record

