#	Name: ASD01882374
#	Creating user name:	WinNT
#	Creation time:	15. 06. 2019 19:44

#	Modifying user name:	WinNT
#	Modification time:	15. 06. 2019 19:44

#	Program:	/corina/corina34_cracker 3.40 0067  02.08.2006

@<TRIPOS>MOLECULE
ASD01882374
  64   70    0    0    0
SMALL
NO_CHARGES


@<TRIPOS>ATOM
   1 C1            -0.3207     0.7112    -0.4719 C.3     
   2 O2             0.0900    -0.6560    -0.3101 O.3     
   3 C3             1.2015    -0.8170    -1.2116 C.3     
   4 C4             1.8379     0.5479    -1.3349 C.ar    
   5 C5             3.0738     0.9662    -1.7829 C.ar    
   6 C6             3.3890     2.3127    -1.7813 C.ar    
   7 C7             2.4664     3.2388    -1.3309 C.ar    
   8 C8             1.2272     2.8197    -0.8824 C.ar    
   9 C9             0.9118     1.4765    -0.8846 C.ar    
  10 N10           -3.0488     0.4043     0.1827 N.pl3   
  11 C11           -2.6063    -0.0287    -1.1497 C.3     
  12 C12           -1.3887     0.8065    -1.5600 C.3     
  13 C13           -0.8598     1.2517     0.8508 C.3     
  14 C14           -2.0736     0.4214     1.2815 C.3     
  15 C15            2.2063    -1.8171    -0.6361 C.3     
  16 C16            0.7066    -1.2933    -2.5788 C.3     
  17 C17           -6.4979     0.4765     1.4411 C.2     
  18 C18           -5.1697     0.0651     1.2374 C.2     
  19 C19           -4.3676     0.7917     0.3999 C.2     
  20 C20           -4.8867     1.9372    -0.2420 C.2     
  21 C21           -6.1632     2.3136    -0.0322 C.2     
  22 N22           -6.9711     1.5960     0.8009 N.pl3   
  23 N23           -8.5343     0.7452     2.0146 N.2     
  24 N24           -7.4980    -0.0022     2.1654 N.2     
  25 C25           -8.2698     1.7293     1.1962 C.2     
  26 C26           -9.2254     2.8126     0.7667 C.3     
  27 C27           -9.9713     2.3649    -0.4920 C.3     
  28 C28          -11.0766     3.2808    -1.0214 C.3     
  29 C29           -9.7472     3.1739    -1.7712 C.3     
  30 C30           -4.6354    -1.1605     1.9327 C.3     
  31 C31           -4.6521    -1.1685     3.4626 C.3     
  32 C32           -5.6374    -2.0409     2.6822 C.3     
  33 H33            3.7946     0.2428    -2.1343 H       
  34 H34            4.3564     2.6410    -2.1316 H       
  35 H35            2.7137     4.2900    -1.3290 H       
  36 H36            0.5067     3.5434    -0.5310 H       
  37 H37           -2.3326    -1.0833    -1.1191 H       
  38 H38           -3.4115     0.1214    -1.8689 H       
  39 H39           -1.6873     1.8472    -1.6865 H       
  40 H40           -0.9864     0.4263    -2.4989 H       
  41 H41           -0.0844     1.1853     1.6140 H       
  42 H42           -1.1577     2.2926     0.7240 H       
  43 H43           -2.5273     0.8689     2.1658 H       
  44 H44           -1.7582    -0.5975     1.5060 H       
  45 H45            1.7257    -2.7883    -0.5187 H       
  46 H46            3.0544    -1.9110    -1.3143 H       
  47 H47            2.5546    -1.4643     0.3346 H       
  48 H48            0.1935    -0.4753    -3.0846 H       
  49 H49            1.5562    -1.6165    -3.1803 H       
  50 H50            0.0176    -2.1273    -2.4454 H       
  51 H51           -4.2577     2.5143    -0.9036 H       
  52 H52           -6.5506     3.1914    -0.5280 H       
  53 H53           -9.9423     3.0025     1.5656 H       
  54 H54           -8.6685     3.7250     0.5538 H       
  55 H55          -10.1163     1.2896    -0.5951 H       
  56 H56          -11.9487     2.8080    -1.4732 H       
  57 H57          -11.2725     4.2023    -0.4731 H       
  58 H58           -9.0684     4.0249    -1.7161 H       
  59 H59           -9.7447     2.6307    -2.7162 H       
  60 H60           -3.8018    -1.6570     1.4359 H       
  61 H61           -3.8298    -1.6706     3.9723 H       
  62 H62           -5.0497    -0.2873     3.9662 H       
  63 H63           -6.6832    -1.7336     2.6723 H       
  64 H64           -5.4633    -3.1169     2.6785 H       
@<TRIPOS>BOND
   1    1    2 1
   2    1    9 1
   3    1   12 1
   4    1   13 1
   5    2    3 1
   6    3    4 1
   7    3   15 1
   8    3   16 1
   9    4    5 ar
  10    4    9 ar
  11    5    6 ar
  12    5   33 1
  13    6    7 ar
  14    6   34 1
  15    7    8 ar
  16    7   35 1
  17    8    9 ar
  18    8   36 1
  19   10   11 1
  20   10   14 1
  21   10   19 1
  22   11   12 1
  23   11   37 1
  24   11   38 1
  25   12   39 1
  26   12   40 1
  27   13   14 1
  28   13   41 1
  29   13   42 1
  30   14   43 1
  31   14   44 1
  32   15   45 1
  33   15   46 1
  34   15   47 1
  35   16   48 1
  36   16   49 1
  37   16   50 1
  38   17   18 1
  39   17   22 1
  40   17   24 2
  41   18   19 2
  42   18   30 1
  43   19   20 1
  44   20   21 2
  45   20   51 1
  46   21   22 1
  47   21   52 1
  48   22   25 1
  49   23   24 1
  50   23   25 2
  51   25   26 1
  52   26   27 1
  53   26   53 1
  54   26   54 1
  55   27   28 1
  56   27   29 1
  57   27   55 1
  58   28   29 1
  59   28   56 1
  60   28   57 1
  61   29   58 1
  62   29   59 1
  63   30   31 1
  64   30   32 1
  65   30   60 1
  66   31   32 1
  67   31   61 1
  68   31   62 1
  69   32   63 1
  70   32   64 1

#	End of record

