#	Name: ASD01040025
#	Creating user name:	WinNT
#	Creation time:	15. 06. 2019 18:58

#	Modifying user name:	WinNT
#	Modification time:	15. 06. 2019 18:58

#	Program:	/corina/corina34_cracker 3.40 0067  02.08.2006

@<TRIPOS>MOLECULE
ASD01040025
  59   63    0    0    0
SMALL
NO_CHARGES


@<TRIPOS>ATOM
   1 C1             0.0007    -2.4681    -3.3597 C.3     
   2 C2            -0.2589    -1.8616    -2.0048 C.ar    
   3 C3            -0.5461    -2.6733    -0.9286 C.ar    
   4 C4            -0.7855    -2.1155     0.3204 C.ar    
   5 O5            -1.0687    -2.9198     1.3782 O.3     
   6 C6            -0.7358    -0.7379     0.4919 C.ar    
   7 C7            -0.4490     0.0818    -0.5778 C.ar    
   8 C8            -0.2030    -0.4753    -1.8362 C.ar    
   9 C9             0.1092     0.3966    -2.9822 C.2     
  10 C10           -0.7732     1.2395    -3.5407 C.2     
  11 C11           -2.1627     1.3971    -3.0763 C.ar    
  12 C12           -2.5231     2.5069    -2.3064 C.ar    
  13 C13           -3.8236     2.6498    -1.8744 C.ar    
  14 C14           -4.7760     1.6933    -2.2028 C.ar    
  15 O15           -6.0573     1.8388    -1.7749 O.3     
  16 C16           -4.4228     0.5892    -2.9674 C.ar    
  17 C17           -3.1257     0.4404    -3.4090 C.ar    
  18 C18           -2.7452    -0.7548    -4.2443 C.3     
  19 C19           -0.1693     2.0259    -4.7238 C.3     
  20 S20            0.9118     0.6852    -5.4270 S.o     
  21 O21            1.9559     1.2713    -6.1922 O.2     
  22 C22            1.4898     0.4476    -3.6707 C.3     
  23 C23            1.9339     1.9155    -3.3461 C.3     
  24 C24            0.9224     2.8752    -3.9863 C.3     
  25 S25            0.1427     3.8897    -2.7004 S.o2    
  26 O26           -0.9368     4.6383    -3.2421 O.2     
  27 O27           -0.0125     3.1426    -1.5016 O.2     
  28 O28            1.1910     4.9381    -2.3562 O.3     
  29 C29            1.3234     5.9159    -3.2919 C.ar    
  30 C30            0.5539     7.0666    -3.2061 C.ar    
  31 C31            0.6880     8.0597    -4.1569 C.ar    
  32 C32            1.5921     7.9060    -5.1974 C.ar    
  33 O33            1.7238     8.8834    -6.1336 O.3     
  34 C34            2.3623     6.7557    -5.2827 C.ar    
  35 C35            2.2319     5.7650    -4.3289 C.ar    
  36 H36           -0.9481    -2.6466    -3.8656 H       
  37 H37            0.6063    -1.7840    -3.9540 H       
  38 H38            0.5316    -3.4125    -3.2393 H       
  39 H39           -0.5855    -3.7450    -1.0570 H       
  40 H40           -0.2895    -3.2069     1.8737 H       
  41 H41           -0.9227    -0.3087     1.4652 H       
  42 H42           -0.4110     1.1528    -0.4436 H       
  43 H43           -1.7832     3.2508    -2.0503 H       
  44 H44           -4.1029     3.5066    -1.2793 H       
  45 H45           -6.6234     2.3281    -2.3875 H       
  46 H46           -5.1667    -0.1518    -3.2202 H       
  47 H47           -2.5285    -1.6002    -3.5913 H       
  48 H48           -3.5703    -1.0111    -4.9089 H       
  49 H49           -1.8617    -0.5175    -4.8368 H       
  50 H50           -0.8567     2.5348    -5.3996 H       
  51 H51            2.1879    -0.3646    -3.4682 H       
  52 H52            1.9496     2.0648    -2.2665 H       
  53 H53            2.9267     2.0988    -3.7571 H       
  54 H54            1.4300     3.5192    -4.7044 H       
  55 H55           -0.1504     7.1861    -2.3961 H       
  56 H56            0.0885     8.9555    -4.0903 H       
  57 H57            2.3897     9.5498    -5.9155 H       
  58 H58            3.0697     6.6381    -6.0902 H       
  59 H59            2.8316     4.8692    -4.3954 H       
@<TRIPOS>BOND
   1    1    2 1
   2    1   36 1
   3    1   37 1
   4    1   38 1
   5    2    3 ar
   6    2    8 ar
   7    3    4 ar
   8    3   39 1
   9    4    5 1
  10    4    6 ar
  11    5   40 1
  12    6   41 1
  13    6    7 ar
  14    7   42 1
  15    7    8 ar
  16    8    9 1
  17    9   10 2
  18    9   22 1
  19   10   11 1
  20   10   19 1
  21   11   17 ar
  22   11   12 ar
  23   12   13 ar
  24   12   43 1
  25   13   14 ar
  26   13   44 1
  27   14   15 1
  28   14   16 ar
  29   15   45 1
  30   16   46 1
  31   16   17 ar
  32   17   18 1
  33   18   47 1
  34   18   48 1
  35   18   49 1
  36   19   20 1
  37   19   50 1
  38   19   24 1
  39   20   22 1
  40   20   21 2
  41   22   51 1
  42   22   23 1
  43   23   52 1
  44   23   53 1
  45   23   24 1
  46   24   54 1
  47   24   25 1
  48   25   27 2
  49   25   26 2
  50   25   28 1
  51   28   29 1
  52   29   30 ar
  53   29   35 ar
  54   30   55 1
  55   30   31 ar
  56   31   56 1
  57   31   32 ar
  58   32   33 1
  59   32   34 ar
  60   33   57 1
  61   34   35 ar
  62   34   58 1
  63   35   59 1

#	End of record

