#	Name: ASD01200340
#	Creating user name:	WinNT
#	Creation time:	15. 06. 2019 19:09

#	Modifying user name:	WinNT
#	Modification time:	15. 06. 2019 19:09

#	Program:	/corina/corina34_cracker 3.40 0067  02.08.2006

@<TRIPOS>MOLECULE
ASD01200340
  50   53    0    0    0
SMALL
NO_CHARGES


@<TRIPOS>ATOM
   1 C1            -0.0167     1.3838     0.0097 C.ar    
   2 C2             0.0021    -0.0041     0.0020 C.ar    
   3 C3             1.1998    -0.6913    -0.0127 C.ar    
   4 C4             2.3957     0.0092    -0.0204 C.ar    
   5 N5             3.6208    -0.6439    -0.0347 N.am    
   6 C6             4.7692     0.0545    -0.0411 C.2     
   7 O7             5.8209    -0.5553    -0.0533 O.2     
   8 N8             4.8047     1.3962    -0.0351 N.am    
   9 C9             6.1000     2.0805    -0.0433 C.3     
  10 C10            6.8988     1.6751     1.1971 C.3     
  11 C11            6.1828     2.1788     2.4519 C.3     
  12 C12            6.9132     1.6679     3.6955 C.3     
  13 C13            6.1972     2.1716     4.9503 C.3     
  14 C14            6.1915     3.7015     4.9548 C.3     
  15 C15            5.4612     4.2124     3.7112 C.3     
  16 C16            6.1771     3.7088     2.4564 C.3     
  17 C17            6.8651     1.6929    -1.2824 C.2     
  18 O18            6.3765     0.9210    -2.0801 O.2     
  19 N19            8.0923     2.2040    -1.5041 N.am    
  20 C20            8.7980     1.8464    -2.6470 C.2     
  21 N21            9.9807     2.2785    -2.9549 N.2     
  22 C22           10.5045     1.8343    -4.0820 C.2     
  23 C23            9.7274     0.9864    -4.7587 C.2     
  24 S24            8.2355     0.7671    -3.8476 S.3     
  25 C25            3.6693     2.1276    -0.0220 C.2     
  26 O26            3.7105     3.3429    -0.0174 O.2     
  27 C27            2.3791     1.4150    -0.0132 C.ar    
  28 C28            1.1657     2.0981     0.0022 C.ar    
  29 F29           -1.1978     2.0396     0.0188 F       
  30 H30           -0.9288    -0.5517     0.0080 H       
  31 H31            1.2047    -1.7713    -0.0178 H       
  32 H32            3.6482    -1.6135    -0.0399 H       
  33 H33            5.9412     3.1589    -0.0368 H       
  34 H34            6.9813     0.5890     1.2371 H       
  35 H35            7.8954     2.1136     1.1467 H       
  36 H36            5.1566     1.8116     2.4567 H       
  37 H37            6.9172     0.5779     3.6923 H       
  38 H38            7.9394     2.0351     3.6907 H       
  39 H39            5.1709     1.8044     4.9552 H       
  40 H40            6.7175     1.8076     5.8363 H       
  41 H41            5.6814     4.0604     5.8488 H       
  42 H42            7.2177     4.0687     4.9500 H       
  43 H43            4.4349     3.8453     3.7160 H       
  44 H44            5.4571     5.3024     3.7144 H       
  45 H45            7.2034     4.0760     2.4515 H       
  46 H46            5.6568     4.0727     1.5704 H       
  47 H47            8.4831     2.8214    -0.8661 H       
  48 H48           11.4828     2.1328    -4.4285 H       
  49 H49            9.9721     0.5138    -5.6984 H       
  50 H50            1.1491     3.1779     0.0085 H       
@<TRIPOS>BOND
   1    1    2 ar
   2    1   28 ar
   3    1   29 1
   4    2    3 ar
   5    2   30 1
   6    3    4 ar
   7    3   31 1
   8    4    5 1
   9    4   27 ar
  10    5    6 am
  11    5   32 1
  12    6    7 2
  13    6    8 am
  14    8    9 1
  15    8   25 am
  16    9   10 1
  17    9   17 1
  18    9   33 1
  19   10   11 1
  20   10   34 1
  21   10   35 1
  22   11   12 1
  23   11   16 1
  24   11   36 1
  25   12   13 1
  26   12   37 1
  27   12   38 1
  28   13   14 1
  29   13   39 1
  30   13   40 1
  31   14   15 1
  32   14   41 1
  33   14   42 1
  34   15   16 1
  35   15   43 1
  36   15   44 1
  37   16   45 1
  38   16   46 1
  39   17   18 2
  40   17   19 am
  41   19   20 1
  42   19   47 1
  43   20   21 2
  44   20   24 1
  45   21   22 1
  46   22   23 2
  47   22   48 1
  48   23   24 1
  49   23   49 1
  50   25   26 2
  51   25   27 1
  52   27   28 ar
  53   28   50 1

#	End of record

