#	Name: ASD01882665
#	Creating user name:	WinNT
#	Creation time:	15. 06. 2019 19:45

#	Modifying user name:	WinNT
#	Modification time:	15. 06. 2019 19:45

#	Program:	/corina/corina34_cracker 3.40 0067  02.08.2006

@<TRIPOS>MOLECULE
ASD01882665
  56   60    0    0    0
SMALL
NO_CHARGES


@<TRIPOS>ATOM
   1 C1            -0.0311     1.3499    -0.1951 C.2     
   2 C2             0.0361    -0.0509    -0.1058 C.2     
   3 C3             1.2521    -0.6493     0.0838 C.2     
   4 C4             2.4129     0.1481     0.1859 C.2     
   5 C5             2.3253     1.4897     0.0974 C.2     
   6 N6             1.1177     2.0961    -0.0916 N.pl3   
   7 N7            -0.5677     3.4052    -0.3845 N.2     
   8 N8            -1.0272     2.2035    -0.3767 N.2     
   9 C9             0.7283     3.3974    -0.2163 C.2     
  10 C10           -1.2150    -0.8835    -0.2169 C.3     
  11 F11           -1.7209    -1.1380     1.0624 F       
  12 F12           -2.1712    -0.1906    -0.9671 F       
  13 F13           -0.9145    -2.0948    -0.8490 F       
  14 N14            1.3440    -2.0348     0.1759 N.pl3   
  15 C15            0.7390    -2.7517     1.3068 C.3     
  16 C16            1.8076    -3.6339     1.9599 C.3     
  17 C17            2.4299    -4.5445     0.8989 C.3     
  18 C18            3.1014    -3.6902    -0.1788 C.3     
  19 C19            2.0425    -2.8092    -0.8591 C.3     
  20 C20            3.4579    -5.4377     1.5442 C.ar    
  21 C21            3.9305    -6.5476     0.8692 C.ar    
  22 C22            4.8734    -7.3670     1.4612 C.ar    
  23 C23            5.3440    -7.0762     2.7280 C.ar    
  24 C24            4.8720    -5.9659     3.4027 C.ar    
  25 C25            3.9323    -5.1441     2.8089 C.ar    
  26 F26            1.4306    -5.3304     0.3151 F       
  27 C27            1.6284     4.6052    -0.1706 C.3     
  28 O28            2.0836     4.9103    -1.4904 O.3     
  29 C29            2.9487     6.0456    -1.5589 C.3     
  30 C30            3.3716     6.2776    -3.0109 C.3     
  31 C31            4.2092     7.5219    -3.3125 C.3     
  32 C32            4.8581     6.1367    -3.3448 C.3     
  33 H33            3.3749    -0.3192     0.3359 H       
  34 H34            3.2191     2.0906     0.1771 H       
  35 H35            0.3627    -2.0336     2.0354 H       
  36 H36           -0.0802    -3.3749     0.9482 H       
  37 H37            2.5818    -3.0037     2.3978 H       
  38 H38            1.3499    -4.2432     2.7391 H       
  39 H39            3.8633    -3.0595     0.2792 H       
  40 H40            3.5644    -4.3396    -0.9218 H       
  41 H41            1.3275    -3.4370    -1.3907 H       
  42 H42            2.5266    -2.1290    -1.5600 H       
  43 H43            3.5628    -6.7748    -0.1206 H       
  44 H44            5.2421    -8.2345     0.9340 H       
  45 H45            6.0801    -7.7168     3.1908 H       
  46 H46            5.2394    -5.7389     4.3926 H       
  47 H47            3.5663    -4.2745     3.3346 H       
  48 H48            1.0754     5.4555     0.2286 H       
  49 H49            2.4851     4.3959     0.4699 H       
  50 H50            2.4231     6.9257    -1.1885 H       
  51 H51            3.8328     5.8661    -0.9472 H       
  52 H52            2.6533     5.9591    -3.7664 H       
  53 H53            4.0422     8.0218    -4.2666 H       
  54 H54            4.4589     8.1753    -2.4766 H       
  55 H55            5.5347     5.8787    -2.5301 H       
  56 H56            5.1180     5.7253    -4.3202 H       
@<TRIPOS>BOND
   1    1    2 1
   2    1    6 1
   3    1    8 2
   4    2    3 2
   5    2   10 1
   6    3    4 1
   7    3   14 1
   8    4    5 2
   9    4   33 1
  10    5    6 1
  11    5   34 1
  12    6    9 1
  13    7    8 1
  14    7    9 2
  15    9   27 1
  16   10   11 1
  17   10   12 1
  18   10   13 1
  19   14   15 1
  20   14   19 1
  21   15   16 1
  22   15   35 1
  23   15   36 1
  24   16   17 1
  25   16   37 1
  26   16   38 1
  27   17   18 1
  28   17   20 1
  29   17   26 1
  30   18   19 1
  31   18   39 1
  32   18   40 1
  33   19   41 1
  34   19   42 1
  35   20   21 ar
  36   20   25 ar
  37   21   22 ar
  38   21   43 1
  39   22   23 ar
  40   22   44 1
  41   23   24 ar
  42   23   45 1
  43   24   25 ar
  44   24   46 1
  45   25   47 1
  46   27   28 1
  47   27   48 1
  48   27   49 1
  49   28   29 1
  50   29   30 1
  51   29   50 1
  52   29   51 1
  53   30   31 1
  54   30   32 1
  55   30   52 1
  56   31   32 1
  57   31   53 1
  58   31   54 1
  59   32   55 1
  60   32   56 1

#	End of record

