#	Name: ASD01152179
#	Creating user name:	WinNT
#	Creation time:	15. 06. 2019 19:05

#	Modifying user name:	WinNT
#	Modification time:	15. 06. 2019 19:05

#	Program:	/corina/corina34_cracker 3.40 0067  02.08.2006

@<TRIPOS>MOLECULE
ASD01152179
  61   63    0    0    0
SMALL
NO_CHARGES


@<TRIPOS>ATOM
   1 N1            -0.0173     1.3538     0.0020 N.pl3   
   2 C2            -0.0034     0.0028     0.1537 C.2     
   3 N3            -1.2382    -0.4526     0.1175 N.2     
   4 C4            -2.0942     0.5581    -0.0556 C.2     
   5 C5            -1.3554     1.7322    -0.1284 C.2     
   6 N6            -3.4782     0.4541    -0.1423 N.am    
   7 N7             1.1244    -0.7678     0.3188 N.3     
   8 C8            -1.8540     3.0385    -0.3071 C.2     
   9 O9            -1.0024     4.0853    -0.3572 O.3     
  10 O10           -3.0527     3.2231    -0.4163 O.2     
  11 C11           -1.5769     5.3809    -0.5404 C.3     
  12 C12           -2.5324     5.6832     0.6157 C.3     
  13 C13           -0.4654     6.4319    -0.5715 C.3     
  14 C14           -2.3479     5.4147    -1.8614 C.3     
  15 C15            1.0962     2.2038    -0.0144 C.ar    
  16 C16            1.9986     2.1479    -1.0682 C.ar    
  17 C17            3.0952     2.9875    -1.0817 C.ar    
  18 C18            3.2951     3.8828    -0.0469 C.ar    
  19 C19            2.3985     3.9405     1.0042 C.ar    
  20 C20            1.2966     3.1078     1.0204 C.ar    
  21 C21           -4.0704    -0.7530    -0.0496 C.2     
  22 O22           -3.3963    -1.7486     0.1093 O.2     
  23 C23           -5.5703    -0.8658    -0.1435 C.3     
  24 C24            1.1351    -1.4088     1.6405 C.3     
  25 C25            1.2406    -1.7669    -0.7519 C.3     
  26 N26           -5.9634    -2.2711    -0.0146 N.pl3   
  27 C27           -7.3129    -2.6268    -0.0708 C.ar    
  28 C28           -7.6874    -3.9589     0.0513 C.ar    
  29 C29           -9.0227    -4.3070    -0.0042 C.ar    
  30 C30           -9.9865    -3.3312    -0.1810 C.ar    
  31 C31           -9.6172    -2.0042    -0.3029 C.ar    
  32 C32           -8.2840    -1.6486    -0.2430 C.ar    
  33 H33           -4.0174     1.2503    -0.2694 H       
  34 H34           -1.9831     5.6591     1.5569 H       
  35 H35           -2.9706     6.6714     0.4760 H       
  36 H36           -3.3242     4.9344     0.6379 H       
  37 H37            0.2153     6.2165    -1.3952 H       
  38 H38           -0.9037     7.4201    -0.7113 H       
  39 H39            0.0839     6.4078     0.3696 H       
  40 H40           -3.1398     4.6659    -1.8392 H       
  41 H41           -2.7862     6.4029    -2.0012 H       
  42 H42           -1.6672     5.1993    -2.6850 H       
  43 H43            1.8434     1.4484    -1.8763 H       
  44 H44            3.7975     2.9445    -1.9010 H       
  45 H45            4.1535     4.5380    -0.0595 H       
  46 H46            2.5575     4.6405     1.8111 H       
  47 H47            0.5965     3.1536     1.8414 H       
  48 H48           -6.0291    -0.2853     0.6568 H       
  49 H49           -5.9038    -0.4822    -1.1078 H       
  50 H50            0.2576    -2.0474     1.7417 H       
  51 H51            2.0372    -2.0118     1.7445 H       
  52 H52            1.1186    -0.6430     2.4159 H       
  53 H53            1.2122    -1.2669    -1.7200 H       
  54 H54            2.1838    -2.3032    -0.6475 H       
  55 H55            0.4121    -2.4718    -0.6826 H       
  56 H56           -5.2865    -2.9547     0.1097 H       
  57 H57           -6.9352    -4.7215     0.1891 H       
  58 H58           -9.3145    -5.3425     0.0903 H       
  59 H59          -11.0300    -3.6062    -0.2244 H       
  60 H60          -10.3724    -1.2446    -0.4409 H       
  61 H61           -7.9963    -0.6119    -0.3379 H       
@<TRIPOS>BOND
   1    1    2 1
   2    1   15 1
   3    1    5 1
   4    2    3 2
   5    2    7 1
   6    3    4 1
   7    4    5 2
   8    4    6 1
   9    5    8 1
  10    6   21 am
  11    6   33 1
  12    7   24 1
  13    7   25 1
  14    8    9 1
  15    8   10 2
  16    9   11 1
  17   11   12 1
  18   11   13 1
  19   11   14 1
  20   12   34 1
  21   12   35 1
  22   12   36 1
  23   13   37 1
  24   13   38 1
  25   13   39 1
  26   14   40 1
  27   14   41 1
  28   14   42 1
  29   15   16 ar
  30   15   20 ar
  31   16   17 ar
  32   16   43 1
  33   17   18 ar
  34   17   44 1
  35   18   19 ar
  36   18   45 1
  37   19   20 ar
  38   19   46 1
  39   20   47 1
  40   21   22 2
  41   21   23 1
  42   23   26 1
  43   23   48 1
  44   23   49 1
  45   24   50 1
  46   24   51 1
  47   24   52 1
  48   25   53 1
  49   25   54 1
  50   25   55 1
  51   26   27 1
  52   26   56 1
  53   27   28 ar
  54   27   32 ar
  55   28   29 ar
  56   28   57 1
  57   29   30 ar
  58   29   58 1
  59   30   31 ar
  60   30   59 1
  61   31   32 ar
  62   31   60 1
  63   32   61 1

#	End of record

