#	Name: ASD01880578
#	Creating user name:	WinNT
#	Creation time:	15. 06. 2019 19:41

#	Modifying user name:	WinNT
#	Modification time:	15. 06. 2019 19:41

#	Program:	/corina/corina34_cracker 3.40 0067  02.08.2006

@<TRIPOS>MOLECULE
ASD01880578
  39   41    0    0    0
SMALL
NO_CHARGES


@<TRIPOS>ATOM
   1 N1            -0.0158     1.3125     0.0093 N.ar    
   2 C2             0.0021    -0.0041     0.0020 C.ar    
   3 N3             1.1320    -0.6861    -0.0120 N.ar    
   4 C4             2.3017    -0.0687    -0.0198 C.ar    
   5 C5             2.3346     1.3170    -0.0132 C.ar    
   6 C6             1.1205     2.0080     0.0021 C.ar    
   7 C7             3.6463     2.0591    -0.0212 C.3     
   8 O8             4.7242     1.1210    -0.0356 O.3     
   9 C9             5.9827     1.6287    -0.0443 C.ar    
  10 C10            7.0782     0.7709    -0.0585 C.ar    
  11 C11            8.3507     1.2857    -0.0678 C.ar    
  12 C12            8.5544     2.6696    -0.0631 C.ar    
  13 C13            7.4506     3.5268    -0.0493 C.ar    
  14 C14            6.1761     3.0050    -0.0450 C.ar    
  15 C15            9.7204     0.6539    -0.0834 C.3     
  16 N16           10.6825     1.7617    -0.0870 N.am    
  17 C17           10.0056     2.9228    -0.0753 C.2     
  18 O18           10.5181     4.0253    -0.0752 O.2     
  19 Br19          -1.6383    -0.9448     0.0126 Br      
  20 C20           14.1592     1.4406    -1.5621 C.3     
  21 C21           12.6359     1.5836    -1.5479 C.3     
  22 C22           12.1411     1.6248    -0.1007 C.3     
  23 C23            1.0977     3.4398     0.0091 C.1     
  24 N24            1.0796     4.5757     0.0147 N.1     
  25 H25            3.2198    -0.6373    -0.0309 H       
  26 H26            3.7015     2.6897    -0.9085 H       
  27 H27            3.7175     2.6807     0.8713 H       
  28 H28            6.9276    -0.2986    -0.0618 H       
  29 H29            7.5968     4.5968    -0.0452 H       
  30 H30            5.3236     3.6679    -0.0346 H       
  31 H31            9.8597     0.0395     0.8061 H       
  32 H32            9.8433     0.0479    -0.9811 H       
  33 H33           14.6087     2.2904    -1.0485 H       
  34 H34           14.4422     0.5182    -1.0550 H       
  35 H35           14.5117     1.4112    -2.5931 H       
  36 H36           12.3528     2.5059    -2.0551 H       
  37 H37           12.1864     0.7338    -2.0615 H       
  38 H38           12.5906     2.4746     0.4130 H       
  39 H39           12.4242     0.7024     0.4065 H       
@<TRIPOS>BOND
   1    1    2 ar
   2    1    6 ar
   3    2    3 ar
   4    2   19 1
   5    3    4 ar
   6    4    5 ar
   7    4   25 1
   8    5    6 ar
   9    5    7 1
  10    6   23 1
  11    7    8 1
  12    7   26 1
  13    7   27 1
  14    8    9 1
  15    9   10 ar
  16    9   14 ar
  17   10   11 ar
  18   10   28 1
  19   11   12 ar
  20   11   15 1
  21   12   13 ar
  22   12   17 1
  23   13   14 ar
  24   13   29 1
  25   14   30 1
  26   15   16 1
  27   15   31 1
  28   15   32 1
  29   16   17 am
  30   16   22 1
  31   17   18 2
  32   20   21 1
  33   20   33 1
  34   20   34 1
  35   20   35 1
  36   21   22 1
  37   21   36 1
  38   21   37 1
  39   22   38 1
  40   22   39 1
  41   23   24 3

#	End of record

