#	Name: ASD05430409
#	Creating user name:	WinNT
#	Creation time:	15. 06. 2019 21:00

#	Modifying user name:	WinNT
#	Modification time:	15. 06. 2019 21:00

#	Program:	/corina/corina34_cracker 3.40 0067  02.08.2006

@<TRIPOS>MOLECULE
ASD05430409
  62   66    0    0    0
SMALL
NO_CHARGES


@<TRIPOS>ATOM
   1 C1            -1.0620    -0.5626    -0.4043 C.ar    
   2 C2            -0.0105    -0.0083     0.3265 C.ar    
   3 C3            -0.1713     1.2170     0.9624 C.ar    
   4 C4            -1.3691     1.8904     0.8746 C.ar    
   5 C5            -2.4289     1.3409     0.1427 C.ar    
   6 C6            -2.2646     0.1094    -0.5024 C.ar    
   7 C7            -4.8659     1.3645    -0.0482 C.2     
   8 C8            -3.7079     2.0574     0.0475 C.2     
   9 C9            -6.1022     2.0253    -0.3043 C.2     
  10 O10           -0.9007    -1.7616    -1.0245 O.3     
  11 C11           -2.0188    -2.2696    -1.7552 C.3     
  12 C12            2.4544    -0.1657     0.1810 C.2     
  13 N13            1.2094    -0.6883     0.4197 N.pl3   
  14 C14            3.3402    -1.1588     0.3863 C.2     
  15 N15            2.6607    -2.2597     0.7407 N.2     
  16 C16            1.3837    -1.9910     0.7644 C.2     
  17 C17            4.8365    -1.0521     0.2422 C.3     
  18 N18           -7.2850     1.3209    -0.3664 N.pl3   
  19 C19           -8.3362     2.2969    -0.6519 C.3     
  20 C20           -7.5762     3.6092    -0.7257 C.2     
  21 N21           -6.2977     3.3118    -0.5072 N.2     
  22 O22           -8.0424     4.7111    -0.9411 O.2     
  23 C23           -9.0122     1.9877    -1.9892 C.3     
  24 C24           -9.3491     2.3300     0.4634 C.ar    
  25 C25          -10.4294     3.1895     0.3900 C.ar    
  26 C26           -9.2003     1.4969     1.5565 C.ar    
  27 C27          -10.1291     1.5258     2.5795 C.ar    
  28 C28          -11.2086     2.3899     2.5095 C.ar    
  29 C29          -11.3592     3.2205     1.4120 C.ar    
  30 F30          -12.1172     2.4190     3.5090 F       
  31 C31           -4.8936    -0.1389     0.1065 C.3     
  32 C32           -6.2241    -0.5773     0.7198 C.3     
  33 C33           -7.3898    -0.1232    -0.1687 C.3     
  34 O34          -10.0330     2.9553    -2.2418 O.3     
  35 C35           -6.2464    -2.1019     0.8463 C.3     
  36 H36            0.6453     1.6419     1.5272 H       
  37 H37           -1.4913     2.8420     1.3704 H       
  38 H38           -3.0791    -0.3182    -1.0683 H       
  39 H39           -3.7237     3.1372     0.0540 H       
  40 H40           -2.2879    -1.5661    -2.5431 H       
  41 H41           -1.7567    -3.2298    -2.1994 H       
  42 H42           -2.8648    -2.4003    -1.0804 H       
  43 H43            2.6808     0.8469    -0.1186 H       
  44 H44            0.5974    -2.6874     1.0158 H       
  45 H45            5.2730    -0.7546     1.1956 H       
  46 H46            5.2425    -2.0182    -0.0576 H       
  47 H47            5.0762    -0.3063    -0.5157 H       
  48 H48           -8.2713     2.0242    -2.7878 H       
  49 H49           -9.4561     0.9930    -1.9505 H       
  50 H50          -10.5466     3.8373    -0.4662 H       
  51 H51           -8.3582     0.8229     1.6109 H       
  52 H52          -10.0131     0.8743     3.4330 H       
  53 H53          -12.2007     3.8952     1.3564 H       
  54 H54           -4.7750    -0.6054    -0.8715 H       
  55 H55           -4.0757    -0.4509     0.7559 H       
  56 H56           -6.3297    -0.1330     1.7095 H       
  57 H57           -8.3362    -0.3620     0.3165 H       
  58 H58           -7.3340    -0.6269    -1.1338 H       
  59 H59          -10.5048     2.8208    -3.0751 H       
  60 H60           -5.4259    -2.4254     1.4867 H       
  61 H61           -7.1942    -2.4164     1.2833 H       
  62 H62           -6.1351    -2.5501    -0.1411 H       
@<TRIPOS>BOND
   1    1    2 ar
   2    1   10 1
   3    1    6 ar
   4    2    3 ar
   5    2   13 1
   6    3    4 ar
   7    3   36 1
   8    4    5 ar
   9    4   37 1
  10    5    6 ar
  11    5    8 1
  12    6   38 1
  13    7    8 2
  14    7   31 1
  15    7    9 1
  16    8   39 1
  17    9   18 1
  18    9   21 2
  19   10   11 1
  20   11   40 1
  21   11   41 1
  22   11   42 1
  23   12   13 1
  24   12   14 2
  25   12   43 1
  26   13   16 1
  27   14   15 1
  28   14   17 1
  29   15   16 2
  30   16   44 1
  31   17   45 1
  32   17   46 1
  33   17   47 1
  34   18   19 1
  35   18   33 1
  36   19   20 1
  37   19   24 1
  38   19   23 1
  39   20   21 1
  40   20   22 2
  41   23   34 1
  42   23   48 1
  43   23   49 1
  44   24   25 ar
  45   24   26 ar
  46   25   29 ar
  47   25   50 1
  48   26   27 ar
  49   26   51 1
  50   27   28 ar
  51   27   52 1
  52   28   29 ar
  53   28   30 1
  54   29   53 1
  55   31   32 1
  56   31   54 1
  57   31   55 1
  58   32   33 1
  59   32   35 1
  60   32   56 1
  61   33   57 1
  62   33   58 1
  63   34   59 1
  64   35   60 1
  65   35   61 1
  66   35   62 1

#	End of record

