#	Name: ASD03081333
#	Creating user name:	WinNT
#	Creation time:	15. 06. 2019 20:27

#	Modifying user name:	WinNT
#	Modification time:	15. 06. 2019 20:27

#	Program:	/corina/corina34_cracker 3.40 0067  02.08.2006

@<TRIPOS>MOLECULE
ASD03081333
  32   35    0    0    0
SMALL
NO_CHARGES


@<TRIPOS>ATOM
   1 O1            -0.0162     1.3449     0.0094 O.3     
   2 C2             0.0021    -0.0041     0.0020 C.2     
   3 N3             1.2622    -0.3804    -0.0120 N.2     
   4 N4             2.0185     0.6604    -0.0137 N.2     
   5 C5             1.2726     1.7422    -0.0007 C.2     
   6 C6             0.8541     4.2028     0.0156 C.ar    
   7 C7             1.7570     3.1377     0.0017 C.ar    
   8 C8             3.1294     3.4151    -0.0094 C.ar    
   9 C9             3.5308     4.7394    -0.0061 C.ar    
  10 C10            2.5731     5.7373     0.0079 C.ar    
  11 N11            1.2861     5.4465     0.0186 N.ar    
  12 C12           -1.1738    -0.8926     0.0089 C.ar    
  13 C13           -2.4594    -0.3672     0.0245 C.ar    
  14 C14           -3.5652    -1.2064     0.0314 C.ar    
  15 C15           -3.4382    -2.5616     0.0230 C.ar    
  16 C16           -2.1683    -3.1621     0.0072 C.ar    
  17 C17           -2.0207    -4.5600    -0.0011 C.ar    
  18 C18           -0.7733    -5.1050    -0.0164 C.ar    
  19 C19            0.3623    -4.2982    -0.0240 C.ar    
  20 C20            0.2560    -2.9393    -0.0158 C.ar    
  21 C21           -1.0116    -2.3446    -0.0066 C.ar    
  22 H22           -0.2076     4.0047     0.0197 H       
  23 H23            3.8560     2.6161    -0.0199 H       
  24 H24            4.5810     4.9912    -0.0140 H       
  25 H25            2.8839     6.7716     0.0105 H       
  26 H26           -2.6000     0.7036     0.0316 H       
  27 H27           -4.5539    -0.7719     0.0442 H       
  28 H28           -4.3226    -3.1815     0.0288 H       
  29 H29           -2.8921    -5.1980     0.0050 H       
  30 H30           -0.6624    -6.1793    -0.0225 H       
  31 H31            1.3405    -4.7557    -0.0362 H       
  32 H32            1.1442    -2.3250    -0.0211 H       
@<TRIPOS>BOND
   1    1    2 1
   2    1    5 1
   3    2    3 2
   4    2   12 1
   5    3    4 1
   6    4    5 2
   7    5    7 1
   8    6    7 ar
   9    6   11 ar
  10    6   22 1
  11    7    8 ar
  12    8    9 ar
  13    8   23 1
  14    9   10 ar
  15    9   24 1
  16   10   11 ar
  17   10   25 1
  18   12   13 ar
  19   12   21 ar
  20   13   14 ar
  21   13   26 1
  22   14   15 ar
  23   14   27 1
  24   15   16 ar
  25   15   28 1
  26   16   17 ar
  27   16   21 ar
  28   17   18 ar
  29   17   29 1
  30   18   19 ar
  31   18   30 1
  32   19   20 ar
  33   19   31 1
  34   20   21 ar
  35   20   32 1

#	End of record

