#	Name: ASD01810477
#	Creating user name:	WinNT
#	Creation time:	15. 06. 2019 19:24

#	Modifying user name:	WinNT
#	Modification time:	15. 06. 2019 19:24

#	Program:	/corina/corina34_cracker 3.40 0067  02.08.2006

@<TRIPOS>MOLECULE
ASD01810477
  61   64    0    0    0
SMALL
NO_CHARGES


@<TRIPOS>ATOM
   1 C1             0.0073     1.4748    -0.5290 C.2     
   2 C2             0.0813    -0.0008    -0.5223 C.ar    
   3 C3             1.1653    -0.6620    -1.1145 C.ar    
   4 C4             1.1878    -2.0440    -1.0812 C.ar    
   5 C5             0.1475    -2.7244    -0.4690 C.ar    
   6 N6            -0.8614    -2.0740     0.0810 N.ar    
   7 C7            -0.9243    -0.7586     0.0790 C.ar    
   8 O8             0.8915     2.1255    -1.0512 O.2     
   9 N9            -1.0433     2.0994     0.0391 N.am    
  10 C10           -1.0604     3.4950     0.1323 C.ar    
  11 C11           -2.2629     4.1841     0.0245 C.ar    
  12 C12           -2.2851     5.5630     0.1159 C.ar    
  13 C13           -1.1135     6.2651     0.3142 C.ar    
  14 C14            0.0991     5.5826     0.4237 C.ar    
  15 C15            0.1209     4.1905     0.3377 C.ar    
  16 C16           -1.1434     7.7686     0.4121 C.3     
  17 C17           -3.5465     3.4251    -0.1931 C.3     
  18 C18           -4.1004     2.9624     1.1559 C.3     
  19 C19            1.3558     6.3324     0.6358 C.2     
  20 O20            1.6781     7.2103    -0.1406 O.2     
  21 N21            2.1438     6.0424     1.6900 N.am    
  22 C22            3.3495     6.8360     1.9641 C.3     
  23 C23            3.2927     7.3355     3.4112 C.3     
  24 C24            3.0980     6.1433     4.3508 C.3     
  25 C25            1.7736     5.4478     4.0275 C.3     
  26 C26            1.8101     4.9305     2.5906 C.3     
  27 F27            4.1524     5.2395     4.1818 F       
  28 C28            3.0757     6.6271     5.7778 C.ar    
  29 C29            3.0140     5.7054     6.8078 C.ar    
  30 C30            2.9942     6.1528     8.1168 C.ar    
  31 C31            3.0378     7.5338     8.3469 C.ar    
  32 C32            3.0992     8.3978     7.2523 C.ar    
  33 N33            3.1208     7.9223     6.0244 N.ar    
  34 C34            3.0193     8.0504     9.6823 C.1     
  35 N35            3.0046     8.4603    10.7417 N.1     
  36 Cl36           0.1708    -4.4597    -0.4250 Cl      
  37 H37            1.9628    -0.1064    -1.5853 H       
  38 H38            2.0073    -2.5874    -1.5278 H       
  39 H39           -1.7635    -0.2621     0.5432 H       
  40 H40           -1.7875     1.5812     0.3833 H       
  41 H41           -3.2224     6.0929     0.0314 H       
  42 H42            1.0555     3.6567     0.4261 H       
  43 H43           -1.3676     8.0616     1.4378 H       
  44 H44           -0.1724     8.1710     0.1233 H       
  45 H45           -1.9119     8.1609    -0.2540 H       
  46 H46           -4.2738     4.0738    -0.6813 H       
  47 H47           -3.3530     2.5572    -0.8235 H       
  48 H48           -4.2939     3.8303     1.7863 H       
  49 H49           -5.0288     2.4134     0.9985 H       
  50 H50           -3.3730     2.3137     1.6441 H       
  51 H51            4.2348     6.2152     1.8263 H       
  52 H52            3.3886     7.6877     1.2849 H       
  53 H53            4.2248     7.8442     3.6573 H       
  54 H54            2.4587     8.0281     3.5246 H       
  55 H55            1.6244     4.6130     4.7123 H       
  56 H56            0.9539     6.1582     4.1351 H       
  57 H57            0.8338     4.5253     2.3247 H       
  58 H58            2.5673     4.1511     2.5049 H       
  59 H59            2.9813     4.6476     6.5922 H       
  60 H60            2.9459     5.4553     8.9399 H       
  61 H61            3.1333     9.4651     7.4139 H       
@<TRIPOS>BOND
   1    1    2 1
   2    1    8 2
   3    1    9 am
   4    2    3 ar
   5    2    7 ar
   6    3    4 ar
   7    3   37 1
   8    4    5 ar
   9    4   38 1
  10    5    6 ar
  11    5   36 1
  12    6    7 ar
  13    7   39 1
  14    9   10 1
  15    9   40 1
  16   10   11 ar
  17   10   15 ar
  18   11   12 ar
  19   11   17 1
  20   12   13 ar
  21   12   41 1
  22   13   14 ar
  23   13   16 1
  24   14   15 ar
  25   14   19 1
  26   15   42 1
  27   16   43 1
  28   16   44 1
  29   16   45 1
  30   17   18 1
  31   17   46 1
  32   17   47 1
  33   18   48 1
  34   18   49 1
  35   18   50 1
  36   19   20 2
  37   19   21 am
  38   21   22 1
  39   21   26 1
  40   22   23 1
  41   22   51 1
  42   22   52 1
  43   23   24 1
  44   23   53 1
  45   23   54 1
  46   24   25 1
  47   24   27 1
  48   24   28 1
  49   25   26 1
  50   25   55 1
  51   25   56 1
  52   26   57 1
  53   26   58 1
  54   28   29 ar
  55   28   33 ar
  56   29   30 ar
  57   29   59 1
  58   30   31 ar
  59   30   60 1
  60   31   32 ar
  61   31   34 1
  62   32   33 ar
  63   32   61 1
  64   34   35 3

#	End of record

