#	Name: ASD03731007
#	Creating user name:	WinNT
#	Creation time:	15. 06. 2019 20:45

#	Modifying user name:	WinNT
#	Modification time:	15. 06. 2019 20:45

#	Program:	/corina/corina34_cracker 3.40 0067  02.08.2006

@<TRIPOS>MOLECULE
ASD03731007
  53   58    0    0    0
SMALL
NO_CHARGES


@<TRIPOS>ATOM
   1 N1            -0.0169     1.3978     0.0097 N.pl3   
   2 N2             0.0021    -0.0041     0.0020 N.2     
   3 N3             1.2293    -0.3935    -0.0118 N.2     
   4 C4             2.0406     0.6785    -0.0138 C.2     
   5 C5             1.2677     1.8056    -0.0003 C.2     
   6 C6             3.5140     0.6442    -0.0276 C.2     
   7 O7             4.1460     1.6820    -0.0276 O.2     
   8 O8             4.1603    -0.5382    -0.0402 O.3     
   9 C9            -1.2050     2.2549     0.0203 C.3     
  10 C10           -2.1088     1.8883    -1.1585 C.3     
  11 O11           -3.5085     8.4058     1.5348 O.3     
  12 C12           -4.3601     9.5493     1.7359 C.3     
  13 O13           -5.0224     9.7100     0.4677 O.3     
  14 C14           -5.0511     8.4641    -0.0905 C.ar    
  15 C15           -4.1193     7.6629     0.5654 C.ar    
  16 C16           -5.8101     7.9399    -1.1214 C.ar    
  17 C17           -5.6490     6.6140    -1.5120 C.ar    
  18 C18           -4.7092     5.8258    -0.8547 C.ar    
  19 C19           -3.9552     6.3437     0.1776 C.ar    
  20 O20           -6.2988     5.9049    -2.4791 O.3     
  21 C21           -4.7490     4.4725    -1.5126 C.3     
  22 C22           -5.5268     4.7343    -2.8095 C.3     
  23 N23           -3.2969     2.7454    -1.1480 N.am    
  24 C24           -3.3746     3.9317    -1.7834 C.2     
  25 C25           -5.4208     3.4407    -0.6558 C.ar    
  26 C26           -6.6698     3.3458    -0.0838 C.ar    
  27 C27           -7.0025     2.2370     0.6738 C.ar    
  28 C28           -6.0776     1.2249     0.8557 C.ar    
  29 C29           -4.8249     1.3159     0.2857 C.ar    
  30 C30           -4.4814     2.4282    -0.4789 C.ar    
  31 O31           -2.5051     4.4587    -2.4447 O.2     
  32 C32            5.6116    -0.4961    -0.0534 C.3     
  33 C33            6.1631    -1.9231    -0.0664 C.3     
  34 H34            1.6189     2.8269     0.0018 H       
  35 H35           -1.7489     2.1105     0.9538 H       
  36 H36           -0.9012     3.2982    -0.0656 H       
  37 H37           -1.5649     2.0327    -2.0920 H       
  38 H38           -2.4127     0.8451    -1.0727 H       
  39 H39           -5.0860     9.3521     2.5248 H       
  40 H40           -3.7662    10.4321     1.9725 H       
  41 H41           -6.5325     8.5639    -1.6266 H       
  42 H42           -3.2348     5.7189     0.6845 H       
  43 H43           -6.1797     3.8940    -3.0457 H       
  44 H44           -4.8452     4.9403    -3.6348 H       
  45 H45           -7.3904     4.1374    -0.2270 H       
  46 H46           -7.9823     2.1617     1.1218 H       
  47 H47           -6.3373     0.3594     1.4472 H       
  48 H48           -4.1079     0.5217     0.4327 H       
  49 H49            5.9516     0.0331    -0.9436 H       
  50 H50            5.9681     0.0231     0.8363 H       
  51 H51            7.2526    -1.8915    -0.0763 H       
  52 H52            5.8231    -2.4522     0.8238 H       
  53 H53            5.8066    -2.4423    -0.9560 H       
@<TRIPOS>BOND
   1    1    2 1
   2    1    5 1
   3    1    9 1
   4    2    3 2
   5    3    4 1
   6    4    5 2
   7    4    6 1
   8    5   34 1
   9    6    7 2
  10    6    8 1
  11    8   32 1
  12    9   10 1
  13    9   35 1
  14    9   36 1
  15   10   23 1
  16   10   37 1
  17   10   38 1
  18   11   12 1
  19   11   15 1
  20   12   13 1
  21   12   39 1
  22   12   40 1
  23   13   14 1
  24   14   15 ar
  25   14   16 ar
  26   15   19 ar
  27   16   17 ar
  28   16   41 1
  29   17   18 ar
  30   17   20 1
  31   18   19 ar
  32   18   21 1
  33   19   42 1
  34   20   22 1
  35   21   22 1
  36   21   24 1
  37   21   25 1
  38   22   43 1
  39   22   44 1
  40   23   24 am
  41   23   30 1
  42   24   31 2
  43   25   26 ar
  44   25   30 ar
  45   26   27 ar
  46   26   45 1
  47   27   28 ar
  48   27   46 1
  49   28   29 ar
  50   28   47 1
  51   29   30 ar
  52   29   48 1
  53   32   33 1
  54   32   49 1
  55   32   50 1
  56   33   51 1
  57   33   52 1
  58   33   53 1

#	End of record

