#	Name: ASD01811447
#	Creating user name:	WinNT
#	Creation time:	15. 06. 2019 19:26

#	Modifying user name:	WinNT
#	Modification time:	15. 06. 2019 19:26

#	Program:	/corina/corina34_cracker 3.40 0067  02.08.2006

@<TRIPOS>MOLECULE
ASD01811447
  30   31    0    0    0
SMALL
NO_CHARGES


@<TRIPOS>ATOM
   1 C1            -0.0096     1.4718     0.0894 C.2     
   2 C2             0.0061    -0.0048     0.0406 C.ar    
   3 C3             1.2156    -0.6874    -0.1187 C.ar    
   4 C4             1.2334    -2.0674    -0.1647 C.ar    
   5 C5             0.0587    -2.7838    -0.0545 C.ar    
   6 C6            -1.1598    -2.1144     0.1054 C.ar    
   7 C7            -1.1834    -0.7196     0.1589 C.ar    
   8 O8             1.0358     2.0904     0.0971 O.2     
   9 O9            -1.1832     2.1322     0.1199 O.3     
  10 C10            2.5038     0.0851    -0.2410 C.3     
  11 C11           -2.4121    -2.8789     0.2229 C.2     
  12 O12           -3.4668    -2.2971     0.3614 O.2     
  13 C13            0.0884    -4.2896    -0.1069 C.3     
  14 C14            0.6626    -4.8491    -1.4192 C.3     
  15 C15            1.3720    -5.9120    -0.5638 C.3     
  16 C16            1.3079    -4.9066     0.5980 C.3     
  17 H17            2.1712    -2.5888    -0.2880 H       
  18 H18           -2.1200    -0.1972     0.2869 H       
  19 H19           -1.1429     3.0979     0.1514 H       
  20 H20            2.8678     0.3443     0.7532 H       
  21 H21            3.2472    -0.5267    -0.7521 H       
  22 H22            2.3281     0.9964    -0.8126 H       
  23 H23           -2.3914    -3.9581     0.1858 H       
  24 H24           -0.8601    -4.7419     0.1826 H       
  25 H25           -0.0945    -5.2601    -2.0869 H       
  26 H26            1.3467    -4.1660    -1.9227 H       
  27 H27            0.7752    -6.8090    -0.3984 H       
  28 H28            2.3869    -6.1327    -0.8947 H       
  29 H29            2.1684    -4.2392     0.6460 H       
  30 H30            1.0717    -5.3640     1.5588 H       
@<TRIPOS>BOND
   1    1    2 1
   2    1    8 2
   3    1    9 1
   4    2    3 ar
   5    2    7 ar
   6    3    4 ar
   7    3   10 1
   8    4    5 ar
   9    4   17 1
  10    5    6 ar
  11    5   13 1
  12    6    7 ar
  13    6   11 1
  14    7   18 1
  15    9   19 1
  16   10   20 1
  17   10   21 1
  18   10   22 1
  19   11   12 2
  20   11   23 1
  21   13   14 1
  22   13   16 1
  23   13   24 1
  24   14   15 1
  25   14   25 1
  26   14   26 1
  27   15   16 1
  28   15   27 1
  29   15   28 1
  30   16   29 1
  31   16   30 1

#	End of record

