#	Name: ASD08151107
#	Creating user name:	WinNT
#	Creation time:	15. 06. 2019 21:17

#	Modifying user name:	WinNT
#	Modification time:	15. 06. 2019 21:17

#	Program:	/corina/corina34_cracker 3.40 0067  02.08.2006

@<TRIPOS>MOLECULE
ASD08151107
  32   34    0    0    0
SMALL
NO_CHARGES


@<TRIPOS>ATOM
   1 C1            -0.0184     1.5028     0.0103 C.2     
   2 C2             0.0313    -0.0029    -0.0288 C.3     
   3 N3             2.3785     5.7429    -0.1865 N.ar    
   4 C4             3.4920     6.4350    -0.1893 C.ar    
   5 C5             4.7374     5.8168    -0.0964 C.ar    
   6 C6             4.8171     4.4565     0.0007 C.ar    
   7 C7             3.6185     3.7182     0.0033 C.ar    
   8 C8             3.6311     2.3138     0.1011 C.ar    
   9 C9             2.4649     1.6162     0.1026 C.ar    
  10 C10            1.2282     2.2788     0.0070 C.ar    
  11 C11            1.1793     3.6750    -0.0917 C.ar    
  12 C12            2.3879     4.4113    -0.0942 C.ar    
  13 C13           -0.1204     4.3719    -0.1927 C.ar    
  14 C14           -0.5387     5.2266     0.8290 C.ar    
  15 C15           -1.7544     5.8750     0.7277 C.ar    
  16 C16           -2.5569     5.6776    -0.3853 C.ar    
  17 C17           -2.1464     4.8317    -1.3998 C.ar    
  18 C18           -0.9321     4.1826    -1.3128 C.ar    
  19 F19           -2.1619     6.7023     1.7149 F       
  20 Cl20           5.1432     1.4694     0.2198 Cl      
  21 O21           -1.0881     2.0737     0.0394 O.2     
  22 H22            1.0642    -0.3293    -0.1500 H       
  23 H23           -0.3696    -0.4039     0.9021 H       
  24 H24           -0.5647    -0.3645    -0.8667 H       
  25 H25            3.4429     7.5111    -0.2659 H       
  26 H26            5.6384     6.4123    -0.1014 H       
  27 H27            5.7739     3.9608     0.0732 H       
  28 H28            2.4881     0.5391     0.1782 H       
  29 H29            0.0862     5.3802     1.6963 H       
  30 H30           -3.5067     6.1861    -0.4604 H       
  31 H31           -2.7765     4.6820    -2.2641 H       
  32 H32           -0.6116     3.5261    -2.1082 H       
@<TRIPOS>BOND
   1    1    2 1
   2    1   10 1
   3    1   21 2
   4    2   22 1
   5    2   23 1
   6    2   24 1
   7    3    4 ar
   8    3   12 ar
   9    4    5 ar
  10    4   25 1
  11    5    6 ar
  12    5   26 1
  13    6    7 ar
  14    6   27 1
  15    7    8 ar
  16    7   12 ar
  17    8    9 ar
  18    8   20 1
  19    9   10 ar
  20    9   28 1
  21   10   11 ar
  22   11   12 ar
  23   11   13 1
  24   13   14 ar
  25   13   18 ar
  26   14   15 ar
  27   14   29 1
  28   15   16 ar
  29   15   19 1
  30   16   17 ar
  31   16   30 1
  32   17   18 ar
  33   17   31 1
  34   18   32 1

#	End of record

