#	Name: ASD01810681
#	Creating user name:	WinNT
#	Creation time:	15. 06. 2019 19:25

#	Modifying user name:	WinNT
#	Modification time:	15. 06. 2019 19:25

#	Program:	/corina/corina34_cracker 3.40 0067  02.08.2006

@<TRIPOS>MOLECULE
ASD01810681
  68   72    0    0    0
SMALL
NO_CHARGES


@<TRIPOS>ATOM
   1 C1            -0.0575     1.6526    -0.1705 C.ar    
   2 C2            -0.2568     0.2731    -0.0895 C.ar    
   3 C3            -1.6271    -0.2815    -0.1203 C.2     
   4 N4            -2.6167     0.3290     0.5611 N.am    
   5 O5            -1.8610    -1.2881    -0.7603 O.2     
   6 C6            -2.3282     1.4758     1.4331 C.3     
   7 C7             0.8409    -0.5800     0.0203 C.ar    
   8 C8             2.1229    -0.0525     0.0481 C.ar    
   9 C9             2.3105     1.3220    -0.0332 C.ar    
  10 C10            1.2222     2.1677    -0.1419 C.ar    
  11 C11            3.7049     1.8927    -0.0021 C.3     
  12 N12            3.2273    -0.9039     0.1585 N.am    
  13 C13            3.1331    -2.0402     0.8771 C.2     
  14 O14            2.0657    -2.3683     1.3586 O.2     
  15 C15            4.3247    -2.8857     1.0797 C.ar    
  16 C16            5.5547    -2.5186     0.5316 C.ar    
  17 N17            6.6189    -3.2727     0.7120 N.ar    
  18 C18            6.5642    -4.3968     1.4133 C.ar    
  19 C19            5.3688    -4.8244     1.9891 C.ar    
  20 C20            4.2392    -4.0681     1.8312 C.ar    
  21 N21            7.7102    -5.1567     1.5755 N.3     
  22 C22            8.8585    -4.5336     0.8920 C.3     
  23 C23            8.0434    -5.3140     3.0073 C.3     
  24 C24            9.5914    -5.3493     3.0517 C.3     
  25 C25            9.9600    -4.3196     1.9514 C.3     
  26 C26           -2.8956     1.1902     2.8272 C.3     
  27 C27           -4.3828     0.8494     2.7082 C.3     
  28 C28           -4.5531    -0.4067     1.8508 C.3     
  29 C29           -4.0054    -0.1357     0.4413 C.3     
  30 C30           -4.9524     0.6011     4.0812 C.ar    
  31 C31           -5.9886     1.3892     4.5497 C.ar    
  32 C32           -6.5150     1.1671     5.8053 C.ar    
  33 C33           -5.9996     0.1442     6.6039 C.ar    
  34 C34           -4.9537    -0.6473     6.1248 C.ar    
  35 C35           -4.4404    -0.4176     4.8652 C.ar    
  36 C36           -6.5407    -0.0918     7.9086 C.1     
  37 N37           -6.9701    -0.2790     8.9435 N.1     
  38 H38           -0.9048     2.3162    -0.2600 H       
  39 H39           -1.2501     1.6217     1.5003 H       
  40 H40           -2.7956     2.3719     1.0250 H       
  41 H41            0.6930    -1.6480     0.0837 H       
  42 H42            1.3743     3.2351    -0.2047 H       
  43 H43            4.0915     1.9629    -1.0189 H       
  44 H44            3.6812     2.8857     0.4469 H       
  45 H45            4.3506     1.2425     0.5880 H       
  46 H46            4.0610    -0.6765    -0.2822 H       
  47 H47            5.6341    -1.6089    -0.0452 H       
  48 H48            5.3354    -5.7419     2.5578 H       
  49 H49            3.3015    -4.3782     2.2681 H       
  50 H50            9.2241    -5.1931     0.1049 H       
  51 H51            8.5614    -3.5747     0.4671 H       
  52 H52            7.6665    -4.4665     3.5799 H       
  53 H53            7.6313    -6.2467     3.3925 H       
  54 H54            9.9614    -5.0292     4.0257 H       
  55 H55            9.9667    -6.3412     2.7998 H       
  56 H56           10.9433    -4.5368     1.5342 H       
  57 H57            9.9233    -3.3042     2.3459 H       
  58 H58           -2.3639     0.3485     3.2709 H       
  59 H59           -2.7735     2.0712     3.4572 H       
  60 H60           -4.9099     1.6817     2.2418 H       
  61 H61           -4.0058    -1.2334     2.3037 H       
  62 H62           -5.6108    -0.6622     1.7858 H       
  63 H63           -4.6113     0.6284    -0.0455 H       
  64 H64           -4.0327    -1.0546    -0.1443 H       
  65 H65           -6.3861     2.1802     3.9311 H       
  66 H66           -7.3236     1.7832     6.1700 H       
  67 H67           -4.5502    -1.4398     6.7375 H       
  68 H68           -3.6315    -1.0290     4.4933 H       
@<TRIPOS>BOND
   1    1    2 ar
   2    1   10 ar
   3    1   38 1
   4    2    3 1
   5    2    7 ar
   6    3    4 am
   7    3    5 2
   8    4    6 1
   9    4   29 1
  10    6   26 1
  11    6   39 1
  12    6   40 1
  13    7    8 ar
  14    7   41 1
  15    8    9 ar
  16    8   12 1
  17    9   10 ar
  18    9   11 1
  19   10   42 1
  20   11   43 1
  21   11   44 1
  22   11   45 1
  23   12   13 am
  24   12   46 1
  25   13   14 2
  26   13   15 1
  27   15   16 ar
  28   15   20 ar
  29   16   17 ar
  30   16   47 1
  31   17   18 ar
  32   18   19 ar
  33   18   21 1
  34   19   20 ar
  35   19   48 1
  36   20   49 1
  37   21   22 1
  38   21   23 1
  39   22   25 1
  40   22   50 1
  41   22   51 1
  42   23   24 1
  43   23   52 1
  44   23   53 1
  45   24   25 1
  46   24   54 1
  47   24   55 1
  48   25   56 1
  49   25   57 1
  50   26   27 1
  51   26   58 1
  52   26   59 1
  53   27   28 1
  54   27   30 1
  55   27   60 1
  56   28   29 1
  57   28   61 1
  58   28   62 1
  59   29   63 1
  60   29   64 1
  61   30   31 ar
  62   30   35 ar
  63   31   32 ar
  64   31   65 1
  65   32   33 ar
  66   32   66 1
  67   33   34 ar
  68   33   36 1
  69   34   35 ar
  70   34   67 1
  71   35   68 1
  72   36   37 3

#	End of record

