#	Name: ASD02038012
#	Creating user name:	WinNT
#	Creation time:	15. 06. 2019 20:16

#	Modifying user name:	WinNT
#	Modification time:	15. 06. 2019 20:16

#	Program:	/corina/corina34_cracker 3.40 0067  02.08.2006

@<TRIPOS>MOLECULE
ASD02038012
  48   51    0    0    0
SMALL
NO_CHARGES


@<TRIPOS>ATOM
   1 C1            -0.0178     1.4645     0.0101 C.ar    
   2 C2             0.0021    -0.0041     0.0020 C.2     
   3 N3            -1.1231    -0.6743     0.0092 N.2     
   4 C4            -2.6503    -4.1321     0.0052 C.3     
   5 N5            -2.2627    -2.7134     0.0091 N.am    
   6 C6            -1.1048    -2.0237     0.0017 C.2     
   7 C7            -5.1968    -4.4590    -0.1718 C.3     
   8 O8            -6.3327    -4.0820    -0.9526 O.3     
   9 C9            -7.5222    -4.6556    -0.6288 C.ar    
  10 C10           -8.6651    -4.3341    -1.3462 C.ar    
  11 C11           -7.5913    -5.5666     0.4154 C.ar    
  12 C12           -8.7985    -6.1505     0.7444 C.ar    
  13 C13           -9.9438    -5.8250     0.0302 C.ar    
  14 C14           -9.8729    -4.9168    -1.0176 C.ar    
  15 N15          -11.1700    -6.4148     0.3611 N.am    
  16 C16          -12.1885    -6.4092    -0.5183 C.2     
  17 C17          -12.0268    -5.7879    -1.8794 C.3     
  18 C18          -11.1176    -4.5650    -1.7903 C.3     
  19 O19           -0.0429    -2.6177    -0.0116 O.2     
  20 O20          -13.2490    -6.9111    -0.2105 O.2     
  21 C21           -3.6947    -2.3785     0.0237 C.3     
  22 C22           -3.9594    -3.7166    -0.6803 C.3     
  23 C23            1.1832     2.1845     0.0025 C.ar    
  24 C24           -1.2376     2.1514     0.0196 C.ar    
  25 C25           -1.2479     3.5305     0.0266 C.ar    
  26 C26           -0.0539     4.2359     0.0244 C.ar    
  27 C27            1.1570     3.5620     0.0097 C.ar    
  28 Cl28          -0.0762     5.9717     0.0327 Cl      
  29 Cl29          -2.7588     4.3853     0.0378 Cl      
  30 H30            0.9446    -0.5313    -0.0098 H       
  31 H31           -2.0112    -4.7549    -0.6208 H       
  32 H32           -2.7951    -4.5452     1.0034 H       
  33 H33           -5.3719    -4.2006     0.8726 H       
  34 H34           -5.0369    -5.5337    -0.2583 H       
  35 H35           -8.6101    -3.6280    -2.1615 H       
  36 H36           -6.7003    -5.8194     0.9710 H       
  37 H37           -8.8517    -6.8602     1.5567 H       
  38 H38          -11.2858    -6.8303     1.2299 H       
  39 H39          -11.5843    -6.5158    -2.5594 H       
  40 H40          -13.0036    -5.4874    -2.2585 H       
  41 H41          -11.6436    -3.7577    -1.2807 H       
  42 H42          -10.8435    -4.2423    -2.7947 H       
  43 H43           -4.1177    -2.3246     1.0268 H       
  44 H44           -3.9437    -1.5103    -0.5865 H       
  45 H45           -3.8991    -3.6692    -1.7676 H       
  46 H46            2.1278     1.6612    -0.0086 H       
  47 H47           -2.1679     1.6029     0.0210 H       
  48 H48            2.0828     4.1181     0.0080 H       
@<TRIPOS>BOND
   1    1    2 1
   2    1   23 ar
   3    1   24 ar
   4    2    3 2
   5    2   30 1
   6    3    6 1
   7    4    5 1
   8    4   22 1
   9    4   31 1
  10    4   32 1
  11    5    6 am
  12    5   21 1
  13    6   19 2
  14    7    8 1
  15    7   22 1
  16    7   33 1
  17    7   34 1
  18    8    9 1
  19    9   10 ar
  20    9   11 ar
  21   10   14 ar
  22   10   35 1
  23   11   12 ar
  24   11   36 1
  25   12   13 ar
  26   12   37 1
  27   13   14 ar
  28   13   15 1
  29   14   18 1
  30   15   16 am
  31   15   38 1
  32   16   17 1
  33   16   20 2
  34   17   18 1
  35   17   39 1
  36   17   40 1
  37   18   41 1
  38   18   42 1
  39   21   22 1
  40   21   43 1
  41   21   44 1
  42   22   45 1
  43   23   27 ar
  44   23   46 1
  45   24   25 ar
  46   24   47 1
  47   25   26 ar
  48   25   29 1
  49   26   27 ar
  50   26   28 1
  51   27   48 1

#	End of record

