#	Name: ASD03320057
#	Creating user name:	WinNT
#	Creation time:	15. 06. 2019 20:36

#	Modifying user name:	WinNT
#	Modification time:	15. 06. 2019 20:36

#	Program:	/corina/corina34_cracker 3.40 0067  02.08.2006

@<TRIPOS>MOLECULE
ASD03320057
  60   64    0    0    0
SMALL
NO_CHARGES


@<TRIPOS>ATOM
   1 C1            -0.9095     4.1514    -0.0765 C.ar    
   2 C2            -1.0367     2.7741     0.1025 C.ar    
   3 C3             0.3401     4.7186    -0.1936 C.ar    
   4 C4             1.4800     3.9141    -0.1331 C.ar    
   5 C5             1.3517     2.5352     0.0461 C.ar    
   6 C6             0.1012     1.9698     0.1630 C.ar    
   7 C7             2.8217     4.5219    -0.2592 C.2     
   8 N8             3.0331     5.5092    -1.1519 N.am    
   9 O9             3.7343     4.1311     0.4423 O.2     
  10 C10           -2.3828     2.1643     0.2289 C.ar    
  11 C11           -2.5226     0.7906     0.4079 C.ar    
  12 C12           -3.8112     0.2680     0.5212 C.ar    
  13 N13           -4.8509     1.0950     0.4546 N.ar    
  14 C14           -4.6763     2.3903     0.2843 C.ar    
  15 N15           -3.4780     2.9242     0.1785 N.ar    
  16 N16           -4.0052    -1.0932     0.7001 N.pl3   
  17 C17            4.3237     6.2105    -1.2000 C.3     
  18 C18            4.8801     6.1158    -2.6260 C.3     
  19 N19            3.8243     6.5101    -3.5692 N.am    
  20 C20            2.5337     5.8088    -3.5212 C.3     
  21 C21            1.9792     5.8996    -2.0989 C.3     
  22 C22            4.0357     7.4974    -4.4620 C.2     
  23 C23            2.9314     7.9572    -5.3310 C.ar    
  24 O24            5.1342     8.0098    -4.5527 O.2     
  25 C25            2.6839     9.3222    -5.4864 C.ar    
  26 C26            1.6526     9.7461    -6.2987 C.ar    
  27 C27            0.8629     8.8220    -6.9591 C.ar    
  28 C28            1.1022     7.4655    -6.8100 C.ar    
  29 C29            2.1361     7.0287    -6.0034 C.ar    
  30 C30           -5.2925    -1.5927     0.9254 C.ar    
  31 C31           -5.6183    -2.8817     0.5243 C.ar    
  32 C32           -6.8897    -3.3727     0.7477 C.ar    
  33 C33           -7.8392    -2.5808     1.3712 C.ar    
  34 C34           -7.5166    -1.2951     1.7716 C.ar    
  35 C35           -6.2446    -0.8022     1.5557 C.ar    
  36 F36            0.3270     6.5685    -7.4580 F       
  37 F37           -9.0823    -3.0631     1.5888 F       
  38 H38           -1.7913     4.7728    -0.1277 H       
  39 H39            0.4384     5.7851    -0.3326 H       
  40 H40            2.2326     1.9122     0.0927 H       
  41 H41            0.0017     0.9034     0.3016 H       
  42 H42           -1.6568     0.1469     0.4573 H       
  43 H43           -5.5425     3.0335     0.2346 H       
  44 H44           -3.2484    -1.6992     0.6690 H       
  45 H45            4.1814     7.2573    -0.9315 H       
  46 H46            5.0201     5.7432    -0.5038 H       
  47 H47            5.7334     6.7860    -2.7310 H       
  48 H48            5.1895     5.0909    -2.8307 H       
  49 H49            1.8373     6.2761    -4.2174 H       
  50 H50            2.6759     4.7619    -3.7896 H       
  51 H51            1.1261     5.2291    -1.9953 H       
  52 H52            1.6697     6.9240    -1.8916 H       
  53 H53            3.2987    10.0454    -4.9712 H       
  54 H54            1.4610    10.8021    -6.4190 H       
  55 H55            0.0564     9.1593    -7.5933 H       
  56 H56            2.3228     5.9713    -5.8875 H       
  57 H57           -4.8782    -3.4996     0.0377 H       
  58 H58           -7.1437    -4.3750     0.4356 H       
  59 H59           -8.2589    -0.6789     2.2571 H       
  60 H60           -5.9934     0.2007     1.8682 H       
@<TRIPOS>BOND
   1    1    2 ar
   2    1    3 ar
   3    1   38 1
   4    2   10 1
   5    2    6 ar
   6    3    4 ar
   7    3   39 1
   8    4    5 ar
   9    4    7 1
  10    5    6 ar
  11    5   40 1
  12    6   41 1
  13    7    8 am
  14    7    9 2
  15    8   17 1
  16    8   21 1
  17   10   11 ar
  18   10   15 ar
  19   11   12 ar
  20   11   42 1
  21   12   13 ar
  22   12   16 1
  23   13   14 ar
  24   14   15 ar
  25   14   43 1
  26   16   30 1
  27   16   44 1
  28   17   18 1
  29   17   45 1
  30   17   46 1
  31   18   19 1
  32   18   47 1
  33   18   48 1
  34   19   20 1
  35   19   22 am
  36   20   21 1
  37   20   49 1
  38   20   50 1
  39   21   51 1
  40   21   52 1
  41   22   23 1
  42   22   24 2
  43   23   25 ar
  44   23   29 ar
  45   25   26 ar
  46   25   53 1
  47   26   27 ar
  48   26   54 1
  49   27   28 ar
  50   27   55 1
  51   28   29 ar
  52   28   36 1
  53   29   56 1
  54   30   31 ar
  55   30   35 ar
  56   31   32 ar
  57   31   57 1
  58   32   33 ar
  59   32   58 1
  60   33   34 ar
  61   33   37 1
  62   34   35 ar
  63   34   59 1
  64   35   60 1

#	End of record

