#	Name: ASD01948072
#	Creating user name:	WinNT
#	Creation time:	15. 06. 2019 20:13

#	Modifying user name:	WinNT
#	Modification time:	15. 06. 2019 20:13

#	Program:	/corina/corina34_cracker 3.40 0067  02.08.2006

@<TRIPOS>MOLECULE
ASD01948072
  51   54    0    0    0
SMALL
NO_CHARGES


@<TRIPOS>ATOM
   1 C1            -0.8000     2.5005     0.6962 C.3     
   2 S2            -0.3206     0.7546     0.5840 S.o2    
   3 O3             0.3402     0.4972    -0.6474 O.2     
   4 O4             0.2269     0.3076     1.8167 O.2     
   5 N5            -1.7563    -0.0606     0.4552 N.am    
   6 O6             1.2318     4.9586     1.8777 O.3     
   7 C7             0.1832     4.8742     0.9040 C.3     
   8 C8             0.4556     3.3683     0.8024 C.3     
   9 C9             0.9521     3.5988     2.2350 C.3     
  10 C10            1.5491     2.9857    -0.1970 C.3     
  11 C11           -2.1972     1.0076    -1.6565 C.2     
  12 C12           -2.5989     0.1663    -0.6519 C.2     
  13 C13           -3.8491    -0.4707    -0.7242 C.2     
  14 C14           -4.6671    -0.2320    -1.8216 C.2     
  15 C15           -4.2209     0.6282    -2.8226 C.2     
  16 N16           -3.0140     1.2158    -2.7319 N.am    
  17 O17           -1.0445     1.7207    -1.7592 O.3     
  18 C18           -2.3187     2.1306    -3.6596 C.3     
  19 C19           -0.8640     2.0874    -3.1385 C.3     
  20 O20           -4.9318     0.8506    -3.7917 O.2     
  21 C21           -6.0167    -0.8942    -1.9279 C.3     
  22 N22           -4.2610    -1.3265     0.2861 N.pl3   
  23 C23           -3.5174    -2.4758     0.5758 C.ar    
  24 C24           -3.8573    -3.2694     1.6668 C.ar    
  25 C25           -3.1200    -4.4041     1.9496 C.ar    
  26 C26           -2.0458    -4.7497     1.1487 C.ar    
  27 C27           -1.7061    -3.9619     0.0641 C.ar    
  28 C28           -2.4426    -2.8298    -0.2279 C.ar    
  29 I29           -0.9310    -6.4701     1.5807 I       
  30 F30           -4.9059    -2.9315     2.4488 F       
  31 H31           -1.3614     2.7812    -0.1949 H       
  32 H32           -1.4212     2.6507     1.5792 H       
  33 H33           -2.0174    -0.6943     1.1416 H       
  34 H34           -0.8017     5.1095     1.3072 H       
  35 H35            0.4021     5.4166    -0.0158 H       
  36 H36            1.8447     3.0238     2.4815 H       
  37 H37            0.1680     3.5012     2.9858 H       
  38 H38            1.1659     3.0895    -1.2122 H       
  39 H39            2.4087     3.6426    -0.0642 H       
  40 H40            1.8516     1.9525    -0.0267 H       
  41 H41           -2.3748     1.7606    -4.6834 H       
  42 H42           -2.7263     3.1389    -3.5878 H       
  43 H43           -0.3932     3.0670    -3.2211 H       
  44 H44           -0.2845     1.3313    -3.6683 H       
  45 H45           -6.7816    -0.2256    -1.5329 H       
  46 H46           -6.2318    -1.1149    -2.9734 H       
  47 H47           -6.0129    -1.8210    -1.3543 H       
  48 H48           -5.0646    -1.1285     0.7919 H       
  49 H49           -3.3824    -5.0210     2.7963 H       
  50 H50           -0.8666    -4.2344    -0.5583 H       
  51 H51           -2.1793    -2.2183    -1.0783 H       
@<TRIPOS>BOND
   1    1    2 1
   2    1    8 1
   3    1   31 1
   4    1   32 1
   5    2    3 2
   6    2    4 2
   7    2    5 am
   8    5   12 1
   9    5   33 1
  10    6    7 1
  11    6    9 1
  12    7    8 1
  13    7   34 1
  14    7   35 1
  15    8    9 1
  16    8   10 1
  17    9   36 1
  18    9   37 1
  19   10   38 1
  20   10   39 1
  21   10   40 1
  22   11   12 2
  23   11   16 1
  24   11   17 1
  25   12   13 1
  26   13   14 2
  27   13   22 1
  28   14   15 1
  29   14   21 1
  30   15   16 am
  31   15   20 2
  32   16   18 1
  33   17   19 1
  34   18   19 1
  35   18   41 1
  36   18   42 1
  37   19   43 1
  38   19   44 1
  39   21   45 1
  40   21   46 1
  41   21   47 1
  42   22   23 1
  43   22   48 1
  44   23   24 ar
  45   23   28 ar
  46   24   25 ar
  47   24   30 1
  48   25   26 ar
  49   25   49 1
  50   26   27 ar
  51   26   29 1
  52   27   28 ar
  53   27   50 1
  54   28   51 1

#	End of record

