#	Name: ASD01670056
#	Creating user name:	WinNT
#	Creation time:	15. 06. 2019 19:22

#	Modifying user name:	WinNT
#	Modification time:	15. 06. 2019 19:22

#	Program:	/corina/corina34_cracker 3.40 0067  02.08.2006

@<TRIPOS>MOLECULE
ASD01670056
  69   72    0    0    0
SMALL
NO_CHARGES


@<TRIPOS>ATOM
   1 C1            -0.1866     0.0202    -0.4230 C.ar    
   2 C2             0.3761    -0.1520     0.8289 C.ar    
   3 C3             1.0447     0.2203    -8.0366 C.2     
   4 C4             0.5912    -0.1062    -1.5557 C.ar    
   5 C5             1.7213    -0.4514     0.9544 C.ar    
   6 C6             6.8000    -0.8680     3.7263 C.ar    
   7 C7             7.0226    -0.9934     5.0871 C.ar    
   8 C8             1.8773     0.5927    -6.9562 C.2     
   9 C9             0.8933    -1.1146    -7.9698 C.2     
  10 C10            1.9483    -0.4085    -1.4362 C.ar    
  11 C11            5.1548    -2.6164     3.8313 C.ar    
  12 C12            2.5100    -0.5805    -0.1698 C.ar    
  13 C13            5.8747    -1.6706     3.0957 C.ar    
  14 C14            6.3184    -1.9280     5.8305 C.ar    
  15 C15            5.3798    -2.7426     5.2092 C.ar    
  16 C16            2.1848    -0.5370    -6.2939 C.2     
  17 C17            5.0436     2.3886     0.3888 C.2     
  18 C18            5.4152     1.3147     1.0405 C.2     
  19 C19            2.7876    -0.5459    -2.6456 C.2     
  20 C20            4.1631    -3.4769     3.1612 C.2     
  21 C21            6.9758    -2.1151    11.4541 C.2     
  22 C22            5.1910    -4.0147     7.2064 C.3     
  23 C23            5.5733    -2.7247     7.9436 C.3     
  24 C24            3.9749    -0.9062    -0.0313 C.3     
  25 C25            5.6385    -1.5286     1.6141 C.3     
  26 C26            3.0537    -0.6300    -5.0662 C.3     
  27 C27            4.4108     0.5440     1.8580 C.3     
  28 C28            6.4105    -1.7773    10.0986 C.3     
  29 C29            6.1472    -3.0677     9.3198 C.3     
  30 N30            2.2221    -0.4938    -3.8678 N.am    
  31 N31            4.3580    -0.8459     1.3855 N.3     
  32 O32            4.5025    -4.5473     2.6970 O.2     
  33 O33            7.1502    -3.2694    11.7653 O.2     
  34 O34            3.9877    -0.7059    -2.5375 O.2     
  35 O35            2.8802    -3.0765     3.0635 O.3     
  36 O36            7.2855    -1.1335    12.3157 O.3     
  37 O37            1.5861    -1.5679    -6.9123 O.3     
  38 O38            4.6734    -3.6593     5.9197 O.3     
  39 O39            6.5602    -2.0386     7.1657 O.3     
  40 H40           -1.2380     0.2498    -0.5142 H       
  41 H41           -0.2370    -0.0520     1.7123 H       
  42 H42            0.6100     0.8814    -8.7717 H       
  43 H43            0.1506     0.0281    -2.5325 H       
  44 H44            2.1547    -0.5840     1.9347 H       
  45 H45            7.3513    -0.1341     3.1572 H       
  46 H46            7.7498    -0.3594     5.5725 H       
  47 H47            2.2039     1.5923    -6.7102 H       
  48 H48            0.3129    -1.7192    -8.6509 H       
  49 H49            5.7634     2.9409    -0.1970 H       
  50 H50            4.0174     2.7216     0.4374 H       
  51 H51            6.4414     0.9816     0.9920 H       
  52 H52            6.0726    -4.6444     7.0861 H       
  53 H53            4.4303    -4.5508     7.7739 H       
  54 H54            4.6927    -2.0930     8.0597 H       
  55 H55            4.1622    -1.9087    -0.4161 H       
  56 H56            4.5628    -0.1839    -0.5977 H       
  57 H57            6.4457    -0.9446     1.1718 H       
  58 H58            5.6108    -2.5165     1.1543 H       
  59 H59            3.5582    -1.5961    -5.0504 H       
  60 H60            3.7965     0.1675    -5.0855 H       
  61 H61            4.7069     0.5602     2.9069 H       
  62 H62            3.4274     1.0017     1.7509 H       
  63 H63            5.4760    -1.2296    10.2208 H       
  64 H64            7.1236    -1.1613     9.5507 H       
  65 H65            5.4341    -3.6836     9.8676 H       
  66 H66            7.0817    -3.6153     9.1976 H       
  67 H67            1.2644    -0.3661    -3.9540 H       
  68 H68            2.2665    -3.6747     2.6155 H       
  69 H69            7.6452    -1.3992    13.1730 H       
@<TRIPOS>BOND
   1    1    2 ar
   2    1    4 ar
   3    1   40 1
   4    2    5 ar
   5    2   41 1
   6    3    8 1
   7    3    9 2
   8    3   42 1
   9    4   10 ar
  10    4   43 1
  11    5   12 ar
  12    5   44 1
  13    6    7 ar
  14    6   13 ar
  15    6   45 1
  16    7   14 ar
  17    7   46 1
  18    8   16 2
  19    8   47 1
  20    9   37 1
  21    9   48 1
  22   10   12 ar
  23   10   19 1
  24   11   13 ar
  25   11   15 ar
  26   11   20 1
  27   12   24 1
  28   13   25 1
  29   14   15 ar
  30   14   39 1
  31   15   38 1
  32   16   26 1
  33   16   37 1
  34   17   18 2
  35   17   49 1
  36   17   50 1
  37   18   27 1
  38   18   51 1
  39   19   30 am
  40   19   34 2
  41   20   32 2
  42   20   35 1
  43   21   28 1
  44   21   33 2
  45   21   36 1
  46   22   23 1
  47   22   38 1
  48   22   52 1
  49   22   53 1
  50   23   29 1
  51   23   39 1
  52   23   54 1
  53   24   31 1
  54   24   55 1
  55   24   56 1
  56   25   31 1
  57   25   57 1
  58   25   58 1
  59   26   30 1
  60   26   59 1
  61   26   60 1
  62   27   31 1
  63   27   61 1
  64   27   62 1
  65   28   29 1
  66   28   63 1
  67   28   64 1
  68   29   65 1
  69   29   66 1
  70   30   67 1
  71   35   68 1
  72   36   69 1

#	End of record

