#	Name: ASD01914325
#	Creating user name:	WinNT
#	Creation time:	15. 06. 2019 20:03

#	Modifying user name:	WinNT
#	Modification time:	15. 06. 2019 20:03

#	Program:	/corina/corina34_cracker 3.40 0067  02.08.2006

@<TRIPOS>MOLECULE
ASD01914325
  41   43    0    0    0
SMALL
NO_CHARGES


@<TRIPOS>ATOM
   1 N1            -0.0564     1.3033    -0.0092 N.pl3   
   2 C2             0.0532    -0.0510    -0.1589 C.2     
   3 C3             1.2065     1.7963     0.1489 C.2     
   4 N4             2.0561     0.7961     0.0994 N.2     
   5 C5             1.3780    -0.3510    -0.0888 C.2     
   6 C6             1.5594     3.2193     0.3430 C.ar    
   7 C7             0.6513     4.2197    -0.0062 C.ar    
   8 C8             0.9851     5.5452     0.1773 C.ar    
   9 C9             2.2200     5.8844     0.7070 C.ar    
  10 C10            3.1256     4.8948     1.0551 C.ar    
  11 C11            2.7993     3.5661     0.8814 C.ar    
  12 C12            1.9717    -1.7062    -0.1997 C.ar    
  13 C13            3.3523    -1.8744    -0.1097 C.ar    
  14 C14            1.1507    -2.8160    -0.3886 C.ar    
  15 C15            1.7085    -4.0744    -0.4912 C.ar    
  16 C16            3.0796    -4.2349    -0.4069 C.ar    
  17 C17            3.8991    -3.1371    -0.2137 C.ar    
  18 C18           -1.2976     2.0814    -0.0222 C.3     
  19 C19           -1.5778     2.5567    -1.4246 C.2     
  20 O20           -2.6708     3.2936    -1.6776 O.3     
  21 O21           -0.8186     2.2745    -2.3211 O.2     
  22 C22           -2.8771     3.7166    -3.0513 C.3     
  23 F23            2.5423     7.1844     0.8844 F       
  24 C24            5.3923    -3.3199    -0.1234 C.3     
  25 H25           -0.7574    -0.7496    -0.3048 H       
  26 H26           -0.3111     3.9565    -0.4198 H       
  27 H27            0.2830     6.3203    -0.0926 H       
  28 H28            4.0869     5.1644     1.4669 H       
  29 H29            3.5056     2.7956     1.1533 H       
  30 H30            3.9931    -1.0181     0.0407 H       
  31 H31            0.0798    -2.6918    -0.4542 H       
  32 H32            1.0730    -4.9354    -0.6372 H       
  33 H33            3.5117    -5.2214    -0.4873 H       
  34 H34           -2.1219     1.4563     0.3211 H       
  35 H35           -1.1942     2.9416     0.6391 H       
  36 H36           -2.0325     4.3248    -3.3749 H       
  37 H37           -2.9603     2.8394    -3.6930 H       
  38 H38           -3.7935     4.3031    -3.1171 H       
  39 H39            5.8287    -3.2420    -1.1191 H       
  40 H40            5.8146    -2.5479     0.5198 H       
  41 H41            5.6135    -4.3020     0.2945 H       
@<TRIPOS>BOND
   1    1    2 1
   2    1    3 1
   3    1   18 1
   4    2    5 2
   5    2   25 1
   6    3    4 2
   7    3    6 1
   8    4    5 1
   9    5   12 1
  10    6    7 ar
  11    6   11 ar
  12    7    8 ar
  13    7   26 1
  14    8    9 ar
  15    8   27 1
  16    9   10 ar
  17    9   23 1
  18   10   11 ar
  19   10   28 1
  20   11   29 1
  21   12   13 ar
  22   12   14 ar
  23   13   17 ar
  24   13   30 1
  25   14   15 ar
  26   14   31 1
  27   15   16 ar
  28   15   32 1
  29   16   17 ar
  30   16   33 1
  31   17   24 1
  32   18   19 1
  33   18   34 1
  34   18   35 1
  35   19   20 1
  36   19   21 2
  37   20   22 1
  38   22   36 1
  39   22   37 1
  40   22   38 1
  41   24   39 1
  42   24   40 1
  43   24   41 1

#	End of record

