#	Name: ASD01913337
#	Creating user name:	WinNT
#	Creation time:	15. 06. 2019 20:01

#	Modifying user name:	WinNT
#	Modification time:	15. 06. 2019 20:01

#	Program:	/corina/corina34_cracker 3.40 0067  02.08.2006

@<TRIPOS>MOLECULE
ASD01913337
  38   40    0    0    0
SMALL
NO_CHARGES


@<TRIPOS>ATOM
   1 C1            -0.0166     1.3765     0.0096 C.2     
   2 C2             0.0021    -0.0041     0.0020 C.2     
   3 C3             1.2500    -0.6727    -0.0135 C.2     
   4 N4             2.3635     0.0159    -0.0200 N.2     
   5 C5             2.3514     1.3566    -0.0127 C.2     
   6 N6             1.1685     2.0507     0.0019 N.pl3   
   7 C7            -1.2215    -0.7480     0.0102 C.1     
   8 C8            -2.2246    -1.3579     0.0169 C.1     
   9 C9            -3.4482    -2.1018     0.0250 C.ar    
  10 C10           -4.6030    -4.2087     0.0252 C.ar    
  11 C11           -5.8501    -2.1573     0.0429 C.ar    
  12 C12           -4.6757    -1.4341     0.0350 C.ar    
  13 C13            3.3711     2.2994    -0.0169 C.2     
  14 C14            2.7831     3.5557    -0.0048 C.2     
  15 N15            1.4768     3.4160     0.0065 N.2     
  16 C16            3.5231     4.8685    -0.0040 C.3     
  17 C17           -3.4205    -3.4989     0.0173 C.ar    
  18 C18           -5.8148    -3.5406     0.0409 C.ar    
  19 C19            4.0864     5.1372    -1.4010 C.3     
  20 C20            2.5631     5.9949     0.3841 C.3     
  21 C21            4.6711     4.8063     1.0055 C.3     
  22 H22           -0.9539     1.9131     0.0170 H       
  23 H23            1.2833    -1.7522    -0.0196 H       
  24 H24           -4.5832    -5.2885     0.0238 H       
  25 H25           -6.7996    -1.6427     0.0506 H       
  26 H26           -4.7048    -0.3545     0.0369 H       
  27 H27            4.4310     2.0918    -0.0275 H       
  28 H28           -2.4755    -4.0216     0.0047 H       
  29 H29           -6.7376    -4.1017     0.0467 H       
  30 H30            3.2686     5.1815    -2.1202 H       
  31 H31            4.6216     6.0868    -1.4004 H       
  32 H32            4.7704     4.3348    -1.6774 H       
  33 H33            2.1618     5.8034     1.3792 H       
  34 H34            3.0983     6.9444     0.3846 H       
  35 H35            1.7452     6.0392    -0.3352 H       
  36 H36            5.3550     4.0039     0.7290 H       
  37 H37            5.2063     5.7559     1.0061 H       
  38 H38            4.2697     4.6149     2.0007 H       
@<TRIPOS>BOND
   1    1    2 2
   2    1    6 1
   3    1   22 1
   4    2    3 1
   5    2    7 1
   6    3    4 2
   7    3   23 1
   8    4    5 1
   9    5    6 1
  10    5   13 2
  11    6   15 1
  12    7    8 3
  13    8    9 1
  14    9   17 ar
  15    9   12 ar
  16   10   18 ar
  17   10   17 ar
  18   10   24 1
  19   11   12 ar
  20   11   18 ar
  21   11   25 1
  22   12   26 1
  23   13   14 1
  24   13   27 1
  25   14   15 2
  26   14   16 1
  27   16   19 1
  28   16   20 1
  29   16   21 1
  30   17   28 1
  31   18   29 1
  32   19   30 1
  33   19   31 1
  34   19   32 1
  35   20   33 1
  36   20   34 1
  37   20   35 1
  38   21   36 1
  39   21   37 1
  40   21   38 1

#	End of record

