#	Name: ASD04590650
#	Creating user name:	WinNT
#	Creation time:	15. 06. 2019 20:51

#	Modifying user name:	WinNT
#	Modification time:	15. 06. 2019 20:51

#	Program:	/corina/corina34_cracker 3.40 0067  02.08.2006

@<TRIPOS>MOLECULE
ASD04590650
  61   65    0    0    0
SMALL
NO_CHARGES


@<TRIPOS>ATOM
   1 N1            -2.3782    -2.7058     0.0195 N.ar    
   2 C2            -1.2116    -2.0737     0.0036 C.ar    
   3 N3            -0.0572    -2.7201    -0.0183 N.ar    
   4 C4            -0.0258    -4.0494    -0.0249 C.ar    
   5 C5            -1.2485    -4.7504    -0.0080 C.ar    
   6 C6            -2.4369    -4.0273     0.0144 C.ar    
   7 N7             0.9981    -4.9637    -0.0460 N.pl3   
   8 C8             0.4951    -6.2533    -0.0436 C.ar    
   9 C9            -0.9091    -6.1790    -0.0202 C.ar    
  10 C10            1.0916    -7.5074    -0.0596 C.ar    
  11 N11            0.3553    -8.5999    -0.0533 N.ar    
  12 C12           -0.9653    -8.5647    -0.0314 C.ar    
  13 C13           -1.6435    -7.3643    -0.0139 C.ar    
  14 N14           -1.2019    -0.6887     0.0098 N.pl3   
  15 C15           -2.4016     0.0177    -0.0802 C.ar    
  16 C16            2.4227    -4.6225    -0.0683 C.3     
  17 N17           -3.5391    -0.6295    -0.2720 N.ar    
  18 N18           -4.6655    -0.0208    -0.3610 N.ar    
  19 C19           -4.7646     1.2952    -0.2669 C.ar    
  20 C20           -3.6184     2.0654    -0.0641 C.ar    
  21 C21           -2.4049     1.4084     0.0375 C.ar    
  22 N22           -6.0101     1.9108    -0.3704 N.3     
  23 C23           -7.0718     0.9183    -0.5811 C.3     
  24 C24           -8.3995     1.6358    -0.8349 C.3     
  25 C25           -8.7341     2.5207     0.3691 C.3     
  26 C26           -7.5905     3.5133     0.5964 C.3     
  27 C27           -6.2862     2.7414     0.8087 C.3     
  28 N28           -9.9780     3.2567     0.1067 N.3     
  29 C29          -10.3934     4.0262     1.2872 C.3     
  30 C30           -9.8363     4.1287    -1.0669 C.3     
  31 C31            2.7297    -3.7965    -1.3190 C.3     
  32 C32            2.7717    -3.8083     1.1791 C.3     
  33 H33           -3.3897    -4.5355     0.0280 H       
  34 H34            2.1685    -7.5878    -0.0777 H       
  35 H35           -1.5221    -9.4901    -0.0272 H       
  36 H36           -2.7231    -7.3426     0.0039 H       
  37 H37           -0.3610    -0.2099     0.0768 H       
  38 H38            3.0152    -5.5373    -0.0826 H       
  39 H39           -3.6773     3.1409     0.0151 H       
  40 H40           -1.4872     1.9557     0.1945 H       
  41 H41           -6.8235     0.2983    -1.4426 H       
  42 H42           -7.1622     0.2896     0.3046 H       
  43 H43           -8.3141     2.2541    -1.7285 H       
  44 H44           -9.1902     0.8989    -0.9757 H       
  45 H45           -8.8579     1.8984     1.2554 H       
  46 H46           -7.4924     4.1611    -0.2746 H       
  47 H47           -7.8033     4.1178     1.4782 H       
  48 H48           -6.3803     2.1041     1.6879 H       
  49 H49           -5.4675     3.4456     0.9566 H       
  50 H50           -9.6129     4.7409     1.5481 H       
  51 H51          -11.3168     4.5613     1.0656 H       
  52 H52          -10.5588     3.3472     2.1237 H       
  53 H53           -9.5967     3.5243    -1.9418 H       
  54 H54          -10.7715     4.6617    -1.2386 H       
  55 H55           -9.0356     4.8471    -0.8913 H       
  56 H56            2.1372    -2.8817    -1.3047 H       
  57 H57            3.7896    -3.5426    -1.3356 H       
  58 H58            2.4811    -4.3766    -2.2076 H       
  59 H59            2.5529    -4.3968     2.0701 H       
  60 H60            3.8316    -3.5544     1.1625 H       
  61 H61            2.1792    -2.8935     1.1934 H       
@<TRIPOS>BOND
   1    1    2 ar
   2    1    6 ar
   3    2    3 ar
   4    2   14 1
   5    3    4 ar
   6    4    5 ar
   7    4    7 1
   8    5    6 ar
   9    5    9 1
  10    6   33 1
  11    7    8 1
  12    7   16 1
  13    8    9 ar
  14    8   10 ar
  15    9   13 ar
  16   10   11 ar
  17   10   34 1
  18   11   12 ar
  19   12   13 ar
  20   12   35 1
  21   13   36 1
  22   14   15 1
  23   14   37 1
  24   15   17 ar
  25   15   21 ar
  26   16   31 1
  27   16   32 1
  28   16   38 1
  29   17   18 ar
  30   18   19 ar
  31   19   20 ar
  32   19   22 1
  33   20   21 ar
  34   20   39 1
  35   21   40 1
  36   22   23 1
  37   22   27 1
  38   23   24 1
  39   23   41 1
  40   23   42 1
  41   24   25 1
  42   24   43 1
  43   24   44 1
  44   25   26 1
  45   25   28 1
  46   25   45 1
  47   26   27 1
  48   26   46 1
  49   26   47 1
  50   27   48 1
  51   27   49 1
  52   28   29 1
  53   28   30 1
  54   29   50 1
  55   29   51 1
  56   29   52 1
  57   30   53 1
  58   30   54 1
  59   30   55 1
  60   31   56 1
  61   31   57 1
  62   31   58 1
  63   32   59 1
  64   32   60 1
  65   32   61 1

#	End of record

