#	Name: ASD01916426
#	Creating user name:	WinNT
#	Creation time:	15. 06. 2019 20:07

#	Modifying user name:	WinNT
#	Modification time:	15. 06. 2019 20:07

#	Program:	/corina/corina34_cracker 3.40 0067  02.08.2006

@<TRIPOS>MOLECULE
ASD01916426
  39   41    0    0    0
SMALL
NO_CHARGES


@<TRIPOS>ATOM
   1 N1            -0.0157     1.3091     0.0092 N.ar    
   2 C2             0.0021    -0.0041     0.0020 C.ar    
   3 C3             1.2125    -0.7011    -0.0128 C.ar    
   4 N4             2.3572    -0.0574    -0.0198 N.ar    
   5 C5             2.3656     1.2802    -0.0131 C.ar    
   6 C6             3.5735     1.9988    -0.0198 C.ar    
   7 C7             3.5490     3.3595    -0.0123 C.ar    
   8 C8             2.3413     4.0549     0.0019 C.ar    
   9 C9             1.1521     3.3931     0.0092 C.ar    
  10 C10            1.1369     1.9877     0.0019 C.ar    
  11 C11            1.2047    -2.2081    -0.0204 C.3     
  12 C12           -1.2974    -0.7672     0.0103 C.3     
  13 C13           -1.7510    -1.0177    -1.4293 C.3     
  14 C14           -3.0203    -1.7630    -1.4211 C.1     
  15 C15           -4.0326    -2.3575    -1.4147 C.1     
  16 C16           -5.2674    -3.0826    -1.4067 C.ar    
  17 C17           -5.8760    -3.4267    -2.6144 C.ar    
  18 C18           -7.0687    -4.1273    -2.5900 C.ar    
  19 C19           -7.6159    -4.4621    -1.3589 C.ar    
  20 C20           -6.9596    -4.0895    -0.2004 C.ar    
  21 N21           -5.8218    -3.4272    -0.2502 N.ar    
  22 C22           -7.5510    -4.4508     1.1377 C.3     
  23 F23           -7.0666    -5.7002     1.5396 F       
  24 H24            4.5170     1.4734    -0.0304 H       
  25 H25            4.4790     3.9084    -0.0171 H       
  26 H26            2.3493     5.1349     0.0076 H       
  27 H27            0.2241     3.9455     0.0209 H       
  28 H28            1.1933    -2.5662    -1.0498 H       
  29 H29            2.0976    -2.5785     0.4832 H       
  30 H30            0.3177    -2.5695     0.4999 H       
  31 H31           -1.1552    -1.7213     0.5177 H       
  32 H32           -2.0564    -0.1865     0.5346 H       
  33 H33           -1.8932    -0.0635    -1.9366 H       
  34 H34           -0.9920    -1.5984    -1.9535 H       
  35 H35           -5.4226    -3.1498    -3.5546 H       
  36 H36           -7.5634    -4.4072    -3.5083 H       
  37 H37           -8.5461    -5.0084    -1.3065 H       
  38 H38           -7.2701    -3.6981     1.8744 H       
  39 H39           -8.6372    -4.4915     1.0559 H       
@<TRIPOS>BOND
   1    1    2 ar
   2    1   10 ar
   3    2    3 ar
   4    2   12 1
   5    3    4 ar
   6    3   11 1
   7    4    5 ar
   8    5    6 ar
   9    5   10 ar
  10    6    7 ar
  11    6   24 1
  12    7    8 ar
  13    7   25 1
  14    8    9 ar
  15    8   26 1
  16    9   10 ar
  17    9   27 1
  18   11   28 1
  19   11   29 1
  20   11   30 1
  21   12   13 1
  22   12   31 1
  23   12   32 1
  24   13   14 1
  25   13   33 1
  26   13   34 1
  27   14   15 3
  28   15   16 1
  29   16   17 ar
  30   16   21 ar
  31   17   18 ar
  32   17   35 1
  33   18   19 ar
  34   18   36 1
  35   19   20 ar
  36   19   37 1
  37   20   21 ar
  38   20   22 1
  39   22   23 1
  40   22   38 1
  41   22   39 1

#	End of record

