#	Name: ASD01810528
#	Creating user name:	WinNT
#	Creation time:	15. 06. 2019 19:24

#	Modifying user name:	WinNT
#	Modification time:	15. 06. 2019 19:24

#	Program:	/corina/corina34_cracker 3.40 0067  02.08.2006

@<TRIPOS>MOLECULE
ASD01810528
  65   68    0    0    0
SMALL
NO_CHARGES


@<TRIPOS>ATOM
   1 C1            -2.3189    -2.8494     0.2783 C.ar    
   2 C2            -1.1426    -2.1127     0.1354 C.ar    
   3 C3             0.1017    -2.7637     0.1184 C.ar    
   4 C4             0.1446    -4.1521     0.2464 C.ar    
   5 C5            -1.0265    -4.8666     0.3873 C.ar    
   6 C6            -2.2540    -4.2192     0.4027 C.ar    
   7 C7            -1.1741    -0.6444    -0.0009 C.2     
   8 C8             0.1179     0.0450    -0.1470 C.2     
   9 C9             1.2772    -0.7046    -0.1493 C.2     
  10 N10            1.2649    -2.0374    -0.0235 N.pl3   
  11 O11           -2.2254    -0.0283     0.0068 O.2     
  12 F12            1.3321    -4.7962     0.2319 F       
  13 C13            2.5422    -2.7547    -0.0363 C.3     
  14 C14            2.9156    -3.0905    -1.4572 C.ar    
  15 C15            3.5401    -2.1557    -2.2250 C.ar    
  16 C16            2.6216    -4.3548    -1.9634 C.ar    
  17 C17            2.9456    -4.6903    -3.2423 C.ar    
  18 C18            3.5860    -3.7497    -4.0670 C.ar    
  19 C19            3.8897    -2.4649    -3.5501 C.ar    
  20 C20            3.9349    -4.0602    -5.3917 C.ar    
  21 C21            4.5559    -3.1206    -6.1641 C.ar    
  22 C22            4.8496    -1.8521    -5.6537 C.ar    
  23 C23            4.5299    -1.5223    -4.3738 C.ar    
  24 O24            4.8933    -3.4224    -7.4453 O.3     
  25 C25            8.8206    -1.1945   -16.2688 C.3     
  26 C26            0.1731     1.5069    -0.2886 C.2     
  27 O27           -0.9660     2.2278    -0.2854 O.3     
  28 O28            1.2458     2.0659    -0.4087 O.2     
  29 C29            5.5408    -2.3990    -8.2040 C.3     
  30 C30            5.8408    -2.9197    -9.6110 C.3     
  31 C31            6.5340    -1.8239   -10.4232 C.3     
  32 C32            6.8341    -2.3446   -11.8303 C.3     
  33 C33            7.5273    -1.2488   -12.6425 C.3     
  34 C34            7.8273    -1.7695   -14.0495 C.3     
  35 C35            8.5205    -0.6738   -14.8618 C.3     
  36 H36           -3.2750    -2.3475     0.2958 H       
  37 H37           -0.9881    -5.9415     0.4857 H       
  38 H38           -3.1625    -4.7925     0.5138 H       
  39 H39            2.2255    -0.1991    -0.2569 H       
  40 H40            3.3163    -2.1262     0.4039 H       
  41 H41            2.4484    -3.6741     0.5417 H       
  42 H42            3.7652    -1.1812    -1.8177 H       
  43 H43            2.1295    -5.0796    -1.3317 H       
  44 H44            2.7122    -5.6745    -3.6210 H       
  45 H45            3.7136    -5.0365    -5.7970 H       
  46 H46            5.3413    -1.1255    -6.2836 H       
  47 H47            4.7627    -0.5389    -3.9929 H       
  48 H48            7.8883    -1.4752   -16.7588 H       
  49 H49            9.3144    -0.4138   -16.8474 H       
  50 H50            9.4728    -2.0653   -16.2025 H       
  51 H51           -0.8793     3.1861    -0.3814 H       
  52 H52            4.8885    -1.5282    -8.2702 H       
  53 H53            6.4730    -2.1182    -7.7139 H       
  54 H54            6.4931    -3.7905    -9.5447 H       
  55 H55            4.9085    -3.2004   -10.1010 H       
  56 H56            5.8818    -0.9531   -10.4895 H       
  57 H57            7.4663    -1.5431    -9.9332 H       
  58 H58            7.4863    -3.2154   -11.7640 H       
  59 H59            5.9018    -2.6254   -12.3203 H       
  60 H60            6.8750    -0.3780   -12.7088 H       
  61 H61            8.4596    -0.9681   -12.1525 H       
  62 H62            8.4796    -2.6403   -13.9833 H       
  63 H63            6.8951    -2.0503   -14.5395 H       
  64 H64            9.4528    -0.3930   -14.3717 H       
  65 H65            7.8683     0.1970   -14.9280 H       
@<TRIPOS>BOND
   1    1    2 ar
   2    1    6 ar
   3    1   36 1
   4    2    3 ar
   5    2    7 1
   6    3    4 ar
   7    3   10 1
   8    4    5 ar
   9    4   12 1
  10    5    6 ar
  11    5   37 1
  12    6   38 1
  13    7    8 1
  14    7   11 2
  15    8    9 2
  16    8   26 1
  17    9   10 1
  18    9   39 1
  19   10   13 1
  20   13   14 1
  21   13   40 1
  22   13   41 1
  23   14   15 ar
  24   14   16 ar
  25   15   19 ar
  26   15   42 1
  27   16   17 ar
  28   16   43 1
  29   17   18 ar
  30   17   44 1
  31   18   19 ar
  32   18   20 ar
  33   19   23 ar
  34   20   21 ar
  35   20   45 1
  36   21   22 ar
  37   21   24 1
  38   22   23 ar
  39   22   46 1
  40   23   47 1
  41   24   29 1
  42   25   35 1
  43   25   48 1
  44   25   49 1
  45   25   50 1
  46   26   27 1
  47   26   28 2
  48   27   51 1
  49   29   30 1
  50   29   52 1
  51   29   53 1
  52   30   31 1
  53   30   54 1
  54   30   55 1
  55   31   32 1
  56   31   56 1
  57   31   57 1
  58   32   33 1
  59   32   58 1
  60   32   59 1
  61   33   34 1
  62   33   60 1
  63   33   61 1
  64   34   35 1
  65   34   62 1
  66   34   63 1
  67   35   64 1
  68   35   65 1

#	End of record

