#	Name: ASD00170325
#	Creating user name:	WinNT
#	Creation time:	15. 06. 2019 18:31

#	Modifying user name:	WinNT
#	Modification time:	15. 06. 2019 18:31

#	Program:	/corina/corina34_cracker 3.40 0067  02.08.2006

@<TRIPOS>MOLECULE
ASD00170325
  88   92    0    0    0
SMALL
NO_CHARGES


@<TRIPOS>ATOM
   1 C1             0.2942     1.9423    -0.6757 C.3     
   2 C2             0.3445     0.4506    -0.9550 C.2     
   3 C3             1.4667    -0.2235    -1.2258 C.2     
   4 C4             2.8452     0.4148    -1.2829 C.3     
   5 C5             2.6912     1.9280    -1.4546 C.3     
   6 N6             1.6780     2.4116    -0.5042 N.am    
   7 C7             1.2179    -1.6371    -1.4579 C.2     
   8 C8            -0.1028    -1.9806    -1.3469 C.2     
   9 S9            -1.0487    -0.6169    -0.9670 S.3     
  10 C10            2.0066     3.2581     0.4918 C.2     
  11 C11            0.9491     3.7389     1.4518 C.3     
  12 C12            0.1497     4.8715     0.8044 C.3     
  13 O13            3.1534     3.6328     0.6154 O.2     
  14 S14           -1.1232     5.4503     1.9600 S.3     
  15 C15           -1.9993     6.7167     1.0012 C.3     
  16 C16           -4.0237     4.8733    -2.2777 C.ar    
  17 C17           -4.8448     8.6849     3.5065 C.ar    
  18 C18            0.8079     9.5736    -0.4836 C.ar    
  19 C19           -4.1250     6.2380    -2.0819 C.ar    
  20 C20           -3.4702     6.8345    -1.0206 C.ar    
  21 C21           -2.7136     6.0664    -0.1555 C.ar    
  22 C22           -2.6119     4.7018    -0.3516 C.ar    
  23 C23           -3.2671     4.1052    -1.4126 C.ar    
  24 C24           -4.2324     9.3780     2.4791 C.ar    
  25 C25           -3.3113     8.7411     1.6686 C.ar    
  26 C26           -3.0030     7.4111     1.8851 C.ar    
  27 C27           -3.6159     6.7179     2.9121 C.ar    
  28 C28           -4.5366     7.3549     3.7230 C.ar    
  29 C29            0.6441     9.4094     0.8791 C.ar    
  30 C30           -0.2646     8.4852     1.3596 C.ar    
  31 C31           -1.0090     7.7247     0.4773 C.ar    
  32 C32           -0.8449     7.8886    -0.8854 C.ar    
  33 C33            0.0635     8.8132    -1.3659 C.ar    
  34 N34            1.5874     4.2293     2.6758 N.am    
  35 C35            2.4625     5.2526     2.6161 C.2     
  36 O36            2.7220     5.7684     1.5470 O.2     
  37 O37            3.0490     5.7033     3.7411 O.3     
  38 C38            3.9807     6.8081     3.6015 C.3     
  39 C39            3.2546     8.0153     3.0045 C.3     
  40 C40            4.5417     7.1789     4.9759 C.3     
  41 C41            5.1277     6.3945     2.6772 C.3     
  42 N42           -0.5996    -3.2578    -1.5201 N.pl3   
  43 C43            2.2737    -2.5968    -1.7789 C.2     
  44 O44            2.8499    -3.1887    -0.8857 O.2     
  45 O45            2.6087    -2.8258    -3.0656 O.3     
  46 C46            3.6487    -3.7760    -3.3059 C.3     
  47 C47            3.8869    -3.9012    -4.8121 C.3     
  48 H48           -0.1703     2.4599    -1.5149 H       
  49 H49           -0.2748     2.1287     0.2351 H       
  50 H50            3.3819     0.2060    -0.3575 H       
  51 H51            3.4007     0.0071    -2.1274 H       
  52 H52            3.6441     2.4174    -1.2532 H       
  53 H53            2.3724     2.1496    -2.4731 H       
  54 H54            0.2789     2.9149     1.6965 H       
  55 H55            0.8200     5.6955     0.5597 H       
  56 H56           -0.3252     4.5067    -0.1063 H       
  57 H57           -4.5389     4.4067    -3.1043 H       
  58 H58           -5.5611     9.1837     4.1425 H       
  59 H59            1.5147    10.2989    -0.8590 H       
  60 H60           -4.7158     6.8381    -2.7581 H       
  61 H61           -3.5488     7.9007    -0.8681 H       
  62 H62           -2.0205     4.1017     0.3241 H       
  63 H63           -3.1876     3.0391    -1.5658 H       
  64 H64           -4.4735    10.4170     2.3097 H       
  65 H65           -2.8333     9.2824     0.8655 H       
  66 H66           -3.3753     5.6787     3.0811 H       
  67 H67           -5.0154     6.8133     4.5254 H       
  68 H68            1.2260    10.0033     1.5684 H       
  69 H69           -0.3921     8.3564     2.4243 H       
  70 H70           -1.4262     7.2942    -1.5747 H       
  71 H71            0.1918     8.9412    -2.4306 H       
  72 H72            1.3802     3.8175     3.5293 H       
  73 H73            2.4375     8.3100     3.6630 H       
  74 H74            3.9540     8.8447     2.8998 H       
  75 H75            2.8550     7.7512     2.0254 H       
  76 H76            5.0590     6.3189     5.4012 H       
  77 H77            5.2411     8.0083     4.8711 H       
  78 H78            3.7246     7.4736     5.6344 H       
  79 H79            4.7280     6.1304     1.6981 H       
  80 H80            5.8271     7.2239     2.5725 H       
  81 H81            5.6450     5.5345     3.1025 H       
  82 H82            0.0022    -3.9870    -1.7365 H       
  83 H83           -1.5503    -3.4253    -1.4252 H       
  84 H84            4.5653    -3.4422    -2.8196 H       
  85 H85            3.3555    -4.7453    -2.9026 H       
  86 H86            4.6802    -4.6259    -4.9954 H       
  87 H87            2.9703    -4.2349    -5.2984 H       
  88 H88            4.1801    -2.9319    -5.2154 H       
@<TRIPOS>BOND
   1    1    2 1
   2    1    6 1
   3    1   48 1
   4    1   49 1
   5    2    3 2
   6    2    9 1
   7    3    4 1
   8    3    7 1
   9    4    5 1
  10    4   50 1
  11    4   51 1
  12    5    6 1
  13    5   52 1
  14    5   53 1
  15    6   10 am
  16    7    8 2
  17    7   43 1
  18    8    9 1
  19    8   42 1
  20   10   11 1
  21   10   13 2
  22   11   12 1
  23   11   34 1
  24   11   54 1
  25   12   14 1
  26   12   55 1
  27   12   56 1
  28   14   15 1
  29   15   21 1
  30   15   26 1
  31   15   31 1
  32   16   19 ar
  33   16   23 ar
  34   16   57 1
  35   17   24 ar
  36   17   28 ar
  37   17   58 1
  38   18   29 ar
  39   18   33 ar
  40   18   59 1
  41   19   20 ar
  42   19   60 1
  43   20   21 ar
  44   20   61 1
  45   21   22 ar
  46   22   23 ar
  47   22   62 1
  48   23   63 1
  49   24   25 ar
  50   24   64 1
  51   25   26 ar
  52   25   65 1
  53   26   27 ar
  54   27   28 ar
  55   27   66 1
  56   28   67 1
  57   29   30 ar
  58   29   68 1
  59   30   31 ar
  60   30   69 1
  61   31   32 ar
  62   32   33 ar
  63   32   70 1
  64   33   71 1
  65   34   35 am
  66   34   72 1
  67   35   36 2
  68   35   37 1
  69   37   38 1
  70   38   39 1
  71   38   41 1
  72   38   40 1
  73   39   73 1
  74   39   74 1
  75   39   75 1
  76   40   76 1
  77   40   77 1
  78   40   78 1
  79   41   79 1
  80   41   80 1
  81   41   81 1
  82   42   82 1
  83   42   83 1
  84   43   44 2
  85   43   45 1
  86   45   46 1
  87   46   47 1
  88   46   84 1
  89   46   85 1
  90   47   86 1
  91   47   87 1
  92   47   88 1

#	End of record

