#	Name: ASD00170748
#	Creating user name:	WinNT
#	Creation time:	15. 06. 2019 18:32

#	Modifying user name:	WinNT
#	Modification time:	15. 06. 2019 18:32

#	Program:	/corina/corina34_cracker 3.40 0067  02.08.2006

@<TRIPOS>MOLECULE
ASD00170748
  42   44    0    0    0
SMALL
NO_CHARGES


@<TRIPOS>ATOM
   1 C1            -0.0150     1.2130     0.0019 C.2     
   2 O2             0.6028     1.0969    -1.0411 O.2     
   3 C3             0.5323     0.6439     1.2531 C.ar    
   4 C4             1.6993    -0.1213     1.2235 C.ar    
   5 C5             2.2046    -0.6486     2.3936 C.ar    
   6 C6             1.5571    -0.4205     3.5952 C.ar    
   7 C7             0.3998     0.3366     3.6314 C.ar    
   8 C8            -0.1129     0.8746     2.4688 C.ar    
   9 C9             3.4642    -1.4754     2.3634 C.3     
  10 F10            4.5739    -0.6409     2.5346 F       
  11 F11            3.4271    -2.4195     3.3951 F       
  12 F12            3.5608    -2.1332     1.1325 F       
  13 C13           -1.3710     3.2628     0.1343 C.2     
  14 C14           -1.2564     1.8990     0.0183 C.2     
  15 C15           -2.5462     1.2343    -0.0861 C.2     
  16 C16           -3.5740     2.0883    -0.0473 C.2     
  17 S17           -3.0065     3.7399     0.1183 S.3     
  18 C18           -2.7039    -0.2333    -0.2215 C.ar    
  19 C19           -3.5811    -0.9230     0.6145 C.ar    
  20 C20           -3.7238    -2.2893     0.4838 C.ar    
  21 C21           -2.9982    -2.9747    -0.4740 C.ar    
  22 C22           -2.1259    -2.2959    -1.3059 C.ar    
  23 C23           -1.9799    -0.9287    -1.1891 C.ar    
  24 C24           -1.3388    -3.0501    -2.3464 C.3     
  25 F25           -1.6581    -4.4104    -2.2775 F       
  26 F26           -1.6570    -2.5602    -3.6177 F       
  27 F27            0.0296    -2.8797    -2.1101 F       
  28 C28           -4.6715    -3.0362     1.3866 C.3     
  29 F29           -5.9390    -3.0824     0.7962 F       
  30 F30           -4.2003    -4.3389     1.5820 F       
  31 F31           -4.7551    -2.3807     2.6197 F       
  32 N32           -0.3046     4.1298     0.2539 N.pl3   
  33 H33            2.2054    -0.3003     0.2863 H       
  34 H34            1.9567    -0.8356     4.5086 H       
  35 H35           -0.1010     0.5107     4.5723 H       
  36 H36           -1.0140     1.4692     2.4990 H       
  37 H37           -4.6130     1.8004    -0.1101 H       
  38 H38           -4.1476    -0.3889     1.3631 H       
  39 H39           -3.1128    -4.0441    -0.5723 H       
  40 H40           -1.3022    -0.3991    -1.8423 H       
  41 H41            0.5970     3.7814     0.3351 H       
  42 H42           -0.4564     5.0878     0.2567 H       
@<TRIPOS>BOND
   1    1    2 2
   2    1    3 1
   3    1   14 1
   4    3    4 ar
   5    3    8 ar
   6    4    5 ar
   7    4   33 1
   8    5    6 ar
   9    5    9 1
  10    6    7 ar
  11    6   34 1
  12    7    8 ar
  13    7   35 1
  14    8   36 1
  15    9   10 1
  16    9   11 1
  17    9   12 1
  18   13   14 2
  19   13   17 1
  20   13   32 1
  21   14   15 1
  22   15   16 2
  23   15   18 1
  24   16   17 1
  25   16   37 1
  26   18   19 ar
  27   18   23 ar
  28   19   20 ar
  29   19   38 1
  30   20   21 ar
  31   20   28 1
  32   21   22 ar
  33   21   39 1
  34   22   23 ar
  35   22   24 1
  36   23   40 1
  37   24   25 1
  38   24   26 1
  39   24   27 1
  40   28   29 1
  41   28   30 1
  42   28   31 1
  43   32   41 1
  44   32   42 1

#	End of record

