#	Name: ASD05720070
#	Creating user name:	WinNT
#	Creation time:	15. 06. 2019 21:01

#	Modifying user name:	WinNT
#	Modification time:	15. 06. 2019 21:01

#	Program:	/corina/corina34_cracker 3.40 0067  02.08.2006

@<TRIPOS>MOLECULE
ASD05720070
  41   42    0    0    0
SMALL
NO_CHARGES


@<TRIPOS>ATOM
   1 C1            -0.0542     1.3120     0.1585 C.2     
   2 N2            -0.0007    -0.0346     0.1752 N.am    
   3 O3             0.9604     1.9582    -0.0135 O.2     
   4 O4            -1.2326     1.9411     0.3268 O.3     
   5 C5             1.2806    -0.7192    -0.0140 C.3     
   6 C6             1.5606    -0.8729    -1.5103 C.3     
   7 C7             2.5427    -4.1295     1.2484 C.3     
   8 C8             2.5894    -2.7812     0.5248 C.3     
   9 C9             1.2212    -2.1019     0.6384 C.3     
  10 C10            0.8580    -1.9546     2.1192 C.3     
  11 C11            0.8781    -3.3348     2.7812 C.3     
  12 O12            2.1691    -3.9239     2.6123 O.3     
  13 O13            0.5750    -1.7272    -2.0941 O.3     
  14 C14           -1.2150     3.3927     0.2973 C.3     
  15 C15           -2.6134     3.9162     0.5012 C.ar    
  16 C16           -3.0740     4.1782     1.7780 C.ar    
  17 C17           -4.3567     4.6584     1.9650 C.ar    
  18 C18           -5.1786     4.8770     0.8753 C.ar    
  19 C19           -4.7177     4.6159    -0.4016 C.ar    
  20 C20           -3.4335     4.1398    -0.5889 C.ar    
  21 H21           -0.8106    -0.5504     0.3125 H       
  22 H22            2.0766    -0.1341     0.4464 H       
  23 H23            1.5231     0.1055    -1.9893 H       
  24 H24            2.5494    -1.3092    -1.6520 H       
  25 H25            1.8109    -4.7765     0.7647 H       
  26 H26            3.5259    -4.5983     1.2075 H       
  27 H27            3.3495    -2.1482     0.9826 H       
  28 H28            2.8311    -2.9401    -0.5262 H       
  29 H29            0.4692    -2.7102     0.1359 H       
  30 H30            1.5831    -1.3049     2.6092 H       
  31 H31           -0.1386    -1.5223     2.2085 H       
  32 H32            0.6622    -3.2311     3.8446 H       
  33 H33            0.1246    -3.9714     2.3175 H       
  34 H34            0.6906    -1.8697    -3.0435 H       
  35 H35           -0.5684     3.7644     1.0922 H       
  36 H36           -0.8371     3.7320    -0.6671 H       
  37 H37           -2.4319     4.0073     2.6294 H       
  38 H38           -4.7168     4.8623     2.9626 H       
  39 H39           -6.1810     5.2515     1.0214 H       
  40 H40           -5.3599     4.7864    -1.2529 H       
  41 H41           -3.0721     3.9393    -1.5867 H       
@<TRIPOS>BOND
   1    1    2 am
   2    1    3 2
   3    1    4 1
   4    2    5 1
   5    2   21 1
   6    4   14 1
   7    5    6 1
   8    5    9 1
   9    5   22 1
  10    6   13 1
  11    6   23 1
  12    6   24 1
  13    7    8 1
  14    7   12 1
  15    7   25 1
  16    7   26 1
  17    8    9 1
  18    8   27 1
  19    8   28 1
  20    9   10 1
  21    9   29 1
  22   10   11 1
  23   10   30 1
  24   10   31 1
  25   11   12 1
  26   11   32 1
  27   11   33 1
  28   13   34 1
  29   14   15 1
  30   14   35 1
  31   14   36 1
  32   15   16 ar
  33   15   20 ar
  34   16   17 ar
  35   16   37 1
  36   17   18 ar
  37   17   38 1
  38   18   19 ar
  39   18   39 1
  40   19   20 ar
  41   19   40 1
  42   20   41 1

#	End of record

