#	Name: ASD00170891
#	Creating user name:	WinNT
#	Creation time:	15. 06. 2019 18:32

#	Modifying user name:	WinNT
#	Modification time:	15. 06. 2019 18:32

#	Program:	/corina/corina34_cracker 3.40 0067  02.08.2006

@<TRIPOS>MOLECULE
ASD00170891
  59   63    0    0    0
SMALL
NO_CHARGES


@<TRIPOS>ATOM
   1 C1             0.6350     0.4601    -1.1000 C.2     
   2 N2             0.0321    -0.0038     0.0095 N.am    
   3 C3             0.6816     0.3977     1.1171 C.2     
   4 C4             1.8426     1.2171     0.7113 C.ar    
   5 C5             2.8462     1.8812     1.3982 C.ar    
   6 C6             3.8143     2.5802     0.6942 C.ar    
   7 C7             3.7852     2.6191    -0.6872 C.ar    
   8 C8             2.7873     1.9600    -1.3880 C.ar    
   9 C9             1.8129     1.2568    -0.6978 C.ar    
  10 O10            0.2746     0.2543    -2.2413 O.2     
  11 O11            0.3666     0.1313     2.2593 O.2     
  12 C12           -1.1101    -0.7931     0.0113 C.2     
  13 C13           -1.1139    -2.1618    -0.0981 C.2     
  14 C14           -2.4471    -2.7220    -0.0666 C.2     
  15 C15           -3.3953    -1.8052     0.0612 C.2     
  16 S16           -2.7002    -0.1970     0.1570 S.3     
  17 C17           -4.8712    -2.1039     0.1214 C.3     
  18 C18           -2.7293    -4.1988    -0.1692 C.3     
  19 N19           -2.7418    -4.7896     1.1757 N.3     
  20 C20           -3.8664    -4.2731     1.9672 C.3     
  21 C21           -2.7768    -6.2565     1.1061 C.3     
  22 C22           -2.5421    -6.8304     2.4796 C.ar    
  23 C23           -3.6131    -7.0753     3.3186 C.ar    
  24 C24           -3.3977    -7.6017     4.5786 C.ar    
  25 C25           -2.1115    -7.8835     4.9993 C.ar    
  26 C26           -1.0406    -7.6394     4.1600 C.ar    
  27 C27           -1.2563    -7.1171     2.8984 C.ar    
  28 C28            0.1019    -2.9682    -0.2328 C.2     
  29 C29            0.5812    -3.3647    -1.5742 C.ar    
  30 C30            1.8002    -4.0308    -1.7143 C.ar    
  31 C31            2.2420    -4.3980    -2.9678 C.ar    
  32 C32            1.4790    -4.1073    -4.0868 C.ar    
  33 C33            0.2688    -3.4466    -3.9541 C.ar    
  34 C34           -0.1862    -3.0794    -2.7052 C.ar    
  35 O35            0.7175    -3.3117     0.7596 O.2     
  36 Cl36           2.0420    -4.5722    -5.6617 Cl      
  37 H37            2.8738     1.8547     2.4775 H       
  38 H38            4.5967     3.0984     1.2289 H       
  39 H39            4.5452     3.1671    -1.2244 H       
  40 H40            2.7691     1.9944    -2.4673 H       
  41 H41           -5.1687    -2.2581     1.1586 H       
  42 H42           -5.4289    -1.2654    -0.2957 H       
  43 H43           -5.0835    -3.0042    -0.4552 H       
  44 H44           -3.6994    -4.3514    -0.6421 H       
  45 H45           -1.9539    -4.6761    -0.7685 H       
  46 H46           -4.8043    -4.5184     1.4689 H       
  47 H47           -3.8519    -4.7267     2.9582 H       
  48 H48           -3.7775    -3.1908     2.0616 H       
  49 H49           -3.7509    -6.5796     0.7389 H       
  50 H50           -1.9985    -6.6067     0.4281 H       
  51 H51           -4.6180    -6.8551     2.9899 H       
  52 H52           -4.2344    -7.7924     5.2344 H       
  53 H53           -1.9432    -8.2941     5.9840 H       
  54 H54           -0.0357    -7.8593     4.4888 H       
  55 H55           -0.4199    -6.9298     2.2412 H       
  56 H56            2.3961    -4.2578    -0.8426 H       
  57 H57            3.1849    -4.9131    -3.0775 H       
  58 H58           -0.3216    -3.2222    -4.8302 H       
  59 H59           -1.1320    -2.5683    -2.6026 H       
@<TRIPOS>BOND
   1    1    2 am
   2    1    9 1
   3    1   10 2
   4    2    3 am
   5    2   12 1
   6    3    4 1
   7    3   11 2
   8    4    5 ar
   9    4    9 ar
  10    5    6 ar
  11    5   37 1
  12    6    7 ar
  13    6   38 1
  14    7    8 ar
  15    7   39 1
  16    8    9 ar
  17    8   40 1
  18   12   13 2
  19   12   16 1
  20   13   14 1
  21   13   28 1
  22   14   15 2
  23   14   18 1
  24   15   16 1
  25   15   17 1
  26   17   41 1
  27   17   42 1
  28   17   43 1
  29   18   19 1
  30   18   44 1
  31   18   45 1
  32   19   20 1
  33   19   21 1
  34   20   46 1
  35   20   47 1
  36   20   48 1
  37   21   22 1
  38   21   49 1
  39   21   50 1
  40   22   23 ar
  41   22   27 ar
  42   23   24 ar
  43   23   51 1
  44   24   25 ar
  45   24   52 1
  46   25   26 ar
  47   25   53 1
  48   26   27 ar
  49   26   54 1
  50   27   55 1
  51   28   29 1
  52   28   35 2
  53   29   30 ar
  54   29   34 ar
  55   30   31 ar
  56   30   56 1
  57   31   32 ar
  58   31   57 1
  59   32   33 ar
  60   32   36 1
  61   33   34 ar
  62   33   58 1
  63   34   59 1

#	End of record

