#	Name: ASD01190105
#	Creating user name:	WinNT
#	Creation time:	15. 06. 2019 19:07

#	Modifying user name:	WinNT
#	Modification time:	15. 06. 2019 19:07

#	Program:	/corina/corina34_cracker 3.40 0067  02.08.2006

@<TRIPOS>MOLECULE
ASD01190105
  48   51    0    0    0
SMALL
NO_CHARGES


@<TRIPOS>ATOM
   1 C1             5.8673     2.1677     5.4492 C.2     
   2 C2             6.7499     1.6711     4.3332 C.3     
   3 O3             4.9196     1.5045     5.8137 O.2     
   4 N4             6.1343     3.3464     6.0458 N.am    
   5 N5             6.2568     0.3751     3.8605 N.pl3   
   6 C6             6.4831    -0.8391     4.4664 C.2     
   7 C7             5.8516    -1.8045     3.7117 C.2     
   8 C8             5.2383    -1.1507     2.6368 C.2     
   9 C9             5.4954     0.1730     2.7548 C.2     
  10 C10            4.4302    -1.8038     1.5452 C.3     
  11 C11            3.3728    -2.7163     2.1698 C.3     
  12 O12            3.7873    -0.7969     0.7611 O.3     
  13 N13            7.9140    -4.9777    -1.5206 N.pl3   
  14 N14            8.4610    -5.7525    -0.4925 N.2     
  15 C15            7.9431    -5.4074     0.6523 C.2     
  16 C16            6.9850    -4.3348     0.4039 C.ar    
  17 C17            6.1388    -3.5779     1.2219 C.ar    
  18 C18            5.3416    -2.6200     0.6653 C.ar    
  19 C19            5.3621    -2.3906    -0.7050 C.ar    
  20 C20            6.1794    -3.1170    -1.5240 C.ar    
  21 C21            7.0041    -4.1005    -0.9847 C.ar    
  22 C22            8.2459    -5.0766    -2.8780 C.ar    
  23 C23            9.5481    -5.3775    -3.2553 C.ar    
  24 C24            9.8731    -5.4746    -4.5939 C.ar    
  25 C25            8.9016    -5.2721    -5.5599 C.ar    
  26 C26            7.6025    -4.9720    -5.1857 C.ar    
  27 C27            7.2719    -4.8796    -3.8481 C.ar    
  28 F28            9.2218    -5.3671    -6.8689 F       
  29 F29            2.5267    -1.9586     2.9867 F       
  30 F30            2.6226    -3.3226     1.1565 F       
  31 F31            4.0022    -3.7020     2.9375 F       
  32 C32            7.2382    -1.0600     5.6629 C.1     
  33 N33            7.8372    -1.2353     6.6122 N.1     
  34 H34            6.7346     2.3873     3.5117 H       
  35 H35            7.7706     1.5599     4.6993 H       
  36 H36            6.8946     3.8750     5.7569 H       
  37 H37            5.5662     3.6661     6.7641 H       
  38 H38            5.8338    -2.8656     3.9118 H       
  39 H39            5.1533     0.9423     2.0783 H       
  40 H40            4.3985    -0.1810     0.3341 H       
  41 H41            8.1803    -5.8386     1.6136 H       
  42 H42            6.1165    -3.7508     2.2878 H       
  43 H43            4.7238    -1.6288    -1.1279 H       
  44 H44            6.1855    -2.9290    -2.5875 H       
  45 H45           10.3061    -5.5351    -2.5023 H       
  46 H46           10.8858    -5.7082    -4.8878 H       
  47 H47            6.8464    -4.8141    -5.9406 H       
  48 H48            6.2576    -4.6503    -3.5566 H       
@<TRIPOS>BOND
   1    1    2 1
   2    1    3 2
   3    1    4 am
   4    2    5 1
   5    2   34 1
   6    2   35 1
   7    4   36 1
   8    4   37 1
   9    5    6 1
  10    5    9 1
  11    6    7 2
  12    6   32 1
  13    7    8 1
  14    7   38 1
  15    8    9 2
  16    8   10 1
  17    9   39 1
  18   10   11 1
  19   10   12 1
  20   10   18 1
  21   11   29 1
  22   11   30 1
  23   11   31 1
  24   12   40 1
  25   13   14 1
  26   13   21 1
  27   13   22 1
  28   14   15 2
  29   15   16 1
  30   15   41 1
  31   16   17 ar
  32   16   21 ar
  33   17   18 ar
  34   17   42 1
  35   18   19 ar
  36   19   20 ar
  37   19   43 1
  38   20   21 ar
  39   20   44 1
  40   22   23 ar
  41   22   27 ar
  42   23   24 ar
  43   23   45 1
  44   24   25 ar
  45   24   46 1
  46   25   26 ar
  47   25   28 1
  48   26   27 ar
  49   26   47 1
  50   27   48 1
  51   32   33 3

#	End of record

