#	Name: ASD01812567
#	Creating user name:	WinNT
#	Creation time:	15. 06. 2019 19:28

#	Modifying user name:	WinNT
#	Modification time:	15. 06. 2019 19:28

#	Program:	/corina/corina34_cracker 3.40 0067  02.08.2006

@<TRIPOS>MOLECULE
ASD01812567
  60   64    0    0    0
SMALL
NO_CHARGES


@<TRIPOS>ATOM
   1 C1            -0.0179     1.4668     0.0101 C.3     
   2 N2             0.0021    -0.0041     0.0020 N.3     
   3 C3            -1.3485    -0.5406    -0.2060 C.3     
   4 N4            -2.1424    -0.5874     1.0253 N.am    
   5 C5            -3.5903    -0.3704     0.9708 C.3     
   6 H6            -3.8921    -0.1910    -0.0611 H       
   7 C7            -4.3121    -1.6091     1.5053 C.3     
   8 C8            -5.8241    -1.3825     1.4483 C.3     
   9 C9            -6.1906    -0.1691     2.3053 C.3     
  10 C10           -5.4688     1.0695     1.7707 C.3     
  11 C11           -3.9568     0.8429     1.8277 C.3     
  12 H12           -3.6549     0.6635     2.8596 H       
  13 O13           -3.2826     1.9998     1.3285 O.3     
  14 C14           -1.5313    -0.8294     2.2059 C.2     
  15 O15           -2.1785    -0.9864     3.2247 O.2     
  16 C16           -0.0585    -0.8788     2.2419 C.ar    
  17 C17            0.6141    -1.2984     3.4019 C.ar    
  18 C18            1.9703    -1.3622     3.4401 C.ar    
  19 C19            2.6393    -1.8059     4.7155 C.3     
  20 C20            3.0238    -0.5965     5.5281 C.ar    
  21 C21            4.2633    -0.0000     5.3555 C.ar    
  22 C22            4.5739     1.1112     6.1248 C.ar    
  23 C23            3.6443     1.5837     7.0314 C.ar    
  24 C24            3.9709     2.7909     7.8723 C.3     
  25 N25            2.4743     0.9907     7.1690 N.ar    
  26 C26            2.1430    -0.0643     6.4509 C.ar    
  27 C27            2.7333    -1.0271     2.3054 C.ar    
  28 C28            4.1349    -1.0775     2.3154 C.ar    
  29 C29            4.8353    -0.7972     1.1798 C.ar    
  30 C30            4.1796    -0.4490     0.0028 C.ar    
  31 C31            2.8208    -0.3614    -0.0414 C.ar    
  32 C32            2.0696    -0.6233     1.1163 C.ar    
  33 C33            0.6646    -0.4928     1.1107 C.ar    
  34 H34            1.0047     1.8441     0.0024 H       
  35 H35           -0.5451     1.8279    -0.8730 H       
  36 H36           -0.5281     1.8183     0.9069 H       
  37 H37           -1.8721     0.0807    -0.9329 H       
  38 H38           -1.2645    -1.5528    -0.6070 H       
  39 H39           -4.0510    -2.4735     0.8948 H       
  40 H40           -4.0102    -1.7885     2.5372 H       
  41 H41           -6.1260    -1.2030     0.4165 H       
  42 H42           -6.3384    -2.2649     1.8291 H       
  43 H43           -7.2678    -0.0077     2.2647 H       
  44 H44           -5.8887    -0.3485     3.3371 H       
  45 H45           -5.7707     1.2489     0.7388 H       
  46 H46           -5.7299     1.9340     2.3812 H       
  47 H47           -3.4688     2.8084     1.8249 H       
  48 H48            0.0434    -1.5713     4.2789 H       
  49 H49            1.9510    -2.4259     5.2901 H       
  50 H50            3.5331    -2.3817     4.4756 H       
  51 H51            4.9703    -0.3917     4.6392 H       
  52 H52            5.5304     1.6009     6.0169 H       
  53 H53            3.6540     3.6938     7.3503 H       
  54 H54            3.4492     2.7208     8.8267 H       
  55 H55            5.0459     2.8312     8.0480 H       
  56 H56            1.1738    -0.5207     6.5885 H       
  57 H57            4.6829    -1.3327     3.2100 H       
  58 H58            5.9136    -0.8503     1.1984 H       
  59 H59            4.7564    -0.2498    -0.8868 H       
  60 H60            2.3204    -0.1021    -0.9614 H       
@<TRIPOS>BOND
   1    1    2 1
   2    1   34 1
   3    1   35 1
   4    1   36 1
   5    2   33 1
   6    2    3 1
   7    3    4 1
   8    3   37 1
   9    3   38 1
  10    4    5 1
  11    4   14 am
  12    5    6 1
  13    5   11 1
  14    5    7 1
  15    7    8 1
  16    7   39 1
  17    7   40 1
  18    8    9 1
  19    8   41 1
  20    8   42 1
  21    9   10 1
  22    9   43 1
  23    9   44 1
  24   10   11 1
  25   10   45 1
  26   10   46 1
  27   11   12 1
  28   11   13 1
  29   13   47 1
  30   14   15 2
  31   14   16 1
  32   16   33 ar
  33   16   17 ar
  34   17   18 ar
  35   17   48 1
  36   18   19 1
  37   18   27 ar
  38   19   20 1
  39   19   49 1
  40   19   50 1
  41   20   26 ar
  42   20   21 ar
  43   21   22 ar
  44   21   51 1
  45   22   23 ar
  46   22   52 1
  47   23   24 1
  48   23   25 ar
  49   24   53 1
  50   24   54 1
  51   24   55 1
  52   25   26 ar
  53   26   56 1
  54   27   32 ar
  55   27   28 ar
  56   28   29 ar
  57   28   57 1
  58   29   30 ar
  59   29   58 1
  60   30   31 ar
  61   30   59 1
  62   31   32 ar
  63   31   60 1
  64   32   33 ar

#	End of record

