#	Name: ASD01140220
#	Creating user name:	WinNT
#	Creation time:	15. 06. 2019 19:00

#	Modifying user name:	WinNT
#	Modification time:	15. 06. 2019 19:00

#	Program:	/corina/corina34_cracker 3.40 0067  02.08.2006

@<TRIPOS>MOLECULE
ASD01140220
  34   37    0    0    0
SMALL
NO_CHARGES


@<TRIPOS>ATOM
   1 C1            -0.1357     1.9312     0.3693 C.2     
   2 C2            -0.3285     0.6012     0.5716 C.2     
   3 C3             2.0847     1.2774     0.3046 C.2     
   4 C4             1.1801     2.3199     0.2040 C.2     
   5 C5             3.5422     1.3959     0.2249 C.2     
   6 N6             4.2006     2.1831    -0.5692 N.2     
   7 C7             3.5340     3.0105    -1.5774 C.3     
   8 C8             2.6130     3.9828    -0.8880 C.2     
   9 N9             1.5710     3.6431    -0.0889 N.pl3   
  10 C10            1.0148     4.8012     0.3365 C.2     
  11 N11            2.6516     5.2843    -0.9329 N.2     
  12 N12            1.7059     5.7719    -0.2062 N.2     
  13 C13           -1.6016    -0.0260     0.7623 C.1     
  14 C14           -2.6454    -0.5401     0.9187 C.1     
  15 C15           -0.1705     4.9456     1.2560 C.3     
  16 C16            4.3383     0.5383     1.1351 C.ar    
  17 C17            3.7649     0.0347     2.3019 C.ar    
  18 C18            4.5109    -0.7630     3.1454 C.ar    
  19 C19            5.8253    -1.0628     2.8354 C.ar    
  20 C20            6.3998    -0.5656     1.6793 C.ar    
  21 C21            5.6616     0.2276     0.8248 C.ar    
  22 S22            1.2158    -0.2333     0.5636 S.3     
  23 H23           -0.9544     2.6348     0.3355 H       
  24 H24            4.2814     3.5599    -2.1498 H       
  25 H25            2.9562     2.3737    -2.2473 H       
  26 H26           -3.5789    -1.0000     1.0586 H       
  27 H27            0.1636     4.8846     2.2917 H       
  28 H28           -0.6480     5.9103     1.0844 H       
  29 H29           -0.8843     4.1463     1.0568 H       
  30 H30            2.7391     0.2687     2.5453 H       
  31 H31            4.0678    -1.1537     4.0495 H       
  32 H32            6.4054    -1.6873     3.4987 H       
  33 H33            7.4265    -0.8027     1.4425 H       
  34 H34            6.1110     0.6150    -0.0776 H       
@<TRIPOS>BOND
   1    1    2 2
   2    1    4 1
   3    1   23 1
   4    2   13 1
   5    2   22 1
   6    3    4 2
   7    3    5 1
   8    3   22 1
   9    4    9 1
  10    5    6 2
  11    5   16 1
  12    6    7 1
  13    7    8 1
  14    7   24 1
  15    7   25 1
  16    8    9 1
  17    8   11 2
  18    9   10 1
  19   10   15 1
  20   10   12 2
  21   11   12 1
  22   13   14 3
  23   14   26 1
  24   15   27 1
  25   15   28 1
  26   15   29 1
  27   16   17 ar
  28   16   21 ar
  29   17   18 ar
  30   17   30 1
  31   18   19 ar
  32   18   31 1
  33   19   20 ar
  34   19   32 1
  35   20   21 ar
  36   20   33 1
  37   21   34 1

#	End of record

