#	Name: ASD01901276
#	Creating user name:	WinNT
#	Creation time:	15. 06. 2019 19:53

#	Modifying user name:	WinNT
#	Modification time:	15. 06. 2019 19:53

#	Program:	/corina/corina34_cracker 3.40 0067  02.08.2006

@<TRIPOS>MOLECULE
ASD01901276
  48   51    0    0    0
SMALL
NO_CHARGES


@<TRIPOS>ATOM
   1 C1             1.3804     1.3598     0.6365 C.ar    
   2 C2             1.4474    -0.0162     0.5710 C.ar    
   3 C3             1.5139    -0.6514    -0.6566 C.ar    
   4 C4             1.5137     0.0875    -1.8266 C.ar    
   5 C5             1.4476     1.4642    -1.7768 C.ar    
   6 C6             1.3797     2.1127    -0.5408 C.ar    
   7 C7             1.3104     3.5418    -0.4809 C.1     
   8 C8             1.2535     4.7134    -0.4318 C.1     
   9 C9             1.1841     6.1424    -0.3719 C.ar    
  10 N10            1.0586     8.1123     0.9170 N.ar    
  11 C11            1.1224     6.7982     0.8595 C.ar    
  12 C12            1.1830     6.9055    -1.5493 C.ar    
  13 C13            1.1152     8.2798    -1.4396 C.ar    
  14 C14            1.0508     8.8592    -0.1762 C.ar    
  15 N15            0.9814    10.2482    -0.0594 N.am    
  16 N16           -0.3668    12.1784     0.0826 N.am    
  17 C17           -0.2194    10.8470    -0.0280 C.2     
  18 C18            2.1239    10.9637     0.0254 C.2     
  19 C19            0.7421    13.0075     0.1704 C.ar    
  20 C20           -1.7113    12.7597     0.1102 C.3     
  21 O21            3.2078    10.4131     0.0008 O.2     
  22 O22           -1.2165    10.1555    -0.1032 O.2     
  23 C23            2.0230    12.4286     0.1479 C.ar    
  24 C24            0.6134    14.3832     0.2853 C.ar    
  25 C25            3.1546    13.2357     0.2407 C.ar    
  26 C26            3.0067    14.6021     0.3543 C.ar    
  27 C27            1.7429    15.1719     0.3769 C.ar    
  28 C28           -2.4453    12.4087    -1.1855 C.3     
  29 C29           -2.4858    12.1969     1.3036 C.3     
  30 H30            1.3241     1.8540     1.5952 H       
  31 H31            1.4484    -0.5993     1.4800 H       
  32 H32            1.5666    -1.7291    -0.7018 H       
  33 H33            1.5658    -0.4150    -2.7812 H       
  34 H34            1.4482     2.0397    -2.6907 H       
  35 H35            1.1267     6.2224     1.7732 H       
  36 H36            1.2342     6.4294    -2.5174 H       
  37 H37            1.1126     8.8987    -2.3247 H       
  38 H38           -1.6369    13.8431     0.2036 H       
  39 H39           -0.3670    14.8358     0.3076 H       
  40 H40            4.1403    12.7947     0.2241 H       
  41 H41            3.8808    15.2323     0.4266 H       
  42 H42            1.6410    16.2434     0.4663 H       
  43 H43           -2.5198    11.3253    -1.2789 H       
  44 H44           -3.4457    12.8412    -1.1650 H       
  45 H45           -1.8935    12.8097    -2.0358 H       
  46 H46           -1.9629    12.4470     2.2267 H       
  47 H47           -3.4862    12.6294     1.3241 H       
  48 H48           -2.5603    11.1135     1.2102 H       
@<TRIPOS>BOND
   1    1    2 ar
   2    1    6 ar
   3    1   30 1
   4    2    3 ar
   5    2   31 1
   6    3    4 ar
   7    3   32 1
   8    4    5 ar
   9    4   33 1
  10    5    6 ar
  11    5   34 1
  12    6    7 1
  13    7    8 3
  14    8    9 1
  15    9   12 ar
  16    9   11 ar
  17   10   11 ar
  18   10   14 ar
  19   11   35 1
  20   12   13 ar
  21   12   36 1
  22   13   14 ar
  23   13   37 1
  24   14   15 1
  25   15   18 am
  26   15   17 am
  27   16   17 am
  28   16   19 1
  29   16   20 1
  30   17   22 2
  31   18   23 1
  32   18   21 2
  33   19   23 ar
  34   19   24 ar
  35   20   28 1
  36   20   29 1
  37   20   38 1
  38   23   25 ar
  39   24   27 ar
  40   24   39 1
  41   25   26 ar
  42   25   40 1
  43   26   27 ar
  44   26   41 1
  45   27   42 1
  46   28   43 1
  47   28   44 1
  48   28   45 1
  49   29   46 1
  50   29   47 1
  51   29   48 1

#	End of record

