#	Name: ASD01948281
#	Creating user name:	WinNT
#	Creation time:	15. 06. 2019 20:14

#	Modifying user name:	WinNT
#	Modification time:	15. 06. 2019 20:14

#	Program:	/corina/corina34_cracker 3.40 0067  02.08.2006

@<TRIPOS>MOLECULE
ASD01948281
  45   47    0    0    0
SMALL
NO_CHARGES


@<TRIPOS>ATOM
   1 C1             1.4559     4.9313    -1.2976 C.ar    
   2 C2             1.9395     4.9363    -2.5941 C.ar    
   3 C3             3.0503     4.1814    -2.9241 C.ar    
   4 C4             3.6815     3.4190    -1.9601 C.ar    
   5 C5             3.2005     3.4109    -0.6580 C.ar    
   6 C6             2.0829     4.1711    -0.3280 C.ar    
   7 N7             4.6420     0.4976    -0.3103 N.am    
   8 C8             4.8828     1.8098    -0.0286 C.2     
   9 N9             3.8374     2.6395     0.3200 N.pl3   
  10 C10            5.6466    -0.3300    -0.6526 C.2     
  11 C11            6.9596     0.1431    -0.7257 C.2     
  12 C12            7.2240     1.4687    -0.4437 C.2     
  13 C13            6.1697     2.3134    -0.0902 C.2     
  14 N14            6.4148     3.6682     0.2011 N.am    
  15 I15            0.9865     6.0897    -4.0605 I       
  16 O16            5.4092    -1.5027    -0.9007 O.2     
  17 F17            1.6115     4.1668     0.9381 F       
  18 C18            3.2734    -0.0194    -0.2335 C.3     
  19 S19            7.9398     4.2897     0.0273 S.o2    
  20 O20            7.8046     5.6568     0.3906 O.2     
  21 O21            8.7646     3.4100     0.7790 O.2     
  22 C22            8.2927     4.1341    -1.7453 C.3     
  23 C23            9.6373     4.6642    -2.2471 C.3     
  24 C24            9.3926     3.1563    -2.1634 C.3     
  25 C25            8.0806    -0.7883    -1.1090 C.3     
  26 C26            8.5746    -1.5306     0.1343 C.3     
  27 H27            0.5908     5.5251    -1.0420 H       
  28 H28            3.4247     4.1875    -3.9371 H       
  29 H29            4.5484     2.8294    -2.2195 H       
  30 H30            3.5439     2.6881     1.2433 H       
  31 H31            8.2340     1.8476    -0.4959 H       
  32 H32            5.6904     4.2379     0.5038 H       
  33 H33            2.7600     0.1703    -1.1761 H       
  34 H34            3.3005    -1.0924    -0.0440 H       
  35 H35            2.7416     0.4794     0.5767 H       
  36 H36            7.4325     4.2373    -2.4067 H       
  37 H37            9.6618     5.1159    -3.2388 H       
  38 H38           10.3099     5.1065    -1.5122 H       
  39 H39            9.9042     2.6064    -1.3734 H       
  40 H40            9.2561     2.6158    -3.1001 H       
  41 H41            7.7194    -1.5088    -1.8428 H       
  42 H42            8.9006    -0.2126    -1.5382 H       
  43 H43            7.7546    -2.1063     0.5635 H       
  44 H44            9.3854    -2.2043    -0.1430 H       
  45 H45            8.9358    -0.8101     0.8681 H       
@<TRIPOS>BOND
   1    1    2 ar
   2    1    6 ar
   3    1   27 1
   4    2    3 ar
   5    2   15 1
   6    3    4 ar
   7    3   28 1
   8    4    5 ar
   9    4   29 1
  10    5    6 ar
  11    5    9 1
  12    6   17 1
  13    7    8 1
  14    7   10 am
  15    7   18 1
  16    8    9 1
  17    8   13 2
  18    9   30 1
  19   10   11 1
  20   10   16 2
  21   11   12 2
  22   11   25 1
  23   12   13 1
  24   12   31 1
  25   13   14 1
  26   14   19 am
  27   14   32 1
  28   18   33 1
  29   18   34 1
  30   18   35 1
  31   19   20 2
  32   19   21 2
  33   19   22 1
  34   22   23 1
  35   22   24 1
  36   22   36 1
  37   23   24 1
  38   23   37 1
  39   23   38 1
  40   24   39 1
  41   24   40 1
  42   25   26 1
  43   25   41 1
  44   25   42 1
  45   26   43 1
  46   26   44 1
  47   26   45 1

#	End of record

