#	Name: ASD01141073
#	Creating user name:	WinNT
#	Creation time:	15. 06. 2019 19:01

#	Modifying user name:	WinNT
#	Modification time:	15. 06. 2019 19:01

#	Program:	/corina/corina34_cracker 3.40 0067  02.08.2006

@<TRIPOS>MOLECULE
ASD01141073
  49   50    0    0    0
SMALL
NO_CHARGES


@<TRIPOS>ATOM
   1 C1             0.6515     1.1829     0.0077 C.2     
   2 C2             0.1859    -0.1718    -0.3067 C.2     
   3 C3             1.4360     1.4283     1.2365 C.ar    
   4 O4             0.3963     2.1042    -0.7454 O.2     
   5 C5             1.1574    -1.2287    -0.6173 C.2     
   6 C6            -1.1669    -0.4540    -0.3107 C.2     
   7 C7             1.6321     0.4000     2.1606 C.ar    
   8 C8             1.9896     2.6885     1.4758 C.ar    
   9 O9             0.7802    -2.3748    -0.7742 O.2     
  10 N10            2.4666    -0.9290    -0.7286 N.am    
  11 N11           -1.5912    -1.7227    -0.4899 N.pl3   
  12 C12            2.3653     0.6353     3.3045 C.ar    
  13 C13            2.7219     2.9098     2.6260 C.ar    
  14 Cl14           1.7585     3.9724     0.3305 Cl      
  15 C15           -2.9513    -2.0268    -0.3813 C.ar    
  16 C16            2.9069     1.8876     3.5386 C.ar    
  17 C17           -3.8680    -1.0232    -0.0946 C.ar    
  18 C18           -3.3894    -3.3321    -0.5655 C.ar    
  19 C19           -5.2111    -1.3264     0.0117 C.ar    
  20 C20           -4.7337    -3.6295    -0.4580 C.ar    
  21 C21           -5.6441    -2.6286    -0.1671 C.ar    
  22 Cl22          -7.3331    -3.0062    -0.0321 Cl      
  23 H23            2.7777    -0.0323    -0.5281 H       
  24 H24           -0.9524    -2.4234    -0.6941 H       
  25 C25            3.4201    -1.9574    -1.1523 C.3     
  26 C26            4.5623    -1.3035    -1.9326 C.3     
  27 C27            3.9850    -2.6677     0.0795 C.3     
  28 C28            2.8622    -3.4252     0.7911 C.3     
  29 C29            4.0069    -0.6554    -3.2024 C.3     
  30 H30           -1.8847     0.3408    -0.1705 H       
  31 H31            1.2101    -0.5776     1.9800 H       
  32 H32            2.5138    -0.1583     4.0217 H       
  33 H33            3.1510     3.8832     2.8128 H       
  34 H34            3.4802     2.0658     4.4364 H       
  35 H35           -3.5306    -0.0068     0.0454 H       
  36 H36           -2.6794    -4.1135    -0.7928 H       
  37 H37           -5.9242    -0.5466     0.2350 H       
  38 H38           -5.0748    -4.6442    -0.6011 H       
  39 H39            2.9133    -2.6824    -1.7892 H       
  40 H40            5.0360    -0.5419    -1.3133 H       
  41 H41            5.2978    -2.0611    -2.2031 H       
  42 H42            4.7586    -3.3706    -0.2294 H       
  43 H43            4.4137    -1.9310     0.7589 H       
  44 H44            2.0886    -2.7222     1.0999 H       
  45 H45            2.4335    -4.1618     0.1116 H       
  46 H46            3.2647    -3.9312     1.6686 H       
  47 H47            3.5332    -1.4171    -3.8217 H       
  48 H48            3.2714     0.1021    -2.9319 H       
  49 H49            4.8206    -0.1896    -3.7583 H       
@<TRIPOS>BOND
   1    1    2 1
   2    1    3 1
   3    1    4 2
   4    2    5 1
   5    2    6 2
   6    3    7 ar
   7    3    8 ar
   8    5   10 am
   9    5    9 2
  10    6   11 1
  11    6   30 1
  12    7   12 ar
  13    7   31 1
  14    8   13 ar
  15    8   14 1
  16   10   23 1
  17   10   25 1
  18   11   24 1
  19   11   15 1
  20   12   16 ar
  21   12   32 1
  22   13   16 ar
  23   13   33 1
  24   15   18 ar
  25   15   17 ar
  26   16   34 1
  27   17   19 ar
  28   17   35 1
  29   18   20 ar
  30   18   36 1
  31   19   21 ar
  32   19   37 1
  33   20   21 ar
  34   20   38 1
  35   21   22 1
  36   25   26 1
  37   25   27 1
  38   25   39 1
  39   26   29 1
  40   26   40 1
  41   26   41 1
  42   27   28 1
  43   27   42 1
  44   27   43 1
  45   28   44 1
  46   28   45 1
  47   28   46 1
  48   29   47 1
  49   29   48 1
  50   29   49 1

#	End of record

