#	Name: ASD01418016
#	Creating user name:	WinNT
#	Creation time:	15. 06. 2019 19:20

#	Modifying user name:	WinNT
#	Modification time:	15. 06. 2019 19:20

#	Program:	/corina/corina34_cracker 3.40 0067  02.08.2006

@<TRIPOS>MOLECULE
ASD01418016
  53   55    0    0    0
SMALL
NO_CHARGES


@<TRIPOS>ATOM
   1 C1             3.9467     4.2175     1.7017 C.2     
   2 C2             2.6333     4.7290     1.5772 C.2     
   3 C3             1.6811     4.0158     0.9497 C.2     
   4 C4             2.0132     2.6641     0.3679 C.3     
   5 C5             3.1703     2.0503     1.1641 C.3     
   6 O6             4.2457     2.9954     1.2100 O.3     
   7 O7             4.8084     4.8807     2.2475 O.2     
   8 O8             0.4311     4.5082     0.8412 O.3     
   9 C9             2.7040     1.7334     2.5864 C.3     
  10 C10            1.4919     0.8014     2.5300 C.3     
  11 C11            1.1101     0.3887     3.9281 C.ar    
  12 C12            0.2040     1.1458     4.6481 C.ar    
  13 C13           -0.1478     0.7688     5.9313 C.ar    
  14 C14            0.4105    -0.3715     6.4959 C.ar    
  15 C15            1.3184    -1.1275     5.7707 C.ar    
  16 C16            1.6619    -0.7490     4.4864 C.ar    
  17 O17            0.0673    -0.7448     7.7573 O.3     
  18 C18            0.5905    -1.9873     8.2311 C.3     
  19 C19            1.9905    -1.7648     8.8069 C.3     
  20 C20           -0.3268    -2.5443     9.3216 C.3     
  21 F21           -1.0326     1.5084     6.6351 F       
  22 C22            3.6429     0.7676     0.4770 C.3     
  23 C23            4.1311     1.0639    -0.9628 C.3     
  24 C24            5.0962    -0.0966    -1.2814 C.3     
  25 C25            5.5958    -0.6365     0.0701 C.3     
  26 C26            4.9169     0.2148     1.1629 C.3     
  27 H27            2.3938     5.6983     1.9890 H       
  28 H28            1.1404     2.0144     0.4331 H       
  29 H29            2.3080     2.7783    -0.6752 H       
  30 H30            0.2667     5.3781     1.2300 H       
  31 H31            3.5114     1.2468     3.1335 H       
  32 H32            2.4278     2.6584     3.0927 H       
  33 H33            0.6552     1.3213     2.0633 H       
  34 H34            1.7413    -0.0839     1.9451 H       
  35 H35           -0.2289     2.0320     4.2081 H       
  36 H36            1.7537    -2.0142     6.2073 H       
  37 H37            2.3659    -1.3406     3.9201 H       
  38 H38            0.6458    -2.6968     7.4055 H       
  39 H39            2.3896    -2.7126     9.1684 H       
  40 H40            2.6440    -1.3680     8.0301 H       
  41 H41            1.9352    -1.0554     9.6326 H       
  42 H42           -1.3242    -2.7029     8.9114 H       
  43 H43            0.0723    -3.4921     9.6830 H       
  44 H44           -0.3821    -1.8349    10.1473 H       
  45 H45            2.8495     0.0202     0.4697 H       
  46 H46            3.2915     1.0636    -1.6579 H       
  47 H47            4.6569     2.0180    -0.9985 H       
  48 H48            4.5701    -0.8811    -1.8254 H       
  49 H49            5.9369     0.2682    -1.8716 H       
  50 H50            5.3122    -1.6830     0.1821 H       
  51 H51            6.6790    -0.5337     0.1359 H       
  52 H52            5.5696     1.0318     1.4704 H       
  53 H53            4.6508    -0.4051     2.0190 H       
@<TRIPOS>BOND
   1    1    2 1
   2    1    6 1
   3    1    7 2
   4    2    3 2
   5    2   27 1
   6    3    4 1
   7    3    8 1
   8    4    5 1
   9    4   28 1
  10    4   29 1
  11    5    6 1
  12    5    9 1
  13    5   22 1
  14    8   30 1
  15    9   10 1
  16    9   31 1
  17    9   32 1
  18   10   11 1
  19   10   33 1
  20   10   34 1
  21   11   12 ar
  22   11   16 ar
  23   12   13 ar
  24   12   35 1
  25   13   14 ar
  26   13   21 1
  27   14   15 ar
  28   14   17 1
  29   15   16 ar
  30   15   36 1
  31   16   37 1
  32   17   18 1
  33   18   19 1
  34   18   20 1
  35   18   38 1
  36   19   39 1
  37   19   40 1
  38   19   41 1
  39   20   42 1
  40   20   43 1
  41   20   44 1
  42   22   23 1
  43   22   26 1
  44   22   45 1
  45   23   24 1
  46   23   46 1
  47   23   47 1
  48   24   25 1
  49   24   48 1
  50   24   49 1
  51   25   26 1
  52   25   50 1
  53   25   51 1
  54   26   52 1
  55   26   53 1

#	End of record

