#	Name: ASD00170309
#	Creating user name:	WinNT
#	Creation time:	15. 06. 2019 18:31

#	Modifying user name:	WinNT
#	Modification time:	15. 06. 2019 18:31

#	Program:	/corina/corina34_cracker 3.40 0067  02.08.2006

@<TRIPOS>MOLECULE
ASD00170309
  32   34    0    0    0
SMALL
NO_CHARGES


@<TRIPOS>ATOM
   1 S1             0.1576     1.6248     0.6732 S.3     
   2 N2            -0.1178     0.3147    -0.3756 N.pl3   
   3 C3             1.1097    -0.1396    -0.7261 C.2     
   4 N4             2.1488     0.4587    -0.2381 N.2     
   5 C5             1.9247     1.4948     0.5869 C.2     
   6 N6             2.8187     2.2473     1.1966 N.2     
   7 C7            -1.3529    -0.1888    -0.7893 C.ar    
   8 C8             1.2587    -1.2899    -1.6424 C.ar    
   9 C9             4.2478     1.9885     1.0042 C.3     
  10 C10           -2.2266     0.6156    -1.5110 C.ar    
  11 C11           -3.4470     0.1143    -1.9184 C.ar    
  12 C12           -3.8005    -1.1864    -1.6087 C.ar    
  13 C13           -2.9337    -1.9897    -0.8903 C.ar    
  14 C14           -1.7088    -1.4973    -0.4853 C.ar    
  15 C15            0.2895    -1.5409    -2.6152 C.ar    
  16 C16            0.4341    -2.6154    -3.4675 C.ar    
  17 C17            1.5379    -3.4449    -3.3595 C.ar    
  18 C18            2.5028    -3.2009    -2.3963 C.ar    
  19 C19            2.3719    -2.1261    -1.5420 C.ar    
  20 Cl20           1.7126    -4.7962    -4.4352 Cl      
  21 H21            4.4822     0.9779     1.3385 H       
  22 H22            4.4960     2.0884    -0.0525 H       
  23 H23            4.8283     2.7066     1.5833 H       
  24 H24           -1.9515     1.6316    -1.7525 H       
  25 H25           -4.1265     0.7389    -2.4793 H       
  26 H26           -4.7558    -1.5757    -1.9284 H       
  27 H27           -3.2131    -3.0048    -0.6499 H       
  28 H28           -1.0322    -2.1252     0.0754 H       
  29 H29           -0.5720    -0.8952    -2.6999 H       
  30 H30           -0.3150    -2.8106    -4.2206 H       
  31 H31            3.3612    -3.8514    -2.3165 H       
  32 H32            3.1251    -1.9366    -0.7915 H       
@<TRIPOS>BOND
   1    1    2 1
   2    1    5 1
   3    2    3 1
   4    2    7 1
   5    3    4 2
   6    3    8 1
   7    4    5 1
   8    5    6 2
   9    6    9 1
  10    7   10 ar
  11    7   14 ar
  12    8   15 ar
  13    8   19 ar
  14    9   21 1
  15    9   22 1
  16    9   23 1
  17   10   11 ar
  18   10   24 1
  19   11   12 ar
  20   11   25 1
  21   12   13 ar
  22   12   26 1
  23   13   14 ar
  24   13   27 1
  25   14   28 1
  26   15   16 ar
  27   15   29 1
  28   16   17 ar
  29   16   30 1
  30   17   18 ar
  31   17   20 1
  32   18   19 ar
  33   18   31 1
  34   19   32 1

#	End of record

