#	Name: ASD01820001
#	Creating user name:	WinNT
#	Creation time:	15. 06. 2019 19:36

#	Modifying user name:	WinNT
#	Modification time:	15. 06. 2019 19:36

#	Program:	/corina/corina34_cracker 3.40 0067  02.08.2006

@<TRIPOS>MOLECULE
ASD01820001
  56   60    0    0    0
SMALL
NO_CHARGES


@<TRIPOS>ATOM
   1 C1            -0.0167     1.3809     0.0096 C.ar    
   2 C2             0.0021    -0.0041     0.0020 C.ar    
   3 C3             1.1823    -0.7276    -0.0126 C.ar    
   4 C4             2.3691     0.0030    -0.0194 C.ar    
   5 C5             2.3432     1.4194    -0.0124 C.ar    
   6 C6             1.1370     2.1260     0.0026 C.ar    
   7 N7             3.6796    -0.3820    -0.0318 N.pl3   
   8 C8             4.4862     0.7341    -0.0352 C.2     
   9 C9             3.7303     1.8486    -0.0241 C.2     
  10 C10            4.2291     3.2706    -0.0234 C.3     
  11 N11            4.3784     3.7378    -1.4081 N.3     
  12 C12            4.1766    -1.7656    -0.0394 C.3     
  13 C13            5.6466    -1.7597     0.3052 C.2     
  14 N14            6.4533    -0.6437     0.2983 N.pl3   
  15 C15            5.9957     0.7098    -0.0480 C.3     
  16 C16            6.3622    -2.8424     0.6650 C.2     
  17 C17            7.7211    -2.3912     0.9065 C.ar    
  18 C18            7.7224    -0.9961     0.6602 C.ar    
  19 C19            8.8830    -3.0622     1.2993 C.ar    
  20 C20           10.0202    -2.3039     1.4336 C.ar    
  21 C21           10.0276    -0.9397     1.1941 C.ar    
  22 C22            8.8915    -0.2514     0.8045 C.ar    
  23 C23            5.8499    -4.2538     0.7935 C.3     
  24 N24            5.9965    -4.9470    -0.4934 N.3     
  25 C25            3.0739     3.8254    -2.0777 C.3     
  26 C26            5.0823     5.0263    -1.4559 C.3     
  27 C27            7.4135    -5.1198    -0.8398 C.3     
  28 C28            5.2969    -6.2386    -0.4783 C.3     
  29 H29           -0.9686     1.8910     0.0169 H       
  30 H30           -0.9366    -0.5381     0.0080 H       
  31 H31            1.1832    -1.8076    -0.0181 H       
  32 H32            1.1135     3.2058     0.0080 H       
  33 H33            3.5143     3.9062     0.4994 H       
  34 H34            5.1939     3.3170     0.4818 H       
  35 H35            3.6311    -2.3534     0.6988 H       
  36 H36            4.0356    -2.1986    -1.0297 H       
  37 H37            6.3569     0.9741    -1.0419 H       
  38 H38            6.3783     1.4225     0.6826 H       
  39 H39            8.8861    -4.1255     1.4883 H       
  40 H40           10.9378    -2.7866     1.7360 H       
  41 H41           10.9517    -0.3940     1.3157 H       
  42 H42            8.9103     0.8127     0.6205 H       
  43 H43            6.4226    -4.7802     1.5570 H       
  44 H44            4.7978    -4.2339     1.0777 H       
  45 H45            2.4355     4.5260    -1.5394 H       
  46 H46            3.2135     4.1737    -3.1011 H       
  47 H47            2.6047     2.8416    -2.0895 H       
  48 H48            6.0733     4.9156    -1.0156 H       
  49 H49            5.1793     5.3491    -2.4925 H       
  50 H50            4.5167     5.7704    -0.8951 H       
  51 H51            7.9072    -5.7091    -0.0671 H       
  52 H52            7.4933    -5.6355    -1.7968 H       
  53 H53            7.8915    -4.1429    -0.9126 H       
  54 H54            4.2361    -6.0751    -0.2883 H       
  55 H55            5.4216    -6.7306    -1.4429 H       
  56 H56            5.7139    -6.8685     0.3075 H       
@<TRIPOS>BOND
   1    1    2 ar
   2    1    6 ar
   3    1   29 1
   4    2    3 ar
   5    2   30 1
   6    3    4 ar
   7    3   31 1
   8    4    5 ar
   9    4    7 1
  10    5    6 ar
  11    5    9 1
  12    6   32 1
  13    7    8 1
  14    7   12 1
  15    8    9 2
  16    8   15 1
  17    9   10 1
  18   10   11 1
  19   10   33 1
  20   10   34 1
  21   11   25 1
  22   11   26 1
  23   12   13 1
  24   12   35 1
  25   12   36 1
  26   13   14 1
  27   13   16 2
  28   14   15 1
  29   14   18 1
  30   15   37 1
  31   15   38 1
  32   16   17 1
  33   16   23 1
  34   17   18 ar
  35   17   19 ar
  36   18   22 ar
  37   19   20 ar
  38   19   39 1
  39   20   21 ar
  40   20   40 1
  41   21   22 ar
  42   21   41 1
  43   22   42 1
  44   23   24 1
  45   23   43 1
  46   23   44 1
  47   24   27 1
  48   24   28 1
  49   25   45 1
  50   25   46 1
  51   25   47 1
  52   26   48 1
  53   26   49 1
  54   26   50 1
  55   27   51 1
  56   27   52 1
  57   27   53 1
  58   28   54 1
  59   28   55 1
  60   28   56 1

#	End of record

