#	Name: ASD05303022
#	Creating user name:	WinNT
#	Creation time:	15. 06. 2019 20:58

#	Modifying user name:	WinNT
#	Modification time:	15. 06. 2019 20:58

#	Program:	/corina/corina34_cracker 3.40 0067  02.08.2006

@<TRIPOS>MOLECULE
ASD05303022
  41   44    0    0    0
SMALL
NO_CHARGES


@<TRIPOS>ATOM
   1 C1            -0.0156     1.3799     0.0002 C.ar    
   2 C2             0.0024    -0.0020    -0.0076 C.ar    
   3 C3             1.2093    -0.6791    -0.0177 C.ar    
   4 C4             2.3967     0.0310    -0.0202 C.ar    
   5 C5             2.3824     1.4242    -0.0158 C.ar    
   6 C6             1.1689     2.0939    -0.0040 C.ar    
   7 O7             3.5446     2.1253    -0.0266 O.3     
   8 N8             3.6321    -0.6426    -0.0220 N.am    
   9 C9             4.7121     1.4983     0.2671 C.ar    
  10 C10            4.7855     0.1071     0.2743 C.ar    
  11 C11            5.9790    -0.5273     0.5704 C.ar    
  12 C12            7.1038     0.2241     0.8627 C.ar    
  13 C13            7.0340     1.6044     0.8588 C.ar    
  14 C14            5.8434     2.2427     0.5623 C.ar    
  15 C15            3.7080    -1.9597    -0.2973 C.2     
  16 O16            4.7927    -2.5006    -0.3854 O.2     
  17 O17            2.5817    -2.6765    -0.4749 O.3     
  18 C18            2.7392    -4.0898    -0.7686 C.3     
  19 C19            1.3816    -4.7228    -0.9341 C.ar    
  20 C20            0.7868    -4.7666    -2.1811 C.ar    
  21 C21           -0.4585    -5.3472    -2.3329 C.ar    
  22 C22           -1.1088    -5.8844    -1.2376 C.ar    
  23 C23           -0.5136    -5.8413     0.0093 C.ar    
  24 C24            0.7336    -5.2646     0.1602 C.ar    
  25 N25           -2.4427    -6.5052    -1.4000 N.pl3   
  26 O26           -2.9673    -6.5428    -2.4985 O.2     
  27 O27           -3.0156    -6.9785    -0.4350 O.2     
  28 H28           -0.9594     1.9049     0.0050 H       
  29 H29           -0.9260    -0.5539    -0.0054 H       
  30 H30            1.2242    -1.7590    -0.0233 H       
  31 H31            1.1483     3.1737     0.0012 H       
  32 H32            6.0325    -1.6060     0.5736 H       
  33 H33            8.0366    -0.2685     1.0944 H       
  34 H34            7.9136     2.1875     1.0884 H       
  35 H35            5.7952     3.3217     0.5607 H       
  36 H36            3.3099    -4.2081    -1.6897 H       
  37 H37            3.2686    -4.5746     0.0517 H       
  38 H38            1.2948    -4.3470    -3.0368 H       
  39 H39           -0.9236    -5.3809    -3.3070 H       
  40 H40           -1.0218    -6.2607     0.8650 H       
  41 H41            1.1987    -5.2310     1.1344 H       
@<TRIPOS>BOND
   1    1    2 ar
   2    1    6 ar
   3    1   28 1
   4    2    3 ar
   5    2   29 1
   6    3    4 ar
   7    3   30 1
   8    4    5 ar
   9    4    8 1
  10    5    6 ar
  11    5    7 1
  12    6   31 1
  13    7    9 1
  14    8   10 1
  15    8   15 am
  16    9   10 ar
  17    9   14 ar
  18   10   11 ar
  19   11   12 ar
  20   11   32 1
  21   12   13 ar
  22   12   33 1
  23   13   14 ar
  24   13   34 1
  25   14   35 1
  26   15   16 2
  27   15   17 1
  28   17   18 1
  29   18   19 1
  30   18   36 1
  31   18   37 1
  32   19   20 ar
  33   19   24 ar
  34   20   21 ar
  35   20   38 1
  36   21   22 ar
  37   21   39 1
  38   22   23 ar
  39   22   25 1
  40   23   24 ar
  41   23   40 1
  42   24   41 1
  43   25   26 2
  44   25   27 2

#	End of record

