#	Name: ASD01914173
#	Creating user name:	WinNT
#	Creation time:	15. 06. 2019 20:03

#	Modifying user name:	WinNT
#	Modification time:	15. 06. 2019 20:03

#	Program:	/corina/corina34_cracker 3.40 0067  02.08.2006

@<TRIPOS>MOLECULE
ASD01914173
  48   51    0    0    0
SMALL
NO_CHARGES


@<TRIPOS>ATOM
   1 C1             0.9582     1.6830     0.2342 C.ar    
   2 C2             0.8106     0.2146     0.2108 C.2     
   3 N3             1.7840    -0.6759     0.1242 N.2     
   4 C4             1.1782    -1.8732     0.1389 C.2     
   5 N5            -0.1022    -1.6659     0.2313 N.2     
   6 O6            -0.3378    -0.4771     0.2791 O.3     
   7 C7             1.8588    -3.2156     0.0616 C.3     
   8 C8             1.5339    -4.0262     1.3183 C.3     
   9 C9             2.2511    -5.3767     1.2559 C.3     
  10 C10            1.7550    -6.1579     0.0351 C.3     
  11 N11            1.9310    -5.3252    -1.1626 N.am    
  12 C12            1.3583    -3.9722    -1.1728 C.3     
  13 C13            2.6051    -5.7936    -2.2316 C.2     
  14 C14            2.6634    -4.9978    -3.4748 C.ar    
  15 O15            3.1651    -6.8710    -2.1727 O.2     
  16 C16            1.5817    -3.6019    -5.1025 C.ar    
  17 C17            3.9076    -4.1591    -5.3501 C.ar    
  18 C18            3.8588    -4.9026    -4.1904 C.ar    
  19 C19            1.5219    -4.3427    -3.9417 C.ar    
  20 C20            0.2735    -6.4972     0.2106 C.3     
  21 C21            2.7725    -3.5064    -5.8063 C.ar    
  22 C22            2.2263     2.2622     0.1611 C.ar    
  23 C23            2.3576     3.6347     0.1829 C.ar    
  24 C24            1.2367     4.4419     0.2772 C.ar    
  25 C25           -0.0239     3.8812     0.3502 C.ar    
  26 C26           -0.1741     2.5037     0.3242 C.ar    
  27 F27            2.8257    -2.7793    -6.9437 F       
  28 O28           -1.4120     1.9516     0.3954 O.3     
  29 H29            2.9370    -3.0732    -0.0109 H       
  30 H30            1.8671    -3.4785     2.1999 H       
  31 H31            0.4578    -4.1889     1.3774 H       
  32 H32            3.3257    -5.2145     1.1719 H       
  33 H33            2.0381    -5.9440     2.1620 H       
  34 H34            2.3323    -7.0764    -0.0704 H       
  35 H35            0.2704    -4.0358    -1.1462 H       
  36 H36            1.6738    -3.4486    -2.0752 H       
  37 H37            0.7004    -3.0919    -5.4624 H       
  38 H38            4.8316    -4.0849    -5.9043 H       
  39 H39            4.7436    -5.4104    -3.8357 H       
  40 H40            0.5937    -4.4168    -3.3944 H       
  41 H41           -0.3010    -5.5761     0.3094 H       
  42 H42           -0.0775    -7.0529    -0.6589 H       
  43 H43            0.1434    -7.1043     1.1065 H       
  44 H44            3.1033     1.6362     0.0878 H       
  45 H45            3.3391     4.0819     0.1266 H       
  46 H46            1.3485     5.5160     0.2941 H       
  47 H47           -0.8936     4.5173     0.4236 H       
  48 H48           -1.8319     1.8150    -0.4649 H       
@<TRIPOS>BOND
   1    1    2 1
   2    1   22 ar
   3    1   26 ar
   4    2    3 2
   5    2    6 1
   6    3    4 1
   7    4    5 2
   8    4    7 1
   9    5    6 1
  10    7    8 1
  11    7   12 1
  12    7   29 1
  13    8    9 1
  14    8   30 1
  15    8   31 1
  16    9   10 1
  17    9   32 1
  18    9   33 1
  19   10   11 1
  20   10   20 1
  21   10   34 1
  22   11   12 1
  23   11   13 am
  24   12   35 1
  25   12   36 1
  26   13   14 1
  27   13   15 2
  28   14   19 ar
  29   14   18 ar
  30   16   21 ar
  31   16   19 ar
  32   16   37 1
  33   17   18 ar
  34   17   21 ar
  35   17   38 1
  36   18   39 1
  37   19   40 1
  38   20   41 1
  39   20   42 1
  40   20   43 1
  41   21   27 1
  42   22   23 ar
  43   22   44 1
  44   23   24 ar
  45   23   45 1
  46   24   25 ar
  47   24   46 1
  48   25   26 ar
  49   25   47 1
  50   26   28 1
  51   28   48 1

#	End of record

