#	Name: ASD00840095
#	Creating user name:	WinNT
#	Creation time:	15. 06. 2019 18:37

#	Modifying user name:	WinNT
#	Modification time:	15. 06. 2019 18:37

#	Program:	/corina/corina34_cracker 3.40 0067  02.08.2006

@<TRIPOS>MOLECULE
ASD00840095
  21   22    0    0    0
SMALL
NO_CHARGES


@<TRIPOS>ATOM
   1 C1            -0.0167     1.3776     0.0096 C.ar    
   2 C2             0.0021    -0.0041     0.0020 C.ar    
   3 N3             1.1443    -0.6632    -0.0120 N.ar    
   4 C4             2.3054    -0.0383    -0.0197 C.ar    
   5 C5             2.3651     1.3426    -0.0133 C.ar    
   6 C6             1.1850     2.0698     0.0019 C.ar    
   7 C7             3.6964     2.0488    -0.0217 C.3     
   8 N8             4.1154     2.2846    -1.4056 N.pl3   
   9 C9             3.8314     3.3886    -2.1633 C.2     
  10 C10            4.4058     3.1942    -3.3657 C.2     
  11 N11            5.0236     2.0038    -3.3429 N.2     
  12 C12            4.8588     1.4559    -2.1700 C.2     
  13 H13           -0.9553     1.9117     0.0170 H       
  14 H14           -0.9295    -0.5505     0.0080 H       
  15 H15            3.2203    -0.6121    -0.0308 H       
  16 H16            1.2010     3.1496     0.0072 H       
  17 H17            3.6050     3.0027     0.4978 H       
  18 H18            4.4390     1.4303     0.4824 H       
  19 H19            3.2567     4.2499    -1.8561 H       
  20 H20            4.3744     3.8770    -4.2019 H       
  21 H21            5.2465     0.4955    -1.8638 H       
@<TRIPOS>BOND
   1    1    2 ar
   2    1    6 ar
   3    1   13 1
   4    2    3 ar
   5    2   14 1
   6    3    4 ar
   7    4    5 ar
   8    4   15 1
   9    5    6 ar
  10    5    7 1
  11    6   16 1
  12    7    8 1
  13    7   17 1
  14    7   18 1
  15    8    9 1
  16    8   12 1
  17    9   10 2
  18    9   19 1
  19   10   11 1
  20   10   20 1
  21   11   12 2
  22   12   21 1

#	End of record

