#	Name: ASD09250001
#	Creating user name:	WinNT
#	Creation time:	15. 06. 2019 21:21

#	Modifying user name:	WinNT
#	Modification time:	15. 06. 2019 21:21

#	Program:	/corina/corina34_cracker 3.40 0067  02.08.2006

@<TRIPOS>MOLECULE
ASD09250001
  57   56    0    0    0
SMALL
NO_CHARGES


@<TRIPOS>ATOM
   1 O1            -0.0161     1.3381     0.0094 O.3     
   2 C2             0.0021    -0.0041     0.0020 C.2     
   3 C3            -1.2926    -0.7753     0.0102 C.3     
   4 C4            -0.9927    -2.2755    -0.0007 C.3     
   5 C5            -2.3072    -3.0585     0.0077 C.3     
   6 C6            -2.0072    -4.5588    -0.0033 C.3     
   7 C7            -3.3151    -5.3413     0.1308 C.3     
   8 C8            -3.0197    -6.8190     0.1200 C.2     
   9 C9            -3.4459    -7.5920     1.1209 C.2     
  10 C10           -3.1592    -9.0262     1.1105 C.2     
  11 C11           -3.5917    -9.8106     2.1260 C.2     
  12 C12           -3.3148   -11.1959     2.1160 C.2     
  13 C13           -3.7473   -11.9803     3.1315 C.2     
  14 O14            1.0565    -0.5939    -0.0112 O.2     
  15 C15           -4.5012   -11.3933     4.2389 C.2     
  16 C16           -4.9275   -12.1663     5.2398 C.2     
  17 C17           -5.7043   -11.5614     6.3808 C.3     
  18 C18           -7.0351   -12.2993     6.5395 C.3     
  19 C19           -7.7682   -11.7693     7.7734 C.3     
  20 C20           -9.0991   -12.5072     7.9321 C.3     
  21 C21           -9.8322   -11.9771     9.1660 C.3     
  22 C22          -11.1630   -12.7150     9.3247 C.3     
  23 O23           -5.9545   -10.1812     6.1079 O.3     
  24 O24           -1.3672    -4.9076    -1.2324 O.3     
  25 O25           -3.9551    -4.9924     1.3599 O.3     
  26 H26            0.8394     1.7888     0.0037 H       
  27 H27           -1.8592    -0.5245     0.9070 H       
  28 H28           -1.8762    -0.5150    -0.8728 H       
  29 H29           -0.4261    -2.5263    -0.8975 H       
  30 H30           -0.4091    -2.5358     0.8824 H       
  31 H31           -2.8737    -2.8077     0.9045 H       
  32 H32           -2.8907    -2.7982    -0.8754 H       
  33 H33           -1.3500    -4.8040     0.8310 H       
  34 H34           -3.9723    -5.0961    -0.7035 H       
  35 H35           -2.4630    -7.2525    -0.6977 H       
  36 H36           -4.0026    -7.1586     1.9386 H       
  37 H37           -2.6025    -9.4597     0.2928 H       
  38 H38           -4.1484    -9.3771     2.9437 H       
  39 H39           -2.7581   -11.6294     1.2983 H       
  40 H40           -3.5356   -13.0393     3.1238 H       
  41 H41           -4.7129   -10.3342     4.2466 H       
  42 H42           -4.7158   -13.2253     5.2321 H       
  43 H43           -5.1271   -11.6511     7.3011 H       
  44 H44           -7.6492   -12.1357     5.6539 H       
  45 H45           -6.8470   -13.3663     6.6591 H       
  46 H46           -7.1542   -11.9329     8.6590 H       
  47 H47           -7.9564   -10.7023     7.6538 H       
  48 H48           -9.7131   -12.3436     7.0465 H       
  49 H49           -8.9109   -13.5741     8.0517 H       
  50 H50           -9.2181   -12.1407    10.0516 H       
  51 H51          -10.0203   -10.9101     9.0464 H       
  52 H52          -11.7771   -12.5514     8.4391 H       
  53 H53          -10.9749   -13.7819     9.4443 H       
  54 H54          -11.6853   -12.3373    10.2037 H       
  55 H55           -6.4648   -10.0260     5.3014 H       
  56 H56           -1.8959    -4.7166    -2.0192 H       
  57 H57           -3.4264    -5.1835     2.1467 H       
@<TRIPOS>BOND
   1    1    2 1
   2    1   26 1
   3    2   14 2
   4    2    3 1
   5    3    4 1
   6    3   27 1
   7    3   28 1
   8    4    5 1
   9    4   29 1
  10    4   30 1
  11    5    6 1
  12    5   31 1
  13    5   32 1
  14    6    7 1
  15    6   24 1
  16    6   33 1
  17    7    8 1
  18    7   25 1
  19    7   34 1
  20    8    9 2
  21    8   35 1
  22    9   10 1
  23    9   36 1
  24   10   11 2
  25   10   37 1
  26   11   12 1
  27   11   38 1
  28   12   13 2
  29   12   39 1
  30   13   15 1
  31   13   40 1
  32   15   16 2
  33   15   41 1
  34   16   17 1
  35   16   42 1
  36   17   18 1
  37   17   23 1
  38   17   43 1
  39   18   19 1
  40   18   44 1
  41   18   45 1
  42   19   20 1
  43   19   46 1
  44   19   47 1
  45   20   21 1
  46   20   48 1
  47   20   49 1
  48   21   22 1
  49   21   50 1
  50   21   51 1
  51   22   52 1
  52   22   53 1
  53   22   54 1
  54   23   55 1
  55   24   56 1
  56   25   57 1

#	End of record

