#	Name: ASD01148348
#	Creating user name:	WinNT
#	Creation time:	15. 06. 2019 19:02

#	Modifying user name:	WinNT
#	Modification time:	15. 06. 2019 19:02

#	Program:	/corina/corina34_cracker 3.40 0067  02.08.2006

@<TRIPOS>MOLECULE
ASD01148348
  58   61    0    0    0
SMALL
NO_CHARGES


@<TRIPOS>ATOM
   1 C1            -0.0221     1.5710     0.1297 C.ar    
   2 C2            -0.0162     0.1893     0.1523 C.ar    
   3 C3             1.1851    -0.4974     0.1463 C.ar    
   4 C4             2.3795     0.1998     0.1177 C.ar    
   5 C5             2.3723     1.5820     0.0951 C.ar    
   6 C6             1.1720     2.2673     0.1011 C.ar    
   7 C7             3.6734     2.3417     0.0640 C.3     
   8 O8             4.6883     1.5986    -0.6412 O.3     
   9 C9             3.5512     3.6139    -0.8083 C.3     
  10 C10            4.0438     3.1349    -2.1607 C.2     
  11 N11            4.6600     2.0130    -1.9927 N.2     
  12 C12            3.8516     3.8318    -3.4476 C.ar    
  13 C13            4.3596     3.2769    -4.6253 C.ar    
  14 C14            3.1570     5.0432    -3.4890 C.ar    
  15 C15            2.9777     5.6932    -4.6893 C.ar    
  16 C16            3.4905     5.1413    -5.8659 C.ar    
  17 C17            4.1804     3.9266    -5.8252 C.ar    
  18 C18            3.2982     5.8387    -7.1537 C.2     
  19 O19            4.2578     6.2781    -7.7560 O.2     
  20 N20            2.0583     5.9877    -7.6608 N.am    
  21 C21            4.7339     3.3316    -7.0943 C.3     
  22 C22            4.1348     2.6903     1.4805 C.3     
  23 F23            4.3028     1.5140     2.2189 F       
  24 F24            5.3506     3.3796     1.4186 F       
  25 F25            3.1729     3.4960     2.0993 F       
  26 Cl26           1.1933    -2.2331     0.1752 Cl      
  27 C27            1.8524     6.7919    -8.8679 C.3     
  28 C28            1.9712     5.9110   -10.0848 C.ar    
  29 N29            3.1606     5.6674   -10.5993 N.ar    
  30 C30            1.0080     5.3967    -7.0574 C.2     
  31 C31            3.3126     4.9028   -11.6631 C.ar    
  32 C32            2.2196     4.3257   -12.2808 C.ar    
  33 C33            0.9524     4.5590   -11.7682 C.ar    
  34 C34            0.8327     5.3631   -10.6453 C.ar    
  35 O35            1.1652     4.8009    -6.0107 O.2     
  36 O36           -0.2152     5.4669    -7.6148 O.3     
  37 C37           -1.2996     4.8073    -6.9096 C.3     
  38 H38           -0.9598     2.1070     0.1299 H       
  39 H39           -0.9491    -0.3545     0.1750 H       
  40 H40            3.3174    -0.3355     0.1134 H       
  41 H41            1.1669     3.3472     0.0835 H       
  42 H42            2.5139     3.9434    -0.8689 H       
  43 H43            4.1892     4.4095    -0.4237 H       
  44 H44            4.8931     2.3384    -4.5939 H       
  45 H45            2.7603     5.4696    -2.5795 H       
  46 H46            2.4404     6.6295    -4.7213 H       
  47 H47            5.7140     3.7620    -7.3001 H       
  48 H48            4.8283     2.2519    -6.9783 H       
  49 H49            4.0598     3.5505    -7.9224 H       
  50 H50            0.8597     7.2412    -8.8401 H       
  51 H51            2.6059     7.5782    -8.9135 H       
  52 H52            4.3029     4.7260   -12.0562 H       
  53 H53            2.3505     3.7011   -13.1521 H       
  54 H54            0.0799     4.1215   -12.2305 H       
  55 H55           -0.1387     5.5658   -10.2190 H       
  56 H56           -1.4051     5.2430    -5.9161 H       
  57 H57           -2.2281     4.9402    -7.4650 H       
  58 H58           -1.0799     3.7436    -6.8185 H       
@<TRIPOS>BOND
   1    1    2 ar
   2    1    6 ar
   3    1   38 1
   4    2    3 ar
   5    2   39 1
   6    3    4 ar
   7    3   26 1
   8    4    5 ar
   9    4   40 1
  10    5    6 ar
  11    5    7 1
  12    6   41 1
  13    7    8 1
  14    7    9 1
  15    7   22 1
  16    8   11 1
  17    9   10 1
  18    9   42 1
  19    9   43 1
  20   10   11 2
  21   10   12 1
  22   12   13 ar
  23   12   14 ar
  24   13   17 ar
  25   13   44 1
  26   14   15 ar
  27   14   45 1
  28   15   16 ar
  29   15   46 1
  30   16   17 ar
  31   16   18 1
  32   17   21 1
  33   18   19 2
  34   18   20 am
  35   20   27 1
  36   20   30 am
  37   21   47 1
  38   21   48 1
  39   21   49 1
  40   22   23 1
  41   22   24 1
  42   22   25 1
  43   27   28 1
  44   27   50 1
  45   27   51 1
  46   28   29 ar
  47   28   34 ar
  48   29   31 ar
  49   30   35 2
  50   30   36 1
  51   31   32 ar
  52   31   52 1
  53   32   33 ar
  54   32   53 1
  55   33   34 ar
  56   33   54 1
  57   34   55 1
  58   36   37 1
  59   37   56 1
  60   37   57 1
  61   37   58 1

#	End of record

