#	Name: ASD03730888
#	Creating user name:	WinNT
#	Creation time:	15. 06. 2019 20:44

#	Modifying user name:	WinNT
#	Modification time:	15. 06. 2019 20:44

#	Program:	/corina/corina34_cracker 3.40 0067  02.08.2006

@<TRIPOS>MOLECULE
ASD03730888
  59   65    0    0    0
SMALL
NO_CHARGES


@<TRIPOS>ATOM
   1 C1            -0.0182     1.4735     0.0148 C.2     
   2 C2             0.0015    -0.0045     0.0117 C.ar    
   3 C3             1.2179    -0.6895     0.0012 C.ar    
   4 C4             1.2291    -2.0688    -0.0011 C.ar    
   5 C5             0.0382    -2.7735     0.0065 C.ar    
   6 C6            -1.1707    -2.1009     0.0164 C.ar    
   7 C7            -1.1960    -0.7214     0.0251 C.ar    
   8 O8             1.0264     2.0953     0.0081 O.2     
   9 N9            -1.1942     2.1319     0.0193 N.am    
  10 C10            2.5412    -2.8099    -0.0125 C.3     
  11 O11           -0.9093    -3.3011     6.2759 O.3     
  12 C12           -0.9530    -3.5507     7.6932 C.3     
  13 O13           -0.0484    -4.6562     7.8741 O.3     
  14 C14            0.8513    -4.5638     6.8510 C.ar    
  15 C15            0.3209    -3.7312     5.8681 C.ar    
  16 C16            2.1007    -5.1313     6.6764 C.ar    
  17 C17            2.8350    -4.8781     5.5216 C.ar    
  18 C18            2.2911    -4.0514     4.5432 C.ar    
  19 C19            1.0483    -3.4792     4.7171 C.ar    
  20 O20            4.0757    -5.3171     5.1636 O.3     
  21 C21            3.2948    -3.9952     3.4228 C.3     
  22 C22            4.2438    -5.1585     3.7416 C.3     
  23 N23            2.9771    -3.0523     1.3650 N.am    
  24 C24            2.6513    -4.1509     2.0751 C.2     
  25 C25            4.0177    -2.6820     3.3692 C.ar    
  26 C26            4.7880    -1.9825     4.2711 C.ar    
  27 C27            5.3347    -0.7622     3.9157 C.ar    
  28 C28            5.1050    -0.2467     2.6530 C.ar    
  29 C29            4.3333    -0.9431     1.7465 C.ar    
  30 C30            3.7793    -2.1723     2.0954 C.ar    
  31 O31            1.9719    -5.0825     1.6990 O.2     
  32 C32           -1.2149     3.5256     0.1325 C.ar    
  33 C33           -2.1830     4.2637    -0.5361 C.ar    
  34 C34           -2.2008     5.6408    -0.4216 C.ar    
  35 C35           -1.2549     6.2839     0.3580 C.ar    
  36 C36           -0.2905     5.5511     1.0244 C.ar    
  37 C37           -0.2711     4.1739     0.9184 C.ar    
  38 Cl38          -3.4101     6.5650    -1.2567 Cl      
  39 H39            2.1480    -0.1407    -0.0055 H       
  40 H40            0.0525    -3.8534     0.0042 H       
  41 H41           -2.0965    -2.6568     0.0216 H       
  42 H42           -2.1403    -0.1975     0.0378 H       
  43 H43           -2.0262     1.6389    -0.0560 H       
  44 H44            2.4159    -3.7627    -0.5269 H       
  45 H45            3.2913    -2.2129    -0.5311 H       
  46 H46           -0.6065    -2.6779     8.2467 H       
  47 H47           -1.9611    -3.8262     8.0027 H       
  48 H48            2.5091    -5.7751     7.4413 H       
  49 H49            0.6411    -2.8331     3.9533 H       
  50 H50            5.2737    -4.8952     3.5006 H       
  51 H51            3.9401    -6.0619     3.2127 H       
  52 H52            4.9659    -2.3869     5.2566 H       
  53 H53            5.9397    -0.2138     4.6225 H       
  54 H54            5.5317     0.7059     2.3757 H       
  55 H55            4.1580    -0.5337     0.7626 H       
  56 H56           -2.9206     3.7621    -1.1450 H       
  57 H57           -1.2701     7.3602     0.4457 H       
  58 H58            0.4462     6.0556     1.6319 H       
  59 H59            0.4803     3.6021     1.4427 H       
@<TRIPOS>BOND
   1    1    2 1
   2    1    8 2
   3    1    9 am
   4    2    3 ar
   5    2    7 ar
   6    3    4 ar
   7    3   39 1
   8    4    5 ar
   9    4   10 1
  10    5    6 ar
  11    5   40 1
  12    6    7 ar
  13    6   41 1
  14    7   42 1
  15    9   32 1
  16    9   43 1
  17   10   23 1
  18   10   44 1
  19   10   45 1
  20   11   12 1
  21   11   15 1
  22   12   13 1
  23   12   46 1
  24   12   47 1
  25   13   14 1
  26   14   15 ar
  27   14   16 ar
  28   15   19 ar
  29   16   17 ar
  30   16   48 1
  31   17   18 ar
  32   17   20 1
  33   18   19 ar
  34   18   21 1
  35   19   49 1
  36   20   22 1
  37   21   22 1
  38   21   24 1
  39   21   25 1
  40   22   50 1
  41   22   51 1
  42   23   24 am
  43   23   30 1
  44   24   31 2
  45   25   26 ar
  46   25   30 ar
  47   26   27 ar
  48   26   52 1
  49   27   28 ar
  50   27   53 1
  51   28   29 ar
  52   28   54 1
  53   29   30 ar
  54   29   55 1
  55   32   33 ar
  56   32   37 ar
  57   33   34 ar
  58   33   56 1
  59   34   35 ar
  60   34   38 1
  61   35   36 ar
  62   35   57 1
  63   36   37 ar
  64   36   58 1
  65   37   59 1

#	End of record

