#	Name: ASD01915618
#	Creating user name:	WinNT
#	Creation time:	15. 06. 2019 20:05

#	Modifying user name:	WinNT
#	Modification time:	15. 06. 2019 20:05

#	Program:	/corina/corina34_cracker 3.40 0067  02.08.2006

@<TRIPOS>MOLECULE
ASD01915618
  46   49    0    0    0
SMALL
NO_CHARGES


@<TRIPOS>ATOM
   1 C1            -0.0086     1.4175     0.1002 C.2     
   2 N2             0.0286     0.0458    -0.0148 N.pl3   
   3 C3            -1.2048    -0.7396    -0.1434 C.3     
   4 C4            -2.3389    -0.0223     0.5869 C.3     
   5 N5            -2.4043     1.3988     0.2637 N.am    
   6 C6            -1.2832     2.1498     0.1401 C.2     
   7 C7             1.2864     1.8479     0.1727 C.2     
   8 C8             2.0606     0.6817     0.1076 C.2     
   9 N9             1.2441    -0.3409     0.0027 N.2     
  10 C10            3.5654     0.6134     0.1495 C.3     
  11 O11            4.0990     1.9338     0.2673 O.3     
  12 C12            5.4521     2.0502     0.3186 C.ar    
  13 O13           -1.3287     3.3630     0.0658 O.2     
  14 C14            6.0380     3.3025     0.4329 C.ar    
  15 C15            6.2496     0.9164     0.2624 C.ar    
  16 C16            7.6247     1.0373     0.3146 C.ar    
  17 C17            8.2064     2.2870     0.4228 C.ar    
  18 C18            7.4136     3.4181     0.4847 C.ar    
  19 C19           -3.6464     1.9968     0.0781 C.ar    
  20 C20           -4.2343     2.0366    -1.1915 C.ar    
  21 C21           -5.4734     2.6444    -1.3218 C.ar    
  22 N22           -6.0536     3.1625    -0.2490 N.ar    
  23 C23           -5.4713     3.1073     0.9316 C.ar    
  24 N24           -4.2968     2.5348     1.1038 N.ar    
  25 C25           -6.1717     3.7116     2.1213 C.3     
  26 O26           -3.6064     1.4937    -2.2687 O.3     
  27 C27           -4.2816     1.5808    -3.5251 C.3     
  28 H28           -1.4605    -0.8455    -1.1977 H       
  29 H29           -1.0556    -1.7259     0.2961 H       
  30 H30           -3.2849    -0.4895     0.3136 H       
  31 H31           -2.1913    -0.1327     1.6612 H       
  32 H32            1.6370     2.8656     0.2611 H       
  33 H33            3.8784     0.0172     1.0066 H       
  34 H34            3.9339     0.1531    -0.7673 H       
  35 H35            5.4191     4.1863     0.4809 H       
  36 H36            5.7957    -0.0600     0.1783 H       
  37 H37            8.2460     0.1549     0.2713 H       
  38 H38            9.2817     2.3795     0.4635 H       
  39 H39            7.8703     4.3932     0.5688 H       
  40 H40           -5.9592     2.6954    -2.2850 H       
  41 H41           -6.8017     2.9578     2.5935 H       
  42 H42           -5.4307     4.0664     2.8376 H       
  43 H43           -6.7893     4.5477     1.7932 H       
  44 H44           -5.2420     1.0698    -3.4577 H       
  45 H45           -4.4443     2.6284    -3.7783 H       
  46 H46           -3.6733     1.1105    -4.2978 H       
@<TRIPOS>BOND
   1    1    2 1
   2    1    7 2
   3    1    6 1
   4    2    3 1
   5    2    9 1
   6    3    4 1
   7    3   28 1
   8    3   29 1
   9    4    5 1
  10    4   30 1
  11    4   31 1
  12    5    6 am
  13    5   19 1
  14    6   13 2
  15    7    8 1
  16    7   32 1
  17    8    9 2
  18    8   10 1
  19   10   11 1
  20   10   33 1
  21   10   34 1
  22   11   12 1
  23   12   14 ar
  24   12   15 ar
  25   14   18 ar
  26   14   35 1
  27   15   16 ar
  28   15   36 1
  29   16   17 ar
  30   16   37 1
  31   17   18 ar
  32   17   38 1
  33   18   39 1
  34   19   20 ar
  35   19   24 ar
  36   20   21 ar
  37   20   26 1
  38   21   22 ar
  39   21   40 1
  40   22   23 ar
  41   23   24 ar
  42   23   25 1
  43   25   41 1
  44   25   42 1
  45   25   43 1
  46   26   27 1
  47   27   44 1
  48   27   45 1
  49   27   46 1

#	End of record

