#	Name: ASD02560159
#	Creating user name:	WinNT
#	Creation time:	15. 06. 2019 20:24

#	Modifying user name:	WinNT
#	Modification time:	15. 06. 2019 20:24

#	Program:	/corina/corina34_cracker 3.40 0067  02.08.2006

@<TRIPOS>MOLECULE
ASD02560159
  56   60    0    0    0
SMALL
NO_CHARGES


@<TRIPOS>ATOM
   1 N1             0.0430     1.2688     0.0235 N.2     
   2 N2             0.0337     0.0340     0.0111 N.2     
   3 C3             1.4161     1.7899     0.0140 C.3     
   4 N4             2.2633     0.6308     0.3927 N.3     
   5 C5             1.3987    -0.5075    -0.0090 C.3     
   6 S6             1.5555    -1.8696     1.1788 S.3     
   7 C7             1.0168    -1.1154     2.7381 C.3     
   8 C8             1.0911    -2.1378     3.8427 C.2     
   9 O9             1.4701    -3.2645     3.6017 O.2     
  10 N10            0.7363    -1.8003     5.0983 N.am    
  11 C11            3.4569     0.6290    -0.3258 C.ar    
  12 C12            0.7240    -2.7708     6.1070 C.ar    
  13 C13           -0.1043    -2.6161     7.2124 C.ar    
  14 C14           -0.1140    -3.5766     8.2059 C.ar    
  15 C15            0.6992    -4.6903     8.1006 C.ar    
  16 C16            1.5239    -4.8466     7.0021 C.ar    
  17 C17            1.5347    -3.8928     6.0027 C.ar    
  18 Cl18          -1.1247    -1.2179     7.3451 Cl      
  19 S19            0.6844    -5.9126     9.3697 S.o2    
  20 O20            1.9324    -6.5875     9.2913 O.2     
  21 O21            0.2248    -5.2630    10.5470 O.2     
  22 C22            4.6945     0.7012     0.3490 C.ar    
  23 C23            3.4402     0.5508    -1.7023 C.ar    
  24 C24            4.6267     0.5478    -2.4292 C.ar    
  25 C25            5.8343     0.6212    -1.8041 C.ar    
  26 C26            5.8955     0.6974    -0.4024 C.ar    
  27 C27            7.1279     0.7747     0.2694 C.ar    
  28 C28            7.1508     0.8477     1.6283 C.ar    
  29 C29            5.9690     0.8470     2.3665 C.ar    
  30 C30            4.7574     0.7770     1.7491 C.ar    
  31 N31           -0.4746    -7.0243     8.9661 N.am    
  32 C32            7.1045     0.6156    -2.6151 C.3     
  33 C33            7.3725    -0.6036    -3.4997 C.3     
  34 C34            6.9727     0.7296    -4.1351 C.3     
  35 H35            1.6808     2.1441    -0.9823 H       
  36 H36            1.5226     2.5924     0.7439 H       
  37 H37            1.6582    -0.8457    -1.0121 H       
  38 H38            1.6663    -0.2735     2.9780 H       
  39 H39           -0.0102    -0.7645     2.6363 H       
  40 H40            0.4894    -0.8849     5.3031 H       
  41 H41           -0.7569    -3.4572     9.0655 H       
  42 H42            2.1579    -5.7174     6.9233 H       
  43 H43            2.1794    -4.0159     5.1450 H       
  44 H44            2.4955     0.4909    -2.2223 H       
  45 H45            4.5893     0.4858    -3.5067 H       
  46 H46            8.0518     0.7758    -0.2898 H       
  47 H47            8.0990     0.9066     2.1420 H       
  48 H48            6.0145     0.9058     3.4440 H       
  49 H49            3.8494     0.7775     2.3339 H       
  50 H50           -0.9889    -6.9147     8.1510 H       
  51 H51           -0.6392    -7.7852     9.5448 H       
  52 H52            7.9635     1.0961    -2.1466 H       
  53 H53            8.4078    -0.9250    -3.6136 H       
  54 H54            6.6301    -1.4017    -3.4952 H       
  55 H55            5.9673     0.8086    -4.5486 H       
  56 H56            7.7450     1.2853    -4.6670 H       
@<TRIPOS>BOND
   1    1    2 2
   2    1    3 1
   3    2    5 1
   4    3    4 1
   5    3   35 1
   6    3   36 1
   7    4    5 1
   8    4   11 1
   9    5    6 1
  10    5   37 1
  11    6    7 1
  12    7    8 1
  13    7   38 1
  14    7   39 1
  15    8    9 2
  16    8   10 am
  17   10   12 1
  18   10   40 1
  19   11   22 ar
  20   11   23 ar
  21   12   13 ar
  22   12   17 ar
  23   13   14 ar
  24   13   18 1
  25   14   15 ar
  26   14   41 1
  27   15   16 ar
  28   15   19 1
  29   16   17 ar
  30   16   42 1
  31   17   43 1
  32   19   20 2
  33   19   21 2
  34   19   31 am
  35   22   26 ar
  36   22   30 ar
  37   23   24 ar
  38   23   44 1
  39   24   25 ar
  40   24   45 1
  41   25   26 ar
  42   25   32 1
  43   26   27 ar
  44   27   28 ar
  45   27   46 1
  46   28   29 ar
  47   28   47 1
  48   29   30 ar
  49   29   48 1
  50   30   49 1
  51   31   50 1
  52   31   51 1
  53   32   33 1
  54   32   34 1
  55   32   52 1
  56   33   34 1
  57   33   53 1
  58   33   54 1
  59   34   55 1
  60   34   56 1

#	End of record

