#	Name: ASD01917606
#	Creating user name:	WinNT
#	Creation time:	15. 06. 2019 20:09

#	Modifying user name:	WinNT
#	Modification time:	15. 06. 2019 20:09

#	Program:	/corina/corina34_cracker 3.40 0067  02.08.2006

@<TRIPOS>MOLECULE
ASD01917606
  25   26    0    0    0
SMALL
NO_CHARGES


@<TRIPOS>ATOM
   1 C1            -0.0161     1.3339     0.0094 C.2     
   2 N2             0.0021    -0.0041     0.0020 N.2     
   3 C3             1.1383    -0.6628    -0.0124 C.2     
   4 C4             2.3566     0.0292    -0.0203 C.2     
   5 C5             2.3478     1.3876    -0.0129 C.2     
   6 N6             1.1542     2.0394     0.0020 N.pl3   
   7 N7             0.7987     3.3945     0.0122 N.2     
   8 C8            -0.5121     3.4476     0.0247 C.2     
   9 N9            -1.0078     2.2178     0.0182 N.2     
  10 C10           -1.3298     4.7134     0.0393 C.3     
  11 C11           -1.0123     5.5400    -1.2085 C.3     
  12 C12           -2.8181     4.3590     0.0513 C.3     
  13 C13           -0.9890     5.5264     1.2898 C.3     
  14 Br14           3.9939    -0.9167    -0.0404 Br      
  15 H15            1.1335    -1.7428    -0.0178 H       
  16 H16            3.2748     1.9418    -0.0184 H       
  17 H17           -1.2551     4.9608    -2.0994 H       
  18 H18           -1.6038     6.4555    -1.1980 H       
  19 H19            0.0480     5.7924    -1.2170 H       
  20 H20           -3.0442     3.7702     0.9402 H       
  21 H21           -3.4095     5.2746     0.0618 H       
  22 H22           -3.0609     3.7799    -0.8397 H       
  23 H23            0.0713     5.7788     1.2813 H       
  24 H24           -1.5804     6.4419     1.3003 H       
  25 H25           -1.2151     4.9375     2.1788 H       
@<TRIPOS>BOND
   1    1    2 1
   2    1    6 1
   3    1    9 2
   4    2    3 2
   5    3    4 1
   6    3   15 1
   7    4    5 2
   8    4   14 1
   9    5    6 1
  10    5   16 1
  11    6    7 1
  12    7    8 2
  13    8    9 1
  14    8   10 1
  15   10   11 1
  16   10   13 1
  17   10   12 1
  18   11   17 1
  19   11   18 1
  20   11   19 1
  21   12   20 1
  22   12   21 1
  23   12   22 1
  24   13   23 1
  25   13   24 1
  26   13   25 1

#	End of record

