#	Name: ASD01917442
#	Creating user name:	WinNT
#	Creation time:	15. 06. 2019 20:09

#	Modifying user name:	WinNT
#	Modification time:	15. 06. 2019 20:09

#	Program:	/corina/corina34_cracker 3.40 0067  02.08.2006

@<TRIPOS>MOLECULE
ASD01917442
  48   51    0    0    0
SMALL
NO_CHARGES


@<TRIPOS>ATOM
   1 C1            -0.0159     1.3204     0.0093 C.ar    
   2 N2             0.0021    -0.0041     0.0020 N.ar    
   3 C3             1.1462    -0.6644    -0.0125 C.ar    
   4 C4             2.3379     0.0473    -0.0201 C.ar    
   5 C5             2.2813     1.4341    -0.0121 C.ar    
   6 N6             1.1024     2.0303     0.0024 N.ar    
   7 C7            -1.3224     2.0270     0.0193 C.2     
   8 O8            -2.3570     1.3907     0.0207 O.2     
   9 N9            -1.3598     3.3743     0.0268 N.am    
  10 C10           -2.6483     4.0712     0.0366 C.3     
  11 C11           -3.5181     3.7203    -1.1832 C.3     
  12 C12           -4.9195     4.2993    -0.9795 C.3     
  13 C13           -4.8412     5.8065    -0.7288 C.3     
  14 C14           -3.9145     6.0676     0.4715 C.3     
  15 C15           -4.2992     5.0616     1.5808 C.3     
  16 C16           -3.4813     3.7647     1.3026 C.3     
  17 C17           -2.4933     5.6150     0.0438 C.3     
  18 N18           -3.9661     7.4585     0.9287 N.am    
  19 C19           -5.1343     7.9895     1.3406 C.2     
  20 C20           -5.1864     9.3933     1.8021 C.ar    
  21 C21           -6.3947     9.9460     2.2293 C.ar    
  22 C22           -6.4361    11.2583     2.6596 C.ar    
  23 C23           -5.2808    12.0239     2.6671 C.ar    
  24 C24           -4.0815    11.4801     2.2446 C.ar    
  25 C25           -4.0266    10.1691     1.8176 C.ar    
  26 O26           -6.1451     7.3144     1.3328 O.2     
  27 F27           -7.6044    11.7960     3.0733 F       
  28 H28            1.1543    -1.7443    -0.0180 H       
  29 H29            3.2878    -0.4665    -0.0316 H       
  30 H30            3.1895     2.0185    -0.0173 H       
  31 H31           -0.5335     3.8824     0.0257 H       
  32 H32           -3.0743     4.1472    -2.0825 H       
  33 H33           -3.5825     2.6370    -1.2857 H       
  34 H34           -5.5199     4.1125    -1.8699 H       
  35 H35           -5.3889     3.8151    -0.1232 H       
  36 H36           -4.4413     6.3030    -1.6130 H       
  37 H37           -5.8371     6.1923    -0.5114 H       
  38 H38           -4.0384     5.4650     2.5592 H       
  39 H39           -5.3666     4.8453     1.5366 H       
  40 H40           -4.1550     2.9288     1.1145 H       
  41 H41           -2.8211     3.5337     2.1386 H       
  42 H42           -1.7378     5.9286     0.7642 H       
  43 H43           -2.2598     5.9890    -0.9530 H       
  44 H44           -3.1595     7.9973     0.9349 H       
  45 H45           -7.2951     9.3495     2.2231 H       
  46 H46           -5.3174    13.0494     3.0039 H       
  47 H47           -3.1848    12.0820     2.2525 H       
  48 H48           -3.0881     9.7453     1.4920 H       
@<TRIPOS>BOND
   1    1    2 ar
   2    1    6 ar
   3    1    7 1
   4    2    3 ar
   5    3    4 ar
   6    3   28 1
   7    4    5 ar
   8    4   29 1
   9    5    6 ar
  10    5   30 1
  11    7    8 2
  12    7    9 am
  13    9   10 1
  14    9   31 1
  15   10   11 1
  16   10   16 1
  17   10   17 1
  18   11   12 1
  19   11   32 1
  20   11   33 1
  21   12   13 1
  22   12   34 1
  23   12   35 1
  24   13   14 1
  25   13   36 1
  26   13   37 1
  27   14   15 1
  28   14   17 1
  29   14   18 1
  30   15   16 1
  31   15   38 1
  32   15   39 1
  33   16   40 1
  34   16   41 1
  35   17   42 1
  36   17   43 1
  37   18   19 am
  38   18   44 1
  39   19   20 1
  40   19   26 2
  41   20   21 ar
  42   20   25 ar
  43   21   22 ar
  44   21   45 1
  45   22   23 ar
  46   22   27 1
  47   23   24 ar
  48   23   46 1
  49   24   25 ar
  50   24   47 1
  51   25   48 1

#	End of record

