#	Name: ASD01918231
#	Creating user name:	WinNT
#	Creation time:	15. 06. 2019 20:11

#	Modifying user name:	WinNT
#	Modification time:	15. 06. 2019 20:11

#	Program:	/corina/corina34_cracker 3.40 0067  02.08.2006

@<TRIPOS>MOLECULE
ASD01918231
  35   37    0    0    0
SMALL
NO_CHARGES


@<TRIPOS>ATOM
   1 C1            -0.1632     1.4924    -0.4244 C.3     
   2 N2            -0.1269     0.0383    -0.3448 N.am    
   3 C3             0.8130    -0.6905    -0.9908 C.2     
   4 C4             1.8866     0.0554    -1.6524 C.2     
   5 C5             2.1244     1.4181    -1.3841 C.2     
   6 C6             1.2243     2.1242    -0.3712 C.3     
   7 C7             2.8847    -0.4240    -2.6733 C.3     
   8 S8             3.8400     1.1114    -2.9573 S.o     
   9 N9             3.0931     1.9978    -2.0110 N.2     
  10 C10           -1.1369    -0.6554     0.4583 C.3     
  11 O11            0.7688    -1.9062    -1.0203 O.2     
  12 C12            5.3944     0.7936    -2.0780 C.3     
  13 O13            6.3017     1.8731    -2.3089 O.3     
  14 C14            6.8913     1.9327    -3.5320 C.ar    
  15 C15            7.6992     3.0111    -3.8621 C.ar    
  16 C16            8.2973     3.0692    -5.1060 C.ar    
  17 C17            8.0913     2.0539    -6.0216 C.ar    
  18 C18            7.2862     0.9783    -5.6952 C.ar    
  19 C19            6.6908     0.9123    -4.4503 C.ar    
  20 H20           -0.6451     1.7811    -1.3585 H       
  21 H21           -0.7555     1.8750     0.4068 H       
  22 H22            1.1532     3.1828    -0.6209 H       
  23 H23            1.6403     2.0096     0.6297 H       
  24 H24            3.5178    -1.2120    -2.2654 H       
  25 H25            2.3878    -0.7533    -3.5858 H       
  26 H26           -2.0002    -0.8878    -0.1654 H       
  27 H27           -0.7150    -1.5794     0.8536 H       
  28 H28           -1.4471    -0.0151     1.2841 H       
  29 H29            5.1964     0.7076    -1.0095 H       
  30 H30            5.8344    -0.1350    -2.4418 H       
  31 H31            7.8601     3.8046    -3.1474 H       
  32 H32            8.9260     3.9087    -5.3636 H       
  33 H33            8.5597     2.1012    -6.9936 H       
  34 H34            7.1262     0.1867    -6.4123 H       
  35 H35            6.0620     0.0720    -4.1958 H       
@<TRIPOS>BOND
   1    1    2 1
   2    1    6 1
   3    1   20 1
   4    1   21 1
   5    2    3 am
   6    2   10 1
   7    3    4 1
   8    3   11 2
   9    4    5 2
  10    4    7 1
  11    5    6 1
  12    5    9 1
  13    6   22 1
  14    6   23 1
  15    7    8 1
  16    7   24 1
  17    7   25 1
  18    8    9 2
  19    8   12 1
  20   10   26 1
  21   10   27 1
  22   10   28 1
  23   12   13 1
  24   12   29 1
  25   12   30 1
  26   13   14 1
  27   14   15 ar
  28   14   19 ar
  29   15   16 ar
  30   15   31 1
  31   16   17 ar
  32   16   32 1
  33   17   18 ar
  34   17   33 1
  35   18   19 ar
  36   18   34 1
  37   19   35 1

#	End of record

