#	Name: ASD01810997
#	Creating user name:	WinNT
#	Creation time:	15. 06. 2019 19:25

#	Modifying user name:	WinNT
#	Modification time:	15. 06. 2019 19:25

#	Program:	/corina/corina34_cracker 3.40 0067  02.08.2006

@<TRIPOS>MOLECULE
ASD01810997
  22   21    0    0    0
SMALL
NO_CHARGES


@<TRIPOS>ATOM
   1 C1            -0.0184     1.5028     0.0103 C.2     
   2 C2             0.0021    -0.0041     0.0020 C.3     
   3 C3            -0.6130    -0.5153    -1.3023 C.3     
   4 O4             1.0197     2.1211     0.0037 O.2     
   5 O5            -1.1898     2.1580     0.0194 O.3     
   6 O6             1.3516    -0.4627     0.1041 O.3     
   7 C7             1.4886    -1.7242     0.7612 C.3     
   8 C8             2.9449    -2.1084     0.8124 C.2     
   9 C9             3.4596    -2.5789     1.9214 C.2     
  10 C10           -1.1335     3.6089     0.0270 C.3     
  11 H11           -0.5743    -0.3799     0.8474 H       
  12 H12           -0.5983    -1.6052    -1.3083 H       
  13 H13           -1.6424    -0.1655    -1.3801 H       
  14 H14           -0.0366    -0.1395    -2.1476 H       
  15 H15            1.0966    -1.6500     1.7755 H       
  16 H16            0.9319    -2.4828     0.2111 H       
  17 H17            3.5643    -1.9959    -0.0652 H       
  18 H18            2.8403    -2.6915     2.7990 H       
  19 H19            4.5033    -2.8542     1.9581 H       
  20 H20           -0.6017     3.9472     0.9164 H       
  21 H21           -0.6102     3.9569    -0.8636 H       
  22 H22           -2.1463     4.0118     0.0340 H       
@<TRIPOS>BOND
   1    1    2 1
   2    1    4 2
   3    1    5 1
   4    2    3 1
   5    2    6 1
   6    2   11 1
   7    3   12 1
   8    3   13 1
   9    3   14 1
  10    5   10 1
  11    6    7 1
  12    7    8 1
  13    7   15 1
  14    7   16 1
  15    8    9 2
  16    8   17 1
  17    9   18 1
  18    9   19 1
  19   10   20 1
  20   10   21 1
  21   10   22 1

#	End of record

