#	Name: ASD01810602
#	Creating user name:	WinNT
#	Creation time:	15. 06. 2019 19:24

#	Modifying user name:	WinNT
#	Modification time:	15. 06. 2019 19:24

#	Program:	/corina/corina34_cracker 3.40 0067  02.08.2006

@<TRIPOS>MOLECULE
ASD01810602
  54   59    0    0    0
SMALL
NO_CHARGES


@<TRIPOS>ATOM
   1 N1            -0.0153     1.2784     0.0091 N.pl3   
   2 N2             0.0021    -0.0041     0.0020 N.2     
   3 C3             1.0992    -0.7157    -0.0123 C.2     
   4 C4             2.4158    -0.0317    -0.0213 C.2     
   5 C5             2.3886     1.4421    -0.0131 C.ar    
   6 C6             3.5454     2.2104    -0.0205 C.ar    
   7 C7             3.4472     3.5871    -0.0126 C.ar    
   8 C8             2.2029     4.1987     0.0030 C.ar    
   9 C9             1.0468     3.4466     0.0105 C.ar    
  10 C10            1.1227     2.0587     0.0024 C.ar    
  11 N11            2.7672    -2.2289    -0.0364 N.am    
  12 N12            3.3340    -0.9519    -0.0350 N.2     
  13 C13            1.4195    -2.1448    -0.0231 C.2     
  14 O14            0.6279    -3.0728    -0.0205 O.2     
  15 C15           -1.3160     1.9525     0.0188 C.3     
  16 C16           -2.5271     1.2425    -2.0580 C.ar    
  17 C17           -1.7686     2.1913    -1.3987 C.ar    
  18 C18           -1.4281     3.3663    -2.0542 C.ar    
  19 C19           -1.8638     3.5473    -3.3551 C.ar    
  20 C20           -2.6254     2.5489    -3.9590 C.ar    
  21 N21           -2.9298     1.4399    -3.2973 N.ar    
  22 N22           -4.1138     2.4063    -7.2662 N.pl3   
  23 N23           -3.3857     3.5991    -7.3513 N.2     
  24 C24           -2.7778     3.7971    -6.2120 C.2     
  25 C25           -3.1000     2.7276    -5.3529 C.2     
  26 C26           -3.9285     1.8857    -6.0376 C.2     
  27 C27           -4.9401     1.8272    -8.3283 C.3     
  28 C28            4.4361    -3.6663    -1.0408 C.ar    
  29 C29            3.4938    -3.4264    -0.0503 C.ar    
  30 C30            3.2810    -4.3930     0.9303 C.ar    
  31 C31            4.0231    -5.5604     0.8757 C.ar    
  32 C32            4.9458    -5.7282    -0.1440 C.ar    
  33 N33            5.1229    -4.7917    -1.0580 N.ar    
  34 C34            4.6722    -2.6323    -2.1114 C.3     
  35 F35            5.6742    -6.8645    -0.2039 F       
  36 H36            4.5146     1.7342    -0.0320 H       
  37 H37            4.3431     4.1903    -0.0183 H       
  38 H38            2.1382     5.2767     0.0098 H       
  39 H39            0.0838     3.9354     0.0224 H       
  40 H40           -2.0457     1.3267     0.5326 H       
  41 H41           -1.2267     2.9070     0.5374 H       
  42 H42           -2.7900     0.3251    -1.5523 H       
  43 H43           -0.8366     4.1227    -1.5599 H       
  44 H44           -1.6173     4.4498    -3.8946 H       
  45 H45           -2.1392     4.6340    -5.9710 H       
  46 H46           -4.3578     0.9686    -5.6621 H       
  47 H47           -4.3314     1.1616    -8.9402 H       
  48 H48           -5.7604     1.2635    -7.8839 H       
  49 H49           -5.3435     2.6257    -8.9510 H       
  50 H50            2.5550    -4.2352     1.7141 H       
  51 H51            3.8846    -6.3311     1.6195 H       
  52 H52            5.4534    -1.9450    -1.7867 H       
  53 H53            4.9829    -3.1267    -3.0318 H       
  54 H54            3.7512    -2.0774    -2.2900 H       
@<TRIPOS>BOND
   1    1    2 1
   2    1   10 1
   3    1   15 1
   4    2    3 2
   5    3    4 1
   6    3   13 1
   7    4    5 1
   8    4   12 2
   9    5    6 ar
  10    5   10 ar
  11    6    7 ar
  12    6   36 1
  13    7    8 ar
  14    7   37 1
  15    8    9 ar
  16    8   38 1
  17    9   10 ar
  18    9   39 1
  19   11   12 1
  20   11   13 am
  21   11   29 1
  22   13   14 2
  23   15   17 1
  24   15   40 1
  25   15   41 1
  26   16   17 ar
  27   16   21 ar
  28   16   42 1
  29   17   18 ar
  30   18   19 ar
  31   18   43 1
  32   19   20 ar
  33   19   44 1
  34   20   21 ar
  35   20   25 1
  36   22   23 1
  37   22   26 1
  38   22   27 1
  39   23   24 2
  40   24   25 1
  41   24   45 1
  42   25   26 2
  43   26   46 1
  44   27   47 1
  45   27   48 1
  46   27   49 1
  47   28   29 ar
  48   28   33 ar
  49   28   34 1
  50   29   30 ar
  51   30   31 ar
  52   30   50 1
  53   31   32 ar
  54   31   51 1
  55   32   33 ar
  56   32   35 1
  57   34   52 1
  58   34   53 1
  59   34   54 1

#	End of record

