#	Name: ASD01840254
#	Creating user name:	WinNT
#	Creation time:	15. 06. 2019 19:37

#	Modifying user name:	WinNT
#	Modification time:	15. 06. 2019 19:37

#	Program:	/corina/corina34_cracker 3.40 0067  02.08.2006

@<TRIPOS>MOLECULE
ASD01840254
  49   52    0    0    0
SMALL
NO_CHARGES


@<TRIPOS>ATOM
   1 C1            -2.4386     1.7964     1.3759 C.3     
   2 C2            -2.0981     0.3471     1.1425 C.ar    
   3 N3            -2.0775    -0.1349    -0.0883 N.ar    
   4 N4            -1.7953    -1.3570    -0.3469 N.ar    
   5 C5            -1.4996    -2.2394     0.6104 C.ar    
   6 S6            -1.0845    -3.9446     0.5080 S.3     
   7 C7            -0.9096    -4.0859     2.2463 C.2     
   8 C8            -0.5473    -5.3189     2.9437 C.2     
   9 O9            -0.4477    -5.3252     4.1571 O.2     
  10 N10           -0.3238    -6.4485     2.2433 N.am    
  11 C11            0.0391    -7.6839     2.9421 C.3     
  12 C12           -1.0802    -8.7407     2.9545 C.3     
  13 N13           -0.4806    -9.2449     1.7038 N.am    
  14 C14            0.8309    -8.6779     2.0731 C.3     
  15 C15           -0.9445    -9.9429     0.6482 C.2     
  16 O16           -2.1088   -10.2889     0.6130 O.2     
  17 O17           -0.1176   -10.2568    -0.3674 O.3     
  18 C18           -0.6261   -11.0347    -1.3593 C.ar    
  19 C19           -0.2730   -12.3815    -1.4380 C.ar    
  20 C20           -0.7839   -13.1892    -2.4451 C.ar    
  21 C21           -1.6402   -12.6784    -3.3749 C.ar    
  22 C22           -2.0140   -11.3110    -3.3154 C.ar    
  23 C23           -1.4942   -10.4924    -2.2822 C.ar    
  24 N24           -2.8454   -10.8052    -4.2149 N.2     
  25 N25           -3.2579   -11.4602    -5.0299 N.1     
  26 N26           -3.6704   -12.1152    -5.8448 N.pl3   
  27 C27           -1.1543    -2.9013     2.8593 C.2     
  28 N28           -1.0847    -2.7340     4.2358 N.pl3   
  29 C29           -1.4951    -1.8239     1.9488 C.ar    
  30 C30           -1.8037    -0.4698     2.2120 C.ar    
  31 C31           -1.8155     0.0632     3.6216 C.3     
  32 H32           -1.5268     2.3930     1.3475 H       
  33 H33           -3.1214     2.1390     0.5984 H       
  34 H34           -2.9139     1.9055     2.3508 H       
  35 H35           -0.4032    -6.4435     1.2766 H       
  36 H36            0.4856    -7.5036     3.9200 H       
  37 H37           -1.0139    -9.4412     3.7870 H       
  38 H38           -2.0792    -8.3241     2.8260 H       
  39 H39            1.3577    -8.2110     1.2409 H       
  40 H40            1.4586    -9.3598     2.6467 H       
  41 H41            0.4046   -12.8002    -0.7087 H       
  42 H42           -0.5004   -14.2302    -2.4925 H       
  43 H43           -2.0329   -13.3132    -4.1554 H       
  44 H44           -1.7729    -9.4508    -2.2207 H       
  45 H45           -0.5905    -3.3692     4.7771 H       
  46 H46           -1.5302    -1.9818     4.6561 H       
  47 H47           -2.7862    -0.1339     4.0765 H       
  48 H48           -1.0353    -0.4286     4.2025 H       
  49 H49           -1.6335     1.1378     3.6052 H       
@<TRIPOS>BOND
   1    1    2 1
   2    1   32 1
   3    1   33 1
   4    1   34 1
   5    2   30 ar
   6    2    3 ar
   7    3    4 ar
   8    4    5 ar
   9    5   29 ar
  10    5    6 1
  11    6    7 1
  12    7    8 1
  13    7   27 2
  14    8    9 2
  15    8   10 am
  16   10   11 1
  17   10   35 1
  18   11   14 1
  19   11   12 1
  20   11   36 1
  21   12   13 1
  22   12   37 1
  23   12   38 1
  24   13   14 1
  25   13   15 am
  26   14   39 1
  27   14   40 1
  28   15   16 2
  29   15   17 1
  30   17   18 1
  31   18   23 ar
  32   18   19 ar
  33   19   20 ar
  34   19   41 1
  35   20   21 ar
  36   20   42 1
  37   21   22 ar
  38   21   43 1
  39   22   23 ar
  40   22   24 1
  41   23   44 1
  42   24   25 2
  43   25   26 2
  44   27   28 1
  45   27   29 1
  46   28   45 1
  47   28   46 1
  48   29   30 ar
  49   30   31 1
  50   31   47 1
  51   31   48 1
  52   31   49 1

#	End of record

