#	Name: ASD01810734
#	Creating user name:	WinNT
#	Creation time:	15. 06. 2019 19:25

#	Modifying user name:	WinNT
#	Modification time:	15. 06. 2019 19:25

#	Program:	/corina/corina34_cracker 3.40 0067  02.08.2006

@<TRIPOS>MOLECULE
ASD01810734
  58   63    0    0    0
SMALL
NO_CHARGES


@<TRIPOS>ATOM
   1 C1            -0.0164     1.3577     0.0095 C.2     
   2 C2             0.0021    -0.0041     0.0020 C.2     
   3 C3             1.2353    -0.6757    -0.0134 C.2     
   4 C4             2.4751     0.1081    -0.0211 C.2     
   5 N5             2.3944     1.4922    -0.0121 N.pl3   
   6 C6             3.5349     2.2306    -0.0190 C.2     
   7 C7             3.4864     3.5839    -0.0101 C.2     
   8 C8             2.2505     4.2411     0.0065 C.2     
   9 C9             1.0998     3.5074     0.0132 C.2     
  10 C10            1.1723     2.1042     0.0022 C.2     
  11 N11            2.9726    -2.0503    -0.0382 N.am    
  12 N12            3.4691    -0.7430    -0.0356 N.2     
  13 C13            1.6240    -2.0267    -0.0248 C.2     
  14 O14            0.8798    -2.9974    -0.0223 O.2     
  15 C15           -1.3401     2.0778     0.0197 C.3     
  16 N16           -1.8345     2.2133    -1.3570 N.3     
  17 C17           -3.2231     2.6940    -1.3731 C.3     
  18 C18           -3.6730     2.8973    -2.8218 C.3     
  19 N19           -3.5495     1.6285    -3.5529 N.3     
  20 C20           -2.1609     1.1478    -3.5369 C.3     
  21 C21           -1.7109     0.9445    -2.0882 C.3     
  22 N22           -4.5789     1.3126    -6.9451 N.pl3   
  23 N23           -4.8806     2.6560    -6.6874 N.2     
  24 C24           -4.5491     2.9229    -5.4500 C.2     
  25 C25           -4.0233     1.7584    -4.8725 C.2     
  26 C26           -4.0512     0.7789    -5.8113 C.2     
  27 C27           -4.7988     0.6064    -8.2096 C.3     
  28 C28            3.7578    -3.2101    -0.0524 C.ar    
  29 C29            4.7112    -3.3946    -1.0487 C.ar    
  30 C30            5.4840    -4.5410    -1.0589 C.ar    
  31 C31            5.3094    -5.5026    -0.0802 C.ar    
  32 C32            4.3623    -5.3215     0.9105 C.ar    
  33 C33            3.5906    -4.1756     0.9307 C.ar    
  34 F34            4.8812    -2.4553    -2.0047 F       
  35 H35           -0.9226    -0.5620     0.0083 H       
  36 H36            4.4927     1.7317    -0.0315 H       
  37 H37            4.4020     4.1566    -0.0154 H       
  38 H38            2.2080     5.3203     0.0144 H       
  39 H39            0.1398     4.0019     0.0264 H       
  40 H40           -2.0588     1.5088     0.6094 H       
  41 H41           -1.2122     3.0672     0.4588 H       
  42 H42           -3.8680     1.9589    -0.8917 H       
  43 H43           -3.2864     3.6407    -0.8364 H       
  44 H44           -4.7121     3.2262    -2.8371 H       
  45 H45           -3.0453     3.6523    -3.2950 H       
  46 H46           -2.0976     0.2011    -4.0735 H       
  47 H47           -1.5160     1.8829    -4.0182 H       
  48 H48           -0.6719     0.6156    -2.0729 H       
  49 H49           -2.3387     0.1895    -1.6149 H       
  50 H50           -4.6610     3.8776    -4.9575 H       
  51 H51           -3.7153    -0.2393    -5.6816 H       
  52 H52           -3.9134     0.7023    -8.8381 H       
  53 H53           -4.9892    -0.4479    -8.0087 H       
  54 H54           -5.6574     1.0392    -8.7230 H       
  55 H55            6.2243    -4.6859    -1.8318 H       
  56 H56            5.9142    -6.3974    -0.0901 H       
  57 H57            4.2284    -6.0751     1.6726 H       
  58 H58            2.8547    -4.0332     1.7083 H       
@<TRIPOS>BOND
   1    1    2 1
   2    1   10 2
   3    1   15 1
   4    2    3 2
   5    2   35 1
   6    3    4 1
   7    3   13 1
   8    4    5 1
   9    4   12 2
  10    5    6 1
  11    5   10 1
  12    6    7 2
  13    6   36 1
  14    7    8 1
  15    7   37 1
  16    8    9 2
  17    8   38 1
  18    9   10 1
  19    9   39 1
  20   11   12 1
  21   11   13 am
  22   11   28 1
  23   13   14 2
  24   15   16 1
  25   15   40 1
  26   15   41 1
  27   16   17 1
  28   16   21 1
  29   17   18 1
  30   17   42 1
  31   17   43 1
  32   18   19 1
  33   18   44 1
  34   18   45 1
  35   19   20 1
  36   19   25 1
  37   20   21 1
  38   20   46 1
  39   20   47 1
  40   21   48 1
  41   21   49 1
  42   22   23 1
  43   22   26 1
  44   22   27 1
  45   23   24 2
  46   24   25 1
  47   24   50 1
  48   25   26 2
  49   26   51 1
  50   27   52 1
  51   27   53 1
  52   27   54 1
  53   28   29 ar
  54   28   33 ar
  55   29   30 ar
  56   29   34 1
  57   30   31 ar
  58   30   55 1
  59   31   32 ar
  60   31   56 1
  61   32   33 ar
  62   32   57 1
  63   33   58 1

#	End of record

