#	Name: ASD01813760
#	Creating user name:	WinNT
#	Creation time:	15. 06. 2019 19:31

#	Modifying user name:	WinNT
#	Modification time:	15. 06. 2019 19:31

#	Program:	/corina/corina34_cracker 3.40 0067  02.08.2006

@<TRIPOS>MOLECULE
ASD01813760
  45   48    0    0    0
SMALL
NO_CHARGES


@<TRIPOS>ATOM
   1 C1            -0.2019     1.2472    -0.0098 C.ar    
   2 C2            -0.1226    -0.1379    -0.0209 C.ar    
   3 C3             1.1019    -0.7732    -0.0295 C.ar    
   4 C4             2.2761    -0.0208    -0.0270 C.ar    
   5 C5             2.1910     1.3814    -0.0157 C.ar    
   6 C6             0.9454     2.0092    -0.0071 C.ar    
   7 N7             3.5066    -0.6428    -0.0345 N.pl3   
   8 C8             4.6616     0.0341    -0.0311 C.2     
   9 C9             4.7056     1.4138    -0.0198 C.2     
  10 C10            3.4403     2.1654    -0.0132 C.2     
  11 O11            3.4253     3.3838    -0.0035 O.2     
  12 C12            5.9944     2.1203    -0.0155 C.2     
  13 O13            6.0242     3.4680    -0.0045 O.3     
  14 O14            7.0335     1.4894    -0.0218 O.2     
  15 C15            3.5520    -2.1071    -0.0461 C.3     
  16 C16            3.4171    -2.6026    -1.4629 C.ar    
  17 N17            2.2198    -2.7613    -1.9945 N.ar    
  18 N18            2.0528    -3.1803    -3.1961 N.ar    
  19 C19            3.0766    -3.4823    -3.9850 C.ar    
  20 C20            4.3819    -3.3447    -3.5062 C.ar    
  21 C21            4.5518    -2.8860    -2.2089 C.ar    
  22 F22            1.1636    -2.1227    -0.0398 F       
  23 C23            2.8362    -3.9637    -5.3675 C.ar    
  24 C24            1.9027    -4.9706    -5.6049 C.ar    
  25 C25            1.6827    -5.4143    -6.8933 C.ar    
  26 C26            2.3871    -4.8618    -7.9475 C.ar    
  27 C27            3.3152    -3.8619    -7.7176 C.ar    
  28 C28            3.5390    -3.4065    -6.4343 C.ar    
  29 C29            1.1351    -5.5742    -4.4571 C.3     
  30 H30           -1.1679     1.7302    -0.0077 H       
  31 H31           -1.0291    -0.7250    -0.0225 H       
  32 H32            0.8810     3.0873     0.0012 H       
  33 H33            5.5900    -0.5178    -0.0370 H       
  34 H34            6.8953     3.8879    -0.0020 H       
  35 H35            4.5022    -2.4444     0.3679 H       
  36 H36            2.7331    -2.5007     0.5560 H       
  37 H37            5.2316    -3.5838    -4.1284 H       
  38 H38            5.5388    -2.7608    -1.7885 H       
  39 H39            0.9594    -6.1947    -7.0785 H       
  40 H40            2.2124    -5.2126    -8.9539 H       
  41 H41            3.8627    -3.4342    -8.5445 H       
  42 H42            4.2635    -2.6257    -6.2560 H       
  43 H43            0.2656    -4.9552    -4.2359 H       
  44 H44            0.8072    -6.5780    -4.7273 H       
  45 H45            1.7773    -5.6261    -3.5779 H       
@<TRIPOS>BOND
   1    1    2 ar
   2    1    6 ar
   3    1   30 1
   4    2    3 ar
   5    2   31 1
   6    3   22 1
   7    3    4 ar
   8    4    5 ar
   9    4    7 1
  10    5    6 ar
  11    5   10 1
  12    6   32 1
  13    7    8 1
  14    7   15 1
  15    8    9 2
  16    8   33 1
  17    9   10 1
  18    9   12 1
  19   10   11 2
  20   12   13 1
  21   12   14 2
  22   13   34 1
  23   15   16 1
  24   15   35 1
  25   15   36 1
  26   16   17 ar
  27   16   21 ar
  28   17   18 ar
  29   18   19 ar
  30   19   20 ar
  31   19   23 1
  32   20   21 ar
  33   20   37 1
  34   21   38 1
  35   23   24 ar
  36   23   28 ar
  37   24   25 ar
  38   24   29 1
  39   25   26 ar
  40   25   39 1
  41   26   27 ar
  42   26   40 1
  43   27   28 ar
  44   27   41 1
  45   28   42 1
  46   29   43 1
  47   29   44 1
  48   29   45 1

#	End of record

