#	Name: ASD03081147
#	Creating user name:	WinNT
#	Creation time:	15. 06. 2019 20:27

#	Modifying user name:	WinNT
#	Modification time:	15. 06. 2019 20:27

#	Program:	/corina/corina34_cracker 3.40 0067  02.08.2006

@<TRIPOS>MOLECULE
ASD03081147
  29   32    0    0    0
SMALL
NO_CHARGES


@<TRIPOS>ATOM
   1 O1            -0.0144     1.2085     0.0087 O.3     
   2 N2             0.0021    -0.0041     0.0020 N.2     
   3 C3             1.2348    -0.4422    -0.0121 C.2     
   4 N4             2.0458     0.6363    -0.0141 N.2     
   5 C5             1.2411     1.6828    -0.0008 C.2     
   6 C6             3.0155    -2.1956    -0.0380 C.ar    
   7 C7             1.6625    -1.8636    -0.0238 C.ar    
   8 C8             0.7148    -2.8901    -0.0203 C.ar    
   9 C9             1.1648    -4.1995    -0.0312 C.ar    
  10 C10            2.5251    -4.4470    -0.0450 C.ar    
  11 N11            3.3964    -3.4565    -0.0480 N.ar    
  12 O12            2.5235     7.1144     0.0160 O.3     
  13 C13            1.3002     7.6719     0.0312 C.2     
  14 C14            0.3580     6.7197     0.0353 C.2     
  15 C15            1.0729     5.4372     0.0211 C.ar    
  16 C16            2.4399     5.7690     0.0094 C.ar    
  17 C17            0.6765     4.1038     0.0173 C.ar    
  18 C18            1.6453     3.1041     0.0026 C.ar    
  19 C19            3.0030     3.4464    -0.0085 C.ar    
  20 C20            3.3916     4.7550    -0.0056 C.ar    
  21 H21            3.7586    -1.4120    -0.0454 H       
  22 H22           -0.3420    -2.6679    -0.0091 H       
  23 H23            0.4610    -5.0187    -0.0285 H       
  24 H24            2.8798    -5.4670    -0.0532 H       
  25 H25            1.1053     8.7341     0.0394 H       
  26 H26           -0.7120     6.8659     0.0473 H       
  27 H27           -0.3724     3.8467     0.0266 H       
  28 H28            3.7506     2.6670    -0.0199 H       
  29 H29            4.4425     5.0039    -0.0147 H       
@<TRIPOS>BOND
   1    1    2 1
   2    1    5 1
   3    2    3 2
   4    3    4 1
   5    3    7 1
   6    4    5 2
   7    5   18 1
   8    6    7 ar
   9    6   11 ar
  10    6   21 1
  11    7    8 ar
  12    8    9 ar
  13    8   22 1
  14    9   10 ar
  15    9   23 1
  16   10   11 ar
  17   10   24 1
  18   12   13 1
  19   12   16 1
  20   13   14 2
  21   13   25 1
  22   14   15 1
  23   14   26 1
  24   15   16 ar
  25   15   17 ar
  26   16   20 ar
  27   17   18 ar
  28   17   27 1
  29   18   19 ar
  30   19   20 ar
  31   19   28 1
  32   20   29 1

#	End of record

