#	Name: ASD01028224
#	Creating user name:	WinNT
#	Creation time:	15. 06. 2019 18:56

#	Modifying user name:	WinNT
#	Modification time:	15. 06. 2019 18:56

#	Program:	/corina/corina34_cracker 3.40 0067  02.08.2006

@<TRIPOS>MOLECULE
ASD01028224
  48   52    0    0    0
SMALL
NO_CHARGES


@<TRIPOS>ATOM
   1 C1            -0.0187     4.1451     0.9962 C.ar    
   2 C2            -0.3892     2.8236     0.8951 C.ar    
   3 C3             1.3254     4.5201     0.9060 C.ar    
   4 C4             2.2971     3.5870     0.7163 C.ar    
   5 C5             1.9519     2.2312     0.6093 C.ar    
   6 C6             0.5940     1.8401     0.6991 C.ar    
   7 C7             2.9373     1.2378     0.4116 C.ar    
   8 C8             2.5216    -0.0783     0.3149 C.ar    
   9 C9             1.1699    -0.3828     0.4130 C.ar    
  10 N10            0.2627     0.5476     0.5972 N.ar    
  11 O11            4.2499     1.5644     0.3191 O.3     
  12 C12            5.1728     0.4919     0.1192 C.3     
  13 C13            6.5735     1.0423     0.0414 C.2     
  14 N14            7.4229     1.2230     1.0835 N.pl3   
  15 C15            8.5766     1.7426     0.5446 C.2     
  16 N16            8.3765     1.8484    -0.7585 N.2     
  17 N17            7.1943     1.4280    -1.0455 N.2     
  18 N18            7.3319     0.9959     2.4581 N.2     
  19 C19            8.3466     1.2760     3.2491 C.2     
  20 C20            9.5446     1.8111     2.7248 C.2     
  21 C21            9.6616     2.0414     1.3910 C.2     
  22 C22            8.2310     1.0286     4.7013 C.2     
  23 O23           -0.9702     5.0968     1.1801 O.3     
  24 C24           -0.5234     6.4506     1.2775 C.3     
  25 C25            7.1294     0.5170     5.3263 C.2     
  26 C26            7.2521     0.3752     6.6797 C.2     
  27 C27            8.4615     0.7697     7.1890 C.2     
  28 S28            9.4933     1.3411     5.8847 S.3     
  29 C29            8.8266     0.7194     8.5553 C.2     
  30 O30            8.0800     0.2068     9.3651 O.2     
  31 Cl31          10.3413     1.3903     9.0743 Cl      
  32 C32            6.1450    -0.1714     7.5438 C.3     
  33 H33           -1.4300     2.5444     0.9664 H       
  34 H34            1.5952     5.5626     0.9876 H       
  35 H35            3.3317     3.8891     0.6480 H       
  36 H36            3.2451    -0.8656     0.1634 H       
  37 H37            0.8568    -1.4136     0.3361 H       
  38 H38            5.1030    -0.2075     0.9524 H       
  39 H39            4.9334    -0.0251    -0.8101 H       
  40 H40           10.3689     2.0366     3.3852 H       
  41 H41           10.5750     2.4504     0.9851 H       
  42 H42           -1.3815     7.1069     1.4228 H       
  43 H43            0.1565     6.5488     2.1239 H       
  44 H44           -0.0044     6.7288     0.3603 H       
  45 H45            6.2307     0.2460     4.7921 H       
  46 H46            6.3025    -1.2378     7.7047 H       
  47 H47            6.1450     0.3448     8.5038 H       
  48 H48            5.1868    -0.0164     7.0479 H       
@<TRIPOS>BOND
   1    1    2 ar
   2    1    3 ar
   3    1   23 1
   4    2    6 ar
   5    2   33 1
   6    3    4 ar
   7    3   34 1
   8    4    5 ar
   9    4   35 1
  10    5    6 ar
  11    5    7 ar
  12    6   10 ar
  13    7    8 ar
  14    7   11 1
  15    8    9 ar
  16    8   36 1
  17    9   10 ar
  18    9   37 1
  19   11   12 1
  20   12   13 1
  21   12   38 1
  22   12   39 1
  23   13   14 1
  24   13   17 2
  25   14   15 1
  26   14   18 1
  27   15   16 2
  28   15   21 1
  29   16   17 1
  30   18   19 2
  31   19   20 1
  32   19   22 1
  33   20   21 2
  34   20   40 1
  35   21   41 1
  36   22   25 2
  37   22   28 1
  38   23   24 1
  39   24   42 1
  40   24   43 1
  41   24   44 1
  42   25   26 1
  43   25   45 1
  44   26   27 2
  45   26   32 1
  46   27   28 1
  47   27   29 1
  48   29   30 2
  49   29   31 1
  50   32   46 1
  51   32   47 1
  52   32   48 1

#	End of record

