#	Name: ASD04590121
#	Creating user name:	WinNT
#	Creation time:	15. 06. 2019 20:50

#	Modifying user name:	WinNT
#	Modification time:	15. 06. 2019 20:50

#	Program:	/corina/corina34_cracker 3.40 0067  02.08.2006

@<TRIPOS>MOLECULE
ASD04590121
  56   59    0    0    0
SMALL
NO_CHARGES


@<TRIPOS>ATOM
   1 N1             0.3067     1.2301     0.5946 N.pl3   
   2 N2             0.3138    -0.0529     0.5338 N.2     
   3 C3             1.5180    -0.4885     0.2173 C.2     
   4 C4             2.3470     0.6530     0.0656 C.2     
   5 C5             1.5414     1.7201     0.3131 C.2     
   6 C6             1.9258    -1.8965     0.0525 C.2     
   7 N7             1.0255    -2.8839     0.2287 N.am    
   8 O8             3.0741    -2.1663    -0.2423 O.2     
   9 N9             3.7091     0.6759    -0.2688 N.am    
  10 C10            4.3575     1.8528    -0.3743 C.2     
  11 C11            6.7620     1.8344     0.2783 C.ar    
  12 C12            5.7914     1.8768    -0.7263 C.ar    
  13 C13            1.4305    -4.2822     0.0651 C.3     
  14 C14            0.4999    -5.1834     0.8815 C.3     
  15 C15            0.8896    -6.6464     0.6585 C.3     
  16 N16            0.7846    -6.9700    -0.7700 N.3     
  17 C17            1.7039    -6.1499    -1.5692 C.3     
  18 C18            1.3384    -4.6720    -1.4127 C.3     
  19 C19            8.1009     1.8568    -0.0589 C.ar    
  20 C20            8.4824     1.9216    -1.3870 C.ar    
  21 C21            7.5276     1.9634    -2.3870 C.ar    
  22 C22            6.1847     1.9417    -2.0658 C.ar    
  23 Cl23           6.2856     1.7609     1.9460 Cl      
  24 Cl24           4.9883     1.9944    -3.3226 Cl      
  25 O25            3.7616     2.8947    -0.1797 O.2     
  26 C26            1.0173    -8.4015    -1.0040 C.3     
  27 C27           -0.2212    -9.1950    -0.5829 C.3     
  28 C28           -1.4208    -8.8402    -1.4828 C.3     
  29 C29           -0.0020   -10.7087    -0.8220 C.3     
  30 C30           -1.3803   -11.1531    -1.3745 C.3     
  31 O31           -1.7926   -10.0352    -2.1899 O.3     
  32 H32           -0.4698     1.7713     0.8069 H       
  33 H33            1.8291     2.7608     0.2898 H       
  34 H34            0.1094    -2.6686     0.4639 H       
  35 H35            4.1844    -0.1553    -0.4241 H       
  36 H36            2.4560    -4.4075     0.4127 H       
  37 H37            0.5929    -4.9392     1.9397 H       
  38 H38           -0.5303    -5.0283     0.5609 H       
  39 H39            1.9153    -6.8039     0.9922 H       
  40 H40            0.2198    -7.2914     1.2272 H       
  41 H41            2.7258    -6.3097    -1.2251 H       
  42 H42            1.6255    -6.4343    -2.6185 H       
  43 H43            0.3215    -4.5089    -1.7695 H       
  44 H44            2.0306    -4.0625    -1.9937 H       
  45 H45            8.8522     1.8240     0.7163 H       
  46 H46            9.5311     1.9392    -1.6444 H       
  47 H47            7.8331     2.0143    -3.4217 H       
  48 H48            1.2137    -8.5693    -2.0629 H       
  49 H49            1.8760    -8.7304    -0.4186 H       
  50 H50           -0.4590    -9.0025     0.4633 H       
  51 H51           -2.2548    -8.4972    -0.8705 H       
  52 H52           -1.1350    -8.0635    -2.1921 H       
  53 H53            0.7844   -10.8764    -1.5579 H       
  54 H54            0.2260   -11.2212     0.1126 H       
  55 H55           -1.2788   -12.0534    -1.9805 H       
  56 H56           -2.0862   -11.3150    -0.5599 H       
@<TRIPOS>BOND
   1    1    2 1
   2    1    5 1
   3    1   32 1
   4    2    3 2
   5    3    4 1
   6    3    6 1
   7    4    5 2
   8    4    9 1
   9    5   33 1
  10    6    7 am
  11    6    8 2
  12    7   13 1
  13    7   34 1
  14    9   10 am
  15    9   35 1
  16   10   25 2
  17   10   12 1
  18   11   12 ar
  19   11   19 ar
  20   11   23 1
  21   12   22 ar
  22   13   14 1
  23   13   18 1
  24   13   36 1
  25   14   15 1
  26   14   37 1
  27   14   38 1
  28   15   16 1
  29   15   39 1
  30   15   40 1
  31   16   17 1
  32   16   26 1
  33   17   18 1
  34   17   41 1
  35   17   42 1
  36   18   43 1
  37   18   44 1
  38   19   20 ar
  39   19   45 1
  40   20   21 ar
  41   20   46 1
  42   21   22 ar
  43   21   47 1
  44   22   24 1
  45   26   27 1
  46   26   48 1
  47   26   49 1
  48   27   28 1
  49   27   29 1
  50   27   50 1
  51   28   31 1
  52   28   51 1
  53   28   52 1
  54   29   30 1
  55   29   53 1
  56   29   54 1
  57   30   31 1
  58   30   55 1
  59   30   56 1

#	End of record

