#	Name: ASD03331335
#	Creating user name:	WinNT
#	Creation time:	15. 06. 2019 20:39

#	Modifying user name:	WinNT
#	Modification time:	15. 06. 2019 20:39

#	Program:	/corina/corina34_cracker 3.40 0067  02.08.2006

@<TRIPOS>MOLECULE
ASD03331335
  54   56    0    0    0
SMALL
NO_CHARGES


@<TRIPOS>ATOM
   1 C1             0.1152     1.1490     1.2122 C.3     
   2 C2             0.1038    -0.3219     0.8804 C.2     
   3 C3             1.1885    -0.9936     0.4245 C.2     
   4 C4             2.5285    -0.3396     0.1939 C.3     
   5 C5             2.3127     1.1801     0.1716 C.3     
   6 N6             1.5170     1.5830     1.3394 N.3     
   7 N7            -0.5236    -2.4120     0.5831 N.2     
   8 N8             0.8303    -2.2858     0.2346 N.am    
   9 C9            -0.9617    -1.2315     0.9714 C.2     
  10 C10            1.6311    -3.2744    -0.2102 C.2     
  11 O11            2.7921    -3.0402    -0.4812 O.2     
  12 N12            1.1440    -4.5227    -0.3544 N.am    
  13 C13            1.6013     3.0330     1.5591 C.3     
  14 C14            2.0360    -5.5868    -2.3677 C.3     
  15 C15            2.0144    -5.5973    -0.8379 C.3     
  16 C16            1.4834    -6.9448    -0.3445 C.3     
  17 C17            2.3053    -8.0755    -0.9665 C.3     
  18 C18            1.5970    -7.0105     1.1798 C.3     
  19 C19            0.0168    -7.0956    -0.7537 C.3     
  20 O20            0.7198    -5.8380    -2.8643 O.3     
  21 C21           -2.3391    -0.9186     1.4255 C.ar    
  22 C22           -2.9749    -1.7440     2.3541 C.ar    
  23 C23           -4.2580    -1.4475     2.7740 C.ar    
  24 C24           -4.9118    -0.3356     2.2754 C.ar    
  25 C25           -4.2857     0.4868     1.3532 C.ar    
  26 C26           -3.0002     0.2032     0.9309 C.ar    
  27 F27           -4.9306     1.5709     0.8695 F       
  28 F28           -2.3376    -2.8311     2.8414 F       
  29 H29           -0.3720     1.7095     0.4143 H       
  30 H30           -0.4085     1.3176     2.1531 H       
  31 H31            3.2116    -0.6035     1.0013 H       
  32 H32            2.9399    -0.6679    -0.7606 H       
  33 H33            3.2787     1.6843     0.1993 H       
  34 H34            1.7847     1.4583    -0.7405 H       
  35 H35            0.2171    -4.7097    -0.1380 H       
  36 H36            1.0704     3.2932     2.4748 H       
  37 H37            2.6471     3.3266     1.6495 H       
  38 H38            1.1489     3.5551     0.7160 H       
  39 H39            2.3775    -4.6134    -2.7196 H       
  40 H40            2.7138    -6.3613    -2.7268 H       
  41 H41            3.0250    -5.4444    -0.4592 H       
  42 H42            3.3501    -7.9680    -0.6750 H       
  43 H43            1.9269    -9.0354    -0.6150 H       
  44 H44            2.2243    -8.0287    -2.0524 H       
  45 H45            1.0114    -6.2049     1.6229 H       
  46 H46            1.2186    -7.9704     1.5313 H       
  47 H47            2.6418    -6.9030     1.4713 H       
  48 H48           -0.0466    -7.2384    -1.8324 H       
  49 H49           -0.4148    -7.9588    -0.2469 H       
  50 H50           -0.5329    -6.1972    -0.4731 H       
  51 H51            0.6584    -5.8458    -3.8294 H       
  52 H52           -4.7510    -2.0855     3.4926 H       
  53 H53           -5.9144    -0.1079     2.6060 H       
  54 H54           -2.5112     0.8477     0.2155 H       
@<TRIPOS>BOND
   1    1    2 1
   2    1    6 1
   3    1   29 1
   4    1   30 1
   5    2    3 2
   6    2    9 1
   7    3    4 1
   8    3    8 1
   9    4    5 1
  10    4   31 1
  11    4   32 1
  12    5    6 1
  13    5   33 1
  14    5   34 1
  15    6   13 1
  16    7    8 1
  17    7    9 2
  18    8   10 am
  19    9   21 1
  20   10   11 2
  21   10   12 am
  22   12   15 1
  23   12   35 1
  24   13   36 1
  25   13   37 1
  26   13   38 1
  27   14   20 1
  28   14   15 1
  29   14   39 1
  30   14   40 1
  31   15   16 1
  32   15   41 1
  33   16   17 1
  34   16   18 1
  35   16   19 1
  36   17   42 1
  37   17   43 1
  38   17   44 1
  39   18   45 1
  40   18   46 1
  41   18   47 1
  42   19   48 1
  43   19   49 1
  44   19   50 1
  45   20   51 1
  46   21   22 ar
  47   21   26 ar
  48   22   23 ar
  49   22   28 1
  50   23   24 ar
  51   23   52 1
  52   24   25 ar
  53   24   53 1
  54   25   26 ar
  55   25   27 1
  56   26   54 1

#	End of record

