#	Name: ASD01884378
#	Creating user name:	WinNT
#	Creation time:	15. 06. 2019 19:48

#	Modifying user name:	WinNT
#	Modification time:	15. 06. 2019 19:48

#	Program:	/corina/corina34_cracker 3.40 0067  02.08.2006

@<TRIPOS>MOLECULE
ASD01884378
  57   59    0    0    0
SMALL
NO_CHARGES


@<TRIPOS>ATOM
   1 C1             0.2926     1.4723    -0.0578 C.2     
   2 C2             0.1882     0.0839    -0.0296 C.2     
   3 C3            -1.0793    -0.4977     0.0210 C.2     
   4 C4            -2.1876     0.2848     0.0417 C.2     
   5 N5            -2.0939     1.6365     0.0145 N.am    
   6 C6            -0.8953     2.2487    -0.0285 C.2     
   7 O7            -0.8310     3.4658    -0.0525 O.2     
   8 C8            -3.3157     2.4444     0.0379 C.3     
   9 C9             1.5759     2.1056    -0.1093 C.1     
  10 N10            2.5939     2.6080    -0.1502 N.1     
  11 N11            1.8020    -1.1312     1.3209 N.3     
  12 C12            2.8545    -2.1568     1.3307 C.3     
  13 C13            3.2741    -2.4396     2.7751 C.3     
  14 N14            2.1034    -2.8830     3.5448 N.3     
  15 C15            1.0510    -1.8574     3.5350 C.3     
  16 C16            0.6313    -1.5747     2.0906 C.3     
  17 N17            2.4542    -3.2124     4.8233 N.pl3   
  18 C18           -3.6964     2.7516     1.4876 C.3     
  19 C19            1.4248    -0.7770    -0.0539 C.3     
  20 C20           -4.9725     3.5954     1.5119 C.3     
  21 C21           -5.4226     3.7976     2.9601 C.3     
  22 C22           -4.6965     4.9560     0.8689 C.3     
  23 C23            2.1477    -4.4784     5.3274 C.ar    
  24 C24            2.5959    -4.8530     6.5877 C.ar    
  25 C25            2.2907    -6.1054     7.0834 C.ar    
  26 C26            1.5397    -6.9861     6.3265 C.ar    
  27 C27            1.0919    -6.6163     5.0715 C.ar    
  28 C28            1.3891    -5.3636     4.5720 C.ar    
  29 H29           -1.1783    -1.5730     0.0434 H       
  30 H30           -3.1626    -0.1782     0.0802 H       
  31 H31           -3.1443     3.3778    -0.4984 H       
  32 H32           -4.1249     1.8934    -0.4414 H       
  33 H33            2.4746    -3.0720     0.8766 H       
  34 H34            3.7152    -1.8000     0.7651 H       
  35 H35            4.0342    -3.2208     2.7867 H       
  36 H36            3.6793    -1.5310     3.2206 H       
  37 H37            0.1902    -2.2142     4.1006 H       
  38 H38            1.4309    -0.9422     3.9891 H       
  39 H39           -0.1287    -0.7934     2.0790 H       
  40 H40            0.2262    -2.4833     1.6451 H       
  41 H41            2.9161    -2.5670     5.3810 H       
  42 H42           -3.8678     1.8182     2.0238 H       
  43 H43           -2.8872     3.3026     1.9668 H       
  44 H44            1.2237    -1.6859    -0.6211 H       
  45 H45            2.2405    -0.2281    -0.5245 H       
  46 H46           -5.7575     3.0831     0.9556 H       
  47 H47           -4.6376     4.3098     3.5165 H       
  48 H48           -6.3317     4.3987     2.9775 H       
  49 H49           -5.6192     2.8283     3.4182 H       
  50 H50           -3.9115     5.4683     1.4252 H       
  51 H51           -4.3758     4.8120    -0.1628 H       
  52 H52           -5.6056     5.5572     0.8863 H       
  53 H53            3.1827    -4.1658     7.1792 H       
  54 H54            2.6391    -6.3974     8.0630 H       
  55 H55            1.3027    -7.9650     6.7164 H       
  56 H56            0.5056    -7.3065     4.4830 H       
  57 H57            1.0388    -5.0753     3.5919 H       
@<TRIPOS>BOND
   1    1    2 2
   2    1    9 1
   3    1    6 1
   4    2    3 1
   5    2   19 1
   6    3    4 2
   7    3   29 1
   8    4    5 1
   9    4   30 1
  10    5    6 am
  11    5    8 1
  12    6    7 2
  13    8   18 1
  14    8   31 1
  15    8   32 1
  16    9   10 3
  17   11   12 1
  18   11   16 1
  19   11   19 1
  20   12   13 1
  21   12   33 1
  22   12   34 1
  23   13   14 1
  24   13   35 1
  25   13   36 1
  26   14   15 1
  27   14   17 1
  28   15   16 1
  29   15   37 1
  30   15   38 1
  31   16   39 1
  32   16   40 1
  33   17   23 1
  34   17   41 1
  35   18   20 1
  36   18   42 1
  37   18   43 1
  38   19   44 1
  39   19   45 1
  40   20   21 1
  41   20   22 1
  42   20   46 1
  43   21   47 1
  44   21   48 1
  45   21   49 1
  46   22   50 1
  47   22   51 1
  48   22   52 1
  49   23   24 ar
  50   23   28 ar
  51   24   25 ar
  52   24   53 1
  53   25   26 ar
  54   25   54 1
  55   26   27 ar
  56   26   55 1
  57   27   28 ar
  58   27   56 1
  59   28   57 1

#	End of record

