#	Name: ASD01914899
#	Creating user name:	WinNT
#	Creation time:	15. 06. 2019 20:04

#	Modifying user name:	WinNT
#	Modification time:	15. 06. 2019 20:04

#	Program:	/corina/corina34_cracker 3.40 0067  02.08.2006

@<TRIPOS>MOLECULE
ASD01914899
  40   41    0    0    0
SMALL
NO_CHARGES


@<TRIPOS>ATOM
   1 C1             0.6367    -0.8603    -1.4980 C.3     
   2 C2            -0.4212    -0.0457    -0.8107 C.2     
   3 C3            -0.5046     1.2623    -0.9219 C.2     
   4 C4             0.4506     2.0682    -1.7574 C.3     
   5 C5             1.6929     1.2313    -2.0731 C.3     
   6 N6             1.2570    -0.0813    -2.5771 N.3     
   7 C7             2.3798    -0.8143    -3.1771 C.3     
   8 O8            -3.0773    -1.0528     1.2544 O.3     
   9 N9            -2.4487    -0.2233     0.6437 N.2     
  10 C10           -1.4147    -0.7459     0.0289 C.2     
  11 C11           -1.4580    -2.1859     0.3566 C.2     
  12 C12           -2.5662    -2.2860     1.1518 C.2     
  13 C13           -0.5324    -3.2551    -0.0707 C.2     
  14 C14           -0.8834    -4.5273     0.0599 C.2     
  15 C15            0.0608    -5.6180    -0.3760 C.3     
  16 C16            0.3040    -6.5781     0.7901 C.3     
  17 C17            1.2626    -7.6855     0.3476 C.3     
  18 C18            1.5059    -8.6456     1.5137 C.3     
  19 H19            1.3999    -1.1455    -0.7739 H       
  20 H20            0.1849    -1.7599    -1.9159 H       
  21 H21           -1.2914     1.7782    -0.3917 H       
  22 H22           -0.0373     2.3583    -2.6880 H       
  23 H23            0.7458     2.9630    -1.2094 H       
  24 H24            2.2904     1.7351    -2.8328 H       
  25 H25            2.2843     1.0978    -1.1673 H       
  26 H26            2.0196    -1.7569    -3.5891 H       
  27 H27            2.8210    -0.2147    -3.9734 H       
  28 H28            3.1319    -1.0150    -2.4141 H       
  29 H29           -2.9536    -3.1848     1.6083 H       
  30 H30            0.4300    -3.0007    -0.4895 H       
  31 H31           -1.8459    -4.7817     0.4786 H       
  32 H32           -0.3765    -6.1646    -1.2116 H       
  33 H33            1.0076    -5.1763    -0.6865 H       
  34 H34            0.7413    -6.0315     1.6257 H       
  35 H35           -0.6428    -7.0199     1.1006 H       
  36 H36            0.8254    -8.2321    -0.4879 H       
  37 H37            2.2095    -7.2437     0.0371 H       
  38 H38            1.9431    -8.0990     2.3493 H       
  39 H39            0.5590    -9.0873     1.8242 H       
  40 H40            2.1888    -9.4345     1.1985 H       
@<TRIPOS>BOND
   1    1    2 1
   2    1    6 1
   3    1   19 1
   4    1   20 1
   5    2    3 2
   6    2   10 1
   7    3    4 1
   8    3   21 1
   9    4    5 1
  10    4   22 1
  11    4   23 1
  12    5    6 1
  13    5   24 1
  14    5   25 1
  15    6    7 1
  16    7   26 1
  17    7   27 1
  18    7   28 1
  19    8    9 1
  20    8   12 1
  21    9   10 2
  22   10   11 1
  23   11   12 2
  24   11   13 1
  25   12   29 1
  26   13   14 2
  27   13   30 1
  28   14   15 1
  29   14   31 1
  30   15   16 1
  31   15   32 1
  32   15   33 1
  33   16   17 1
  34   16   34 1
  35   16   35 1
  36   17   18 1
  37   17   36 1
  38   17   37 1
  39   18   38 1
  40   18   39 1
  41   18   40 1

#	End of record

