#	Name: ASD00170552
#	Creating user name:	WinNT
#	Creation time:	15. 06. 2019 18:32

#	Modifying user name:	WinNT
#	Modification time:	15. 06. 2019 18:32

#	Program:	/corina/corina34_cracker 3.40 0067  02.08.2006

@<TRIPOS>MOLECULE
ASD00170552
  53   56    0    0    0
SMALL
NO_CHARGES


@<TRIPOS>ATOM
   1 C1             1.5261     0.7978     1.1361 C.ar    
   2 N2             1.1999    -0.5295     0.8451 N.3     
   3 C3             1.9946    -1.4582     1.6609 C.3     
   4 C4             1.5526    -2.8945     1.3706 C.3     
   5 N5             1.7239    -3.1770    -0.0613 N.3     
   6 C6             0.9292    -2.2483    -0.8771 C.3     
   7 C7             1.3712    -0.8121    -0.5869 C.3     
   8 C8             1.3810    -4.5723    -0.3673 C.3     
   9 C9            -0.0785    -4.8067    -0.0742 C.2     
  10 C10           -0.5235    -5.2785     1.0800 C.2     
  11 S11           -2.2720    -5.4215     1.0662 S.3     
  12 C12           -2.3844    -4.8312    -0.5288 C.2     
  13 C13           -1.1362    -4.5329    -1.0242 C.2     
  14 C14           -0.9022    -4.0056    -2.3683 C.2     
  15 O15           -1.0396    -2.8157    -2.5880 O.2     
  16 C16           -0.4986    -4.9173    -3.4604 C.ar    
  17 C17           -0.1613    -4.4033    -4.7139 C.ar    
  18 C18            0.2142    -5.2584    -5.7284 C.ar    
  19 C19            0.2572    -6.6249    -5.5058 C.ar    
  20 C20           -0.0763    -7.1407    -4.2643 C.ar    
  21 C21           -0.4478    -6.2950    -3.2404 C.ar    
  22 Cl22           0.7304    -7.6952    -6.7880 Cl      
  23 N23           -3.5650    -4.6694    -1.2250 N.pl3   
  24 C24            2.8414     1.2308     1.0278 C.ar    
  25 C25            3.1609     2.5433     1.3156 C.ar    
  26 C26            2.1720     3.4266     1.7116 C.ar    
  27 C27            0.8608     2.9979     1.8204 C.ar    
  28 C28            0.5348     1.6879     1.5287 C.ar    
  29 Cl29           2.5772     5.0754     2.0732 Cl      
  30 C30            0.5179     0.1597    -1.4045 C.3     
  31 H31            3.0506    -1.3460     1.4151 H       
  32 H32            1.8413    -1.2370     2.7171 H       
  33 H33            2.1605    -3.5868     1.9531 H       
  34 H34            0.5038    -3.0140     1.6420 H       
  35 H35            1.0825    -2.4696    -1.9334 H       
  36 H36           -0.1268    -2.3605    -0.6313 H       
  37 H37            2.4201    -0.6925    -0.8582 H       
  38 H38            1.5766    -4.7719    -1.4208 H       
  39 H39            1.9865    -5.2384     0.2473 H       
  40 H40            0.1057    -5.5408     1.9177 H       
  41 H41           -0.1948    -3.3381    -4.8887 H       
  42 H42            0.4750    -4.8620    -6.6986 H       
  43 H43           -0.0409    -8.2070    -4.0966 H       
  44 H44           -0.7073    -6.6983    -2.2727 H       
  45 H45           -4.4023    -4.9665    -0.8357 H       
  46 H46           -3.5575    -4.2586    -2.1037 H       
  47 H47            3.6137     0.5418     0.7191 H       
  48 H48            4.1835     2.8804     1.2319 H       
  49 H49            0.0911     3.6893     2.1300 H       
  50 H50           -0.4888     1.3539     1.6134 H       
  51 H51           -0.5307     0.0403    -1.1320 H       
  52 H52            0.8330     1.1825    -1.1976 H       
  53 H53            0.6437    -0.0514    -2.4665 H       
@<TRIPOS>BOND
   1    1    2 1
   2    1   24 ar
   3    1   28 ar
   4    2    3 1
   5    2    7 1
   6    3    4 1
   7    3   31 1
   8    3   32 1
   9    4    5 1
  10    4   33 1
  11    4   34 1
  12    5    6 1
  13    5    8 1
  14    6    7 1
  15    6   35 1
  16    6   36 1
  17    7   30 1
  18    7   37 1
  19    8    9 1
  20    8   38 1
  21    8   39 1
  22    9   10 2
  23    9   13 1
  24   10   11 1
  25   10   40 1
  26   11   12 1
  27   12   13 2
  28   12   23 1
  29   13   14 1
  30   14   15 2
  31   14   16 1
  32   16   17 ar
  33   16   21 ar
  34   17   18 ar
  35   17   41 1
  36   18   19 ar
  37   18   42 1
  38   19   20 ar
  39   19   22 1
  40   20   21 ar
  41   20   43 1
  42   21   44 1
  43   23   45 1
  44   23   46 1
  45   24   25 ar
  46   24   47 1
  47   25   26 ar
  48   25   48 1
  49   26   27 ar
  50   26   29 1
  51   27   28 ar
  52   27   49 1
  53   28   50 1
  54   30   51 1
  55   30   52 1
  56   30   53 1

#	End of record

