#	Name: ASD01883855
#	Creating user name:	WinNT
#	Creation time:	15. 06. 2019 19:47

#	Modifying user name:	WinNT
#	Modification time:	15. 06. 2019 19:47

#	Program:	/corina/corina34_cracker 3.40 0067  02.08.2006

@<TRIPOS>MOLECULE
ASD01883855
  41   44    0    0    0
SMALL
NO_CHARGES


@<TRIPOS>ATOM
   1 O1            -0.0163     1.3537     0.0095 O.3     
   2 C2             0.1896     0.0157    -0.0968 C.2     
   3 C3             1.6497    -1.8712    -0.2670 C.2     
   4 C4             1.4614    -0.4814    -0.1575 C.2     
   5 C5            -0.9072    -0.8694    -0.1392 C.2     
   6 C6            -0.7054    -2.1981    -0.2438 C.2     
   7 N7             2.3651    -3.8730    -0.4339 N.2     
   8 N8             2.7244    -2.6407    -0.3456 N.2     
   9 N9             0.5595    -2.7054    -0.3099 N.pl3   
  10 C10            1.0613    -3.9684    -0.4162 C.2     
  11 C11            0.2598    -5.2418    -0.4988 C.3     
  12 C12            0.0156    -5.7831     0.9113 C.3     
  13 C13           -0.8838    -7.0131     1.0499 C.3     
  14 C14            0.6260    -7.1415     1.2621 C.3     
  15 Cl15           2.8271     0.5888    -0.1010 Cl      
  16 C16           -0.6538     2.0016    -1.0932 C.3     
  17 C17           -0.6851     3.5116    -0.8488 C.3     
  18 C18           -1.3575     4.1948    -2.0117 C.ar    
  19 C19           -2.7248     4.3977    -1.9977 C.ar    
  20 C20           -3.3415     5.0244    -3.0644 C.ar    
  21 C21           -2.5908     5.4486    -4.1448 C.ar    
  22 C22           -1.2234     5.2466    -4.1584 C.ar    
  23 C23           -0.6061     4.6238    -3.0898 C.ar    
  24 H24           -1.9136    -0.4810    -0.0873 H       
  25 H25           -1.5526    -2.8672    -0.2751 H       
  26 H26           -0.6966    -5.0386    -0.9806 H       
  27 H27            0.8103    -5.9806    -1.0813 H       
  28 H28           -0.0320    -5.0332     1.7010 H       
  29 H29           -1.5227    -7.0726     1.9310 H       
  30 H30           -1.3015    -7.4367     0.1366 H       
  31 H31            1.2016    -7.6495     0.4884 H       
  32 H32            0.9803    -7.2855     2.2828 H       
  33 H33           -0.0986     1.7929    -2.0077 H       
  34 H34           -1.6731     1.6286    -1.1939 H       
  35 H35           -1.2404     3.7202     0.0657 H       
  36 H36            0.3341     3.8846    -0.7481 H       
  37 H37           -3.3113     4.0662    -1.1535 H       
  38 H38           -4.4098     5.1822    -3.0538 H       
  39 H39           -3.0727     5.9376    -4.9785 H       
  40 H40           -0.6369     5.5778    -5.0027 H       
  41 H41            0.4628     4.4692    -3.0987 H       
@<TRIPOS>BOND
   1    1    2 1
   2    1   16 1
   3    2    5 1
   4    2    4 2
   5    3    4 1
   6    3    9 1
   7    3    8 2
   8    4   15 1
   9    5    6 2
  10    5   24 1
  11    6    9 1
  12    6   25 1
  13    7    8 1
  14    7   10 2
  15    9   10 1
  16   10   11 1
  17   11   12 1
  18   11   26 1
  19   11   27 1
  20   12   13 1
  21   12   14 1
  22   12   28 1
  23   13   14 1
  24   13   29 1
  25   13   30 1
  26   14   31 1
  27   14   32 1
  28   16   17 1
  29   16   33 1
  30   16   34 1
  31   17   18 1
  32   17   35 1
  33   17   36 1
  34   18   19 ar
  35   18   23 ar
  36   19   20 ar
  37   19   37 1
  38   20   21 ar
  39   20   38 1
  40   21   22 ar
  41   21   39 1
  42   22   23 ar
  43   22   40 1
  44   23   41 1

#	End of record

