#	Name: ASD02508027
#	Creating user name:	WinNT
#	Creation time:	15. 06. 2019 20:23

#	Modifying user name:	WinNT
#	Modification time:	15. 06. 2019 20:23

#	Program:	/corina/corina34_cracker 3.40 0067  02.08.2006

@<TRIPOS>MOLECULE
ASD02508027
  41   43    0    0    0
SMALL
NO_CHARGES


@<TRIPOS>ATOM
   1 C1            -0.0168     1.3843     0.0097 C.ar    
   2 C2             0.0021    -0.0041     0.0020 C.ar    
   3 C3            -1.1846    -0.7102     0.0105 C.ar    
   4 C4            -2.3914    -0.0352     0.0264 C.ar    
   5 C5            -2.4137     1.3477     0.0342 C.ar    
   6 C6            -1.2301     2.0593     0.0306 C.ar    
   7 N7             1.1852     2.0986     0.0020 N.am    
   8 C8             2.3300     1.5033    -0.3796 C.2     
   9 C9             2.3391     0.0653    -0.8236 C.3     
  10 C10            1.3188    -0.7360    -0.0150 C.3     
  11 O11            3.3665     2.1329    -0.3659 O.2     
  12 S12           -3.9040    -0.9388     0.0363 S.o2    
  13 O13           -4.3389    -1.1823    -1.3482 O.2     
  14 O14           -3.7020    -2.2258     0.7206 O.3     
  15 N15           -5.0634    -0.0656     0.8336 N.am    
  16 C16           -6.3543    -0.5809     0.9712 C.ar    
  17 C17           -7.0061    -0.5082     2.1960 C.ar    
  18 C18           -6.9915    -1.1619    -0.1176 C.ar    
  19 C19           -8.2681    -1.6705     0.0219 C.ar    
  20 C20           -8.9119    -1.6013     1.2435 C.ar    
  21 C21           -8.2823    -1.0186     2.3285 C.ar    
  22 C22           -8.9879    -0.9453     3.6581 C.3     
  23 C23          -10.3051    -2.1563     1.3917 C.3     
  24 H24           -1.1702    -1.7901     0.0043 H       
  25 H25           -3.3580     1.8717     0.0463 H       
  26 H26           -1.2482     3.1392     0.0365 H       
  27 H27            1.1938     3.0298     0.2734 H       
  28 H28            2.0842     0.0116    -1.8820 H       
  29 H29            3.3331    -0.3547    -0.6702 H       
  30 H30            1.6794    -0.8571     1.0065 H       
  31 H31            1.1836    -1.7168    -0.4709 H       
  32 H32           -4.8460     0.8036     1.2051 H       
  33 H33           -6.5151    -0.0533     3.0435 H       
  34 H34           -6.4895    -1.2157    -1.0723 H       
  35 H35           -8.7641    -2.1225    -0.8243 H       
  36 H36           -8.7623    -1.8397     4.2388 H       
  37 H37           -8.6480    -0.0638     4.2017 H       
  38 H38          -10.0637    -0.8795     3.4954 H       
  39 H39          -10.2492    -3.2044     1.6857 H       
  40 H40          -10.8414    -1.5929     2.1553 H       
  41 H41          -10.8323    -2.0731     0.4413 H       
@<TRIPOS>BOND
   1    1    2 ar
   2    1    7 1
   3    1    6 ar
   4    2    3 ar
   5    2   10 1
   6    3    4 ar
   7    3   24 1
   8    4    5 ar
   9    4   12 1
  10    5    6 ar
  11    5   25 1
  12    6   26 1
  13    7    8 am
  14    7   27 1
  15    8    9 1
  16    8   11 2
  17    9   10 1
  18    9   28 1
  19    9   29 1
  20   10   30 1
  21   10   31 1
  22   12   13 2
  23   12   14 1
  24   12   15 am
  25   15   16 1
  26   15   32 1
  27   16   17 ar
  28   16   18 ar
  29   17   21 ar
  30   17   33 1
  31   18   19 ar
  32   18   34 1
  33   19   20 ar
  34   19   35 1
  35   20   21 ar
  36   20   23 1
  37   21   22 1
  38   22   36 1
  39   22   37 1
  40   22   38 1
  41   23   39 1
  42   23   40 1
  43   23   41 1

#	End of record

