#	Name: ASD01816823
#	Creating user name:	WinNT
#	Creation time:	15. 06. 2019 19:36

#	Modifying user name:	WinNT
#	Modification time:	15. 06. 2019 19:36

#	Program:	/corina/corina34_cracker 3.40 0067  02.08.2006

@<TRIPOS>MOLECULE
ASD01816823
  59   63    0    0    0
SMALL
NO_CHARGES


@<TRIPOS>ATOM
   1 C1            -0.0168     1.3897     0.0097 C.ar    
   2 C2             0.0021    -0.0041     0.0020 C.ar    
   3 C3             1.1796    -0.6877    -0.0129 C.ar    
   4 C4             2.3927     0.0187    -0.0207 C.ar    
   5 C5             2.3768     1.4381    -0.0130 C.ar    
   6 C6             1.1385     2.1078     0.0025 C.ar    
   7 C7             3.6297    -0.6529    -0.0357 C.ar    
   8 C8             4.7711     0.0956    -0.0422 C.ar    
   9 C9             4.6871     1.4959    -0.0340 C.ar    
  10 N10            3.5238     2.1168    -0.0199 N.ar    
  11 C11            5.9353     2.2963    -0.0412 C.2     
  12 N12            5.8725     3.6426    -0.0335 N.am    
  13 O13            7.0146     1.7386    -0.0541 O.2     
  14 C14            7.1057     4.4335    -0.0406 C.3     
  15 C15            7.5916     4.6119    -1.4823 C.3     
  16 C16            6.8338     5.8121     0.5692 C.3     
  17 C17            8.1068     6.6584     0.4857 C.3     
  18 O18            8.5218     6.7590    -0.8780 O.3     
  19 C19            8.8354     5.5045    -1.4865 C.3     
  20 O20            6.4492     5.6617     1.9372 O.3     
  21 C21            3.6922    -2.1586    -0.0438 C.3     
  22 C22            3.5760    -2.6586    -1.4607 C.ar    
  23 C23            4.7155    -2.8371    -2.2241 C.ar    
  24 C24            2.3306    -2.9427    -1.9913 C.ar    
  25 C25            2.2186    -3.4018    -3.2881 C.ar    
  26 C26            3.3627    -3.5783    -4.0631 C.ar    
  27 C27            4.6148    -3.2948    -3.5224 C.ar    
  28 C28            3.2483    -4.0718    -5.4587 C.2     
  29 C29            4.2804    -4.2888    -6.3243 C.2     
  30 C30            2.0551    -4.4069    -6.1279 C.2     
  31 N31            2.3633    -4.7987    -7.3357 N.2     
  32 N32            3.7541    -4.7334    -7.4833 N.pl3   
  33 C33            4.5075    -5.0872    -8.6889 C.3     
  34 H34           -0.9643     1.9080     0.0170 H       
  35 H35           -0.9302    -0.5493     0.0084 H       
  36 H36            1.1803    -1.7677    -0.0184 H       
  37 H37            1.1059     3.1873     0.0090 H       
  38 H38            5.7363    -0.3889    -0.0533 H       
  39 H39            5.0108     4.0879    -0.0231 H       
  40 H40            7.8712     3.9204     0.5414 H       
  41 H41            7.8402     3.6388    -1.9059 H       
  42 H42            6.8061     5.0788    -2.0763 H       
  43 H43            6.0329     6.3033     0.0166 H       
  44 H44            7.9072     7.6551     0.8793 H       
  45 H45            8.8957     6.1872     1.0719 H       
  46 H46            9.6338     5.0182    -0.9261 H       
  47 H47            9.1606     5.6699    -2.5136 H       
  48 H48            6.2613     6.4969     2.3870 H       
  49 H49            4.6418    -2.4851     0.3800 H       
  50 H50            2.8717    -2.5595     0.5513 H       
  51 H51            5.6858    -2.6176    -1.8037 H       
  52 H52            1.4443    -2.8055    -1.3896 H       
  53 H53            1.2458    -3.6241    -3.7012 H       
  54 H54            5.5048    -3.4296    -4.1191 H       
  55 H55            5.3290    -4.1324    -6.1185 H       
  56 H56            1.0589    -4.3498    -5.7147 H       
  57 H57            4.6131    -4.2068    -9.3228 H       
  58 H58            5.4951    -5.4519    -8.4062 H       
  59 H59            3.9751    -5.8661    -9.2346 H       
@<TRIPOS>BOND
   1    1    2 ar
   2    1    6 ar
   3    1   34 1
   4    2    3 ar
   5    2   35 1
   6    3    4 ar
   7    3   36 1
   8    4    5 ar
   9    4    7 ar
  10    5    6 ar
  11    5   10 ar
  12    6   37 1
  13    7    8 ar
  14    7   21 1
  15    8    9 ar
  16    8   38 1
  17    9   10 ar
  18    9   11 1
  19   11   12 am
  20   11   13 2
  21   12   14 1
  22   12   39 1
  23   14   15 1
  24   14   16 1
  25   14   40 1
  26   15   19 1
  27   15   41 1
  28   15   42 1
  29   16   17 1
  30   16   20 1
  31   16   43 1
  32   17   18 1
  33   17   44 1
  34   17   45 1
  35   18   19 1
  36   19   46 1
  37   19   47 1
  38   20   48 1
  39   21   22 1
  40   21   49 1
  41   21   50 1
  42   22   23 ar
  43   22   24 ar
  44   23   27 ar
  45   23   51 1
  46   24   25 ar
  47   24   52 1
  48   25   26 ar
  49   25   53 1
  50   26   27 ar
  51   26   28 1
  52   27   54 1
  53   28   29 2
  54   28   30 1
  55   29   32 1
  56   29   55 1
  57   30   31 2
  58   30   56 1
  59   31   32 1
  60   32   33 1
  61   33   57 1
  62   33   58 1
  63   33   59 1

#	End of record

