#	Name: ASD09740716
#	Creating user name:	WinNT
#	Creation time:	15. 06. 2019 21:23

#	Modifying user name:	WinNT
#	Modification time:	15. 06. 2019 21:23

#	Program:	/corina/corina34_cracker 3.40 0067  02.08.2006

@<TRIPOS>MOLECULE
ASD09740716
  69   72    0    0    0
SMALL
NO_CHARGES


@<TRIPOS>ATOM
   1 C1             2.1883     2.0027     0.3014 C.1     
   2 C2             1.8260     3.3165    -0.1383 C.ar    
   3 C3             2.8213     4.2533    -0.4519 C.ar    
   4 C4             2.4661     5.5244    -0.8773 C.ar    
   5 C5             1.1361     5.8714    -0.9934 C.ar    
   6 C6             0.1383     4.9467    -0.6838 C.ar    
   7 C7             0.4815     3.6677    -0.2620 C.ar    
   8 N8             2.4757     0.9605     0.6503 N.1     
   9 O9             4.1312     3.9163    -0.3387 O.3     
  10 C10            5.0892     4.9542    -0.5557 C.3     
  11 C11            6.3687     4.6377     0.2212 C.3     
  12 C12            5.4094     5.0486    -2.0489 C.3     
  13 C13           -2.2979     4.4785    -0.5265 C.2     
  14 C14           -1.2909     5.3271    -0.8111 C.2     
  15 C15           -1.6974     6.5868    -1.2327 C.2     
  16 C16           -3.0303     6.7573    -1.2893 C.2     
  17 S17           -3.8409     5.2780    -0.7935 S.3     
  18 C18           -6.4071     8.8137    -4.0968 C.3     
  19 C19           -6.6479     7.2927    -3.9919 C.3     
  20 C20           -5.3042     6.7839    -3.4280 C.3     
  21 C21           -4.7247     7.9572    -2.6674 C.ar    
  22 C22           -3.7115     8.0019    -1.7052 C.ar    
  23 C23           -3.3444     9.2217    -1.1380 C.ar    
  24 C24           -3.9842    10.3796    -1.5300 C.ar    
  25 C25           -4.9856    10.3301    -2.4813 C.ar    
  26 C26           -5.3570     9.1217    -3.0506 C.ar    
  27 O27           -5.9237     9.1505    -5.3987 O.3     
  28 Si28          -7.0766     9.7016    -6.4124 Si      
  29 C29           -8.4569     8.4550    -6.5195 C.3     
  30 C30           -7.7471    11.3169    -5.7707 C.3     
  31 C31           -6.3426     9.9623    -8.1047 C.3     
  32 C32           -5.7919     8.6357    -8.6317 C.3     
  33 C33           -7.4240    10.4793    -9.0555 C.3     
  34 C34           -5.2090    10.9861    -8.0167 C.3     
  35 H35            3.2334     6.2452    -1.1183 H       
  36 H36            0.8660     6.8632    -1.3250 H       
  37 H37           -0.2899     2.9495    -0.0267 H       
  38 H38            4.6803     5.9039    -0.2110 H       
  39 H39            6.7776     3.6880    -0.1235 H       
  40 H40            7.0994     5.4294     0.0557 H       
  41 H41            6.1406     4.5705     1.2850 H       
  42 H42            4.4978     5.2740    -2.6024 H       
  43 H43            6.1401     5.8402    -2.2144 H       
  44 H44            5.8183     4.0988    -2.3936 H       
  45 H45           -2.1758     3.4597    -0.1897 H       
  46 H46           -0.9984     7.3675    -1.4941 H       
  47 H47           -7.3266     9.3579    -3.8814 H       
  48 H48           -7.4643     7.0762    -3.3028 H       
  49 H49           -6.8438     6.8626    -4.9741 H       
  50 H50           -5.4705     5.9422    -2.7557 H       
  51 H51           -4.6383     6.4940    -4.2408 H       
  52 H52           -2.5623     9.2599    -0.3942 H       
  53 H53           -3.7023    11.3260    -1.0925 H       
  54 H54           -5.4828    11.2400    -2.7835 H       
  55 H55           -8.8863     8.3024    -5.5293 H       
  56 H56           -9.2273     8.8233    -7.1969 H       
  57 H57           -8.0646     7.5098    -6.8949 H       
  58 H58           -6.9583    12.0690    -5.7847 H       
  59 H59           -8.5726    11.6444    -6.4027 H       
  60 H60           -8.1028    11.1825    -4.7491 H       
  61 H61           -6.5994     7.9063    -8.6943 H       
  62 H62           -5.3624     8.7883    -9.6218 H       
  63 H63           -5.0214     8.2674    -7.9543 H       
  64 H64           -7.8163    11.4244    -8.6801 H       
  65 H65           -6.9946    10.6319   -10.0457 H       
  66 H66           -8.2316     9.7499    -9.1182 H       
  67 H67           -4.4385    10.6178    -7.3393 H       
  68 H68           -4.7795    11.1387    -9.0068 H       
  69 H69           -5.6013    11.9312    -7.6413 H       
@<TRIPOS>BOND
   1    1    2 1
   2    1    8 3
   3    2    3 ar
   4    2    7 ar
   5    3    4 ar
   6    3    9 1
   7    4    5 ar
   8    4   35 1
   9    5    6 ar
  10    5   36 1
  11    6    7 ar
  12    6   14 1
  13    7   37 1
  14    9   10 1
  15   10   11 1
  16   10   12 1
  17   10   38 1
  18   11   39 1
  19   11   40 1
  20   11   41 1
  21   12   42 1
  22   12   43 1
  23   12   44 1
  24   13   14 2
  25   13   17 1
  26   13   45 1
  27   14   15 1
  28   15   16 2
  29   15   46 1
  30   16   17 1
  31   16   22 1
  32   18   19 1
  33   18   26 1
  34   18   27 1
  35   18   47 1
  36   19   20 1
  37   19   48 1
  38   19   49 1
  39   20   21 1
  40   20   50 1
  41   20   51 1
  42   21   22 ar
  43   21   26 ar
  44   22   23 ar
  45   23   24 ar
  46   23   52 1
  47   24   25 ar
  48   24   53 1
  49   25   26 ar
  50   25   54 1
  51   27   28 1
  52   28   29 1
  53   28   30 1
  54   28   31 1
  55   29   55 1
  56   29   56 1
  57   29   57 1
  58   30   58 1
  59   30   59 1
  60   30   60 1
  61   31   32 1
  62   31   34 1
  63   31   33 1
  64   32   61 1
  65   32   62 1
  66   32   63 1
  67   33   64 1
  68   33   65 1
  69   33   66 1
  70   34   67 1
  71   34   68 1
  72   34   69 1

#	End of record

