#	Name: ASD04230161
#	Creating user name:	WinNT
#	Creation time:	15. 06. 2019 20:48

#	Modifying user name:	WinNT
#	Modification time:	15. 06. 2019 20:48

#	Program:	/corina/corina34_cracker 3.40 0067  02.08.2006

@<TRIPOS>MOLECULE
ASD04230161
  45   48    0    0    0
SMALL
NO_CHARGES


@<TRIPOS>ATOM
   1 C1            -0.0201     1.3790     0.0495 C.ar    
   2 C2            -0.0003    -0.0082     0.0382 C.ar    
   3 C3             1.1848    -0.6863     0.0295 C.ar    
   4 C4             2.3957     0.0212     0.0424 C.ar    
   5 C5             2.3815     1.4276     0.0207 C.ar    
   6 C6             1.1610     2.0997     0.0379 C.ar    
   7 C7             3.6343    -0.6710     0.0723 C.2     
   8 C8             4.7886     0.0708     0.2857 C.2     
   9 C9             4.6292     1.5213     0.4961 C.2     
  10 O10            3.5429     2.1221    -0.0388 O.3     
  11 C11            6.1166    -0.5650     0.3015 C.2     
  12 N12            7.2188     0.1818     0.5112 N.am    
  13 O13            6.2189    -1.7642     0.1254 O.2     
  14 C14            8.4676    -0.4350     0.6385 C.ar    
  15 C15            9.6061     0.1931     0.1488 C.ar    
  16 C16           10.8418    -0.4134     0.2729 C.ar    
  17 C17           10.9519    -1.6464     0.8840 C.ar    
  18 C18            9.8151    -2.2836     1.3786 C.ar    
  19 C19            8.5707    -1.6713     1.2589 C.ar    
  20 C20            9.9318    -3.6093     2.0353 C.ar    
  21 O21            5.4495     2.1573     1.1311 O.2     
  22 C22           11.1776    -4.2203     2.1592 C.ar    
  23 C23            8.7966    -4.2438     2.5349 C.ar    
  24 C24            8.9099    -5.4788     3.1459 C.ar    
  25 C25           10.1497    -6.0853     3.2618 C.ar    
  26 C26           11.2817    -5.4555     2.7717 C.ar    
  27 F27           12.4886    -6.0515     2.8873 F       
  28 F28            7.8097    -6.0948     3.6311 F       
  29 O29            1.1309     3.4591     0.0425 O.3     
  30 C30           -0.1564     4.0794     0.0604 C.3     
  31 H31           -0.9655     1.9009     0.0629 H       
  32 H32           -0.9306    -0.5567     0.0366 H       
  33 H33            1.1898    -1.7661     0.0130 H       
  34 H34            3.6777    -1.7412    -0.0661 H       
  35 H35            7.1459     1.1470     0.5738 H       
  36 H36            9.5252     1.1576    -0.3304 H       
  37 H37           11.7239     0.0785    -0.1096 H       
  38 H38           11.9191    -2.1176     0.9785 H       
  39 H39            7.6872    -2.1610     1.6409 H       
  40 H40           12.0607    -3.7301     1.7769 H       
  41 H41            7.8295    -3.7714     2.4452 H       
  42 H42           10.2346    -7.0499     3.7400 H       
  43 H43           -0.7178     3.7769    -0.8236 H       
  44 H44           -0.6957     3.7714     0.9562 H       
  45 H45           -0.0376     5.1629     0.0623 H       
@<TRIPOS>BOND
   1    1    2 ar
   2    1    6 ar
   3    1   31 1
   4    2    3 ar
   5    2   32 1
   6    3    4 ar
   7    3   33 1
   8    4    5 ar
   9    4    7 1
  10    5    6 ar
  11    5   10 1
  12    6   29 1
  13    7    8 2
  14    7   34 1
  15    8    9 1
  16    8   11 1
  17    9   10 1
  18    9   21 2
  19   11   12 am
  20   11   13 2
  21   12   14 1
  22   12   35 1
  23   14   15 ar
  24   14   19 ar
  25   15   16 ar
  26   15   36 1
  27   16   17 ar
  28   16   37 1
  29   17   18 ar
  30   17   38 1
  31   18   19 ar
  32   18   20 1
  33   19   39 1
  34   20   22 ar
  35   20   23 ar
  36   22   26 ar
  37   22   40 1
  38   23   24 ar
  39   23   41 1
  40   24   25 ar
  41   24   28 1
  42   25   26 ar
  43   25   42 1
  44   26   27 1
  45   29   30 1
  46   30   43 1
  47   30   44 1
  48   30   45 1

#	End of record

