#	Name: ASD01148928
#	Creating user name:	WinNT
#	Creation time:	15. 06. 2019 19:03

#	Modifying user name:	WinNT
#	Modification time:	15. 06. 2019 19:03

#	Program:	/corina/corina34_cracker 3.40 0067  02.08.2006

@<TRIPOS>MOLECULE
ASD01148928
  52   55    0    0    0
SMALL
NO_CHARGES


@<TRIPOS>ATOM
   1 C1            -0.1554     1.1005     0.1957 C.ar    
   2 C2            -0.0417    -0.2677     0.3608 C.ar    
   3 C3             1.1989    -0.8715     0.2982 C.ar    
   4 C4             2.3326    -0.1032     0.0691 C.ar    
   5 C5             2.2151     1.2704    -0.0963 C.ar    
   6 C6             0.9717     1.8684    -0.0326 C.ar    
   7 S7            -1.7407     1.8662     0.2692 S.o2    
   8 O8            -1.6314     3.0851    -0.4530 O.2     
   9 O9            -2.6890     0.8568    -0.0487 O.2     
  10 N10           -2.0118     2.2815     1.8492 N.am    
  11 N11            3.5924    -0.7127     0.0054 N.pl3   
  12 C12            4.0170    -1.5559    -0.9780 C.2     
  13 C13            5.2921    -1.9402    -0.6918 C.2     
  14 C14            5.6636    -1.3061     0.5169 C.2     
  15 C15            4.6048    -0.5539     0.9209 C.2     
  16 C16            3.2130    -1.9891    -2.1767 C.3     
  17 C17            6.1359    -2.8559    -1.4991 C.ar    
  18 C18            7.4341    -2.4872    -1.8457 C.ar    
  19 C19            8.2145    -3.3427    -2.5967 C.ar    
  20 C20            7.7099    -4.5640    -3.0055 C.ar    
  21 C21            6.4217    -4.9350    -2.6646 C.ar    
  22 C22            5.6349    -4.0901    -1.9083 C.ar    
  23 C23            8.5666    -5.4937    -3.8257 C.3     
  24 O24            9.3009    -6.3571    -2.9554 O.3     
  25 C25            4.5512     0.2862     2.1364 C.ar    
  26 C26            3.3194     0.6557     2.6789 C.ar    
  27 C27            3.2757     1.4397     3.8131 C.ar    
  28 C28            4.4507     1.8600     4.4132 C.ar    
  29 C29            5.6757     1.4966     3.8796 C.ar    
  30 C30            5.7321     0.7082     2.7491 C.ar    
  31 Cl31           4.3877     2.8469     5.8400 Cl      
  32 H32           -0.9238    -0.8646     0.5394 H       
  33 H33            1.2871    -1.9401     0.4275 H       
  34 H34            3.0951     1.8706    -0.2743 H       
  35 H35            0.8797     2.9367    -0.1615 H       
  36 H36           -1.3425     2.0863     2.5236 H       
  37 H37           -2.8398     2.7200     2.1002 H       
  38 H38            6.6133    -1.3985     1.0226 H       
  39 H39            3.3798    -1.2916    -2.9975 H       
  40 H40            3.5236    -2.9888    -2.4805 H       
  41 H41            2.1539    -2.0003    -1.9190 H       
  42 H42            7.8289    -1.5335    -1.5277 H       
  43 H43            9.2209    -3.0579    -2.8660 H       
  44 H44            6.0326    -5.8895    -2.9867 H       
  45 H45            4.6310    -4.3829    -1.6383 H       
  46 H46            7.9313    -6.0914    -4.4793 H       
  47 H47            9.2616    -4.9098    -4.4293 H       
  48 H48            9.8751    -6.9840    -3.4161 H       
  49 H49            2.4024     0.3287     2.2115 H       
  50 H50            2.3232     1.7265     4.2336 H       
  51 H51            6.5888     1.8274     4.3520 H       
  52 H52            6.6881     0.4214     2.3365 H       
@<TRIPOS>BOND
   1    1    2 ar
   2    1    6 ar
   3    1    7 1
   4    2    3 ar
   5    2   32 1
   6    3    4 ar
   7    3   33 1
   8    4    5 ar
   9    4   11 1
  10    5    6 ar
  11    5   34 1
  12    6   35 1
  13    7    8 2
  14    7    9 2
  15    7   10 am
  16   10   36 1
  17   10   37 1
  18   11   12 1
  19   11   15 1
  20   12   13 2
  21   12   16 1
  22   13   14 1
  23   13   17 1
  24   14   15 2
  25   14   38 1
  26   15   25 1
  27   16   39 1
  28   16   40 1
  29   16   41 1
  30   17   18 ar
  31   17   22 ar
  32   18   19 ar
  33   18   42 1
  34   19   20 ar
  35   19   43 1
  36   20   21 ar
  37   20   23 1
  38   21   22 ar
  39   21   44 1
  40   22   45 1
  41   23   24 1
  42   23   46 1
  43   23   47 1
  44   24   48 1
  45   25   26 ar
  46   25   30 ar
  47   26   27 ar
  48   26   49 1
  49   27   28 ar
  50   27   50 1
  51   28   29 ar
  52   28   31 1
  53   29   30 ar
  54   29   51 1
  55   30   52 1

#	End of record

