#	Name: ASD01911602
#	Creating user name:	WinNT
#	Creation time:	15. 06. 2019 19:58

#	Modifying user name:	WinNT
#	Modification time:	15. 06. 2019 19:58

#	Program:	/corina/corina34_cracker 3.40 0067  02.08.2006

@<TRIPOS>MOLECULE
ASD01911602
  37   39    0    0    0
SMALL
NO_CHARGES


@<TRIPOS>ATOM
   1 N1            -0.0162     1.3436     0.0094 N.am    
   2 C2             0.0021    -0.0041     0.0020 C.2     
   3 C3            -1.2565    -0.7538     0.0100 C.2     
   4 C4            -1.3811    -2.1169     0.0039 C.2     
   5 S5            -2.8761    -0.0589     0.0369 S.3     
   6 C6            -3.5691    -1.6780     0.0292 C.2     
   7 N7            -2.6047    -2.5645     0.0131 N.2     
   8 C8            -4.9691    -1.9788     0.0435 C.1     
   9 C9            -6.1169    -2.2254     0.0551 C.1     
  10 C10           -7.5169    -2.5262     0.0694 C.ar    
  11 C11           -7.9507    -3.8568     0.0614 C.ar    
  12 C12           -9.3019    -4.1377     0.0752 C.ar    
  13 C13          -10.2259    -3.1078     0.0964 C.ar    
  14 C14           -9.8041    -1.7898     0.1040 C.ar    
  15 C15           -8.4575    -1.4923     0.0971 C.ar    
  16 O16            1.0643    -0.5982    -0.0113 O.2     
  17 C17            1.2424     2.0932     0.0014 C.3     
  18 C18            1.0190     3.4919    -0.5999 C.3     
  19 Cl19          -6.7928    -5.1499     0.0337 Cl      
  20 C20            1.7383     2.3088     1.4462 C.3     
  21 C21            2.3523     3.7307     1.4289 C.3     
  22 C22            1.3869     4.5086     0.5004 C.3     
  23 H23           -0.8627     1.8171     0.0160 H       
  24 H24           -0.5251    -2.7753    -0.0082 H       
  25 H25           -9.6389    -5.1638     0.0691 H       
  26 H26          -11.2819    -3.3339     0.1068 H       
  27 H27          -10.5316    -0.9918     0.1198 H       
  28 H28           -8.1305    -0.4630     0.1031 H       
  29 H29            1.9940     1.5544    -0.5756 H       
  30 H30            1.6628     3.6322    -1.4682 H       
  31 H31           -0.0258     3.6129    -0.8858 H       
  32 H32            0.9045     2.2618     2.1467 H       
  33 H33            2.4963     1.5691     1.7038 H       
  34 H34            2.3566     4.1618     2.4300 H       
  35 H35            3.3588     3.7118     1.0110 H       
  36 H36            1.8885     5.3742     0.0678 H       
  37 H37            0.4964     4.8169     1.0482 H       
@<TRIPOS>BOND
   1    1    2 am
   2    1   17 1
   3    1   23 1
   4    2    3 1
   5    2   16 2
   6    3    4 2
   7    3    5 1
   8    4    7 1
   9    4   24 1
  10    5    6 1
  11    6    7 2
  12    6    8 1
  13    8    9 3
  14    9   10 1
  15   10   11 ar
  16   10   15 ar
  17   11   12 ar
  18   11   19 1
  19   12   13 ar
  20   12   25 1
  21   13   14 ar
  22   13   26 1
  23   14   15 ar
  24   14   27 1
  25   15   28 1
  26   17   18 1
  27   17   20 1
  28   17   29 1
  29   18   22 1
  30   18   30 1
  31   18   31 1
  32   20   21 1
  33   20   32 1
  34   20   33 1
  35   21   22 1
  36   21   34 1
  37   21   35 1
  38   22   36 1
  39   22   37 1

#	End of record

