#	Name: ASD01915605
#	Creating user name:	WinNT
#	Creation time:	15. 06. 2019 20:05

#	Modifying user name:	WinNT
#	Modification time:	15. 06. 2019 20:05

#	Program:	/corina/corina34_cracker 3.40 0067  02.08.2006

@<TRIPOS>MOLECULE
ASD01915605
  46   49    0    0    0
SMALL
NO_CHARGES


@<TRIPOS>ATOM
   1 C1            -0.0254     1.3456     0.0750 C.2     
   2 N2            -0.0115    -0.0295     0.0024 N.pl3   
   3 C3            -1.2588    -0.7983    -0.0860 C.3     
   4 C4            -2.3716    -0.0403     0.6358 C.3     
   5 N5            -2.4187     1.3710     0.2693 N.am    
   6 C6            -1.2876     2.0994     0.1082 C.2     
   7 C7             1.2771     1.7570     0.1177 C.2     
   8 C8             2.0317     0.5768     0.0792 C.2     
   9 N9             1.1978    -0.4350     0.0166 N.2     
  10 C10            3.5358     0.4854     0.1051 C.3     
  11 O11            4.0917     1.7999     0.1759 O.3     
  12 C12            5.4470     1.8958     0.2073 C.ar    
  13 O13           -1.3147     3.3102    -0.0029 O.2     
  14 C14            6.0541     3.1413     0.2760 C.ar    
  15 C15            6.2256     0.7479     0.1765 C.ar    
  16 C16            7.6030     0.8480     0.2085 C.ar    
  17 C17            8.2058     2.0908     0.2712 C.ar    
  18 C18            7.4319     3.2360     0.3078 C.ar    
  19 C19           -3.6519     1.9823     0.0811 C.ar    
  20 C20           -4.2296     2.0350    -1.1879 C.ar    
  21 C21           -5.4579     2.6529    -1.3271 C.ar    
  22 N22           -6.0458     3.1726    -0.2598 N.ar    
  23 C23           -5.4735     3.1074     0.9315 C.ar    
  24 N24           -4.3014     2.5206     1.1080 N.ar    
  25 C25           -3.5302     1.4326    -2.3791 C.3     
  26 O26           -6.1065     3.6513     1.9984 O.3     
  27 C27           -7.3722     4.2690     1.7563 C.3     
  28 H28           -1.5300    -0.9326    -1.1332 H       
  29 H29           -1.1194    -1.7728     0.3821 H       
  30 H30           -3.3285    -0.5004     0.3891 H       
  31 H31           -2.2118    -0.1198     1.7111 H       
  32 H32            1.6449     2.7711     0.1693 H       
  33 H33            3.8499    -0.0894     0.9763 H       
  34 H34            3.8854    -0.0086    -0.8015 H       
  35 H35            5.4500     4.0361     0.3043 H       
  36 H36            5.7552    -0.2230     0.1278 H       
  37 H37            8.2096    -0.0452     0.1848 H       
  38 H38            9.2828     2.1670     0.2961 H       
  39 H39            7.9050     4.2056     0.3564 H       
  40 H40           -5.9331     2.7116    -2.2951 H       
  41 H41           -3.7515     0.3666    -2.4297 H       
  42 H42           -3.8788     1.9197    -3.2898 H       
  43 H43           -2.4542     1.5760    -2.2795 H       
  44 H44           -7.2483     5.0835     1.0426 H       
  45 H45           -8.0644     3.5317     1.3496 H       
  46 H46           -7.7692     4.6629     2.6919 H       
@<TRIPOS>BOND
   1    1    2 1
   2    1    7 2
   3    1    6 1
   4    2    3 1
   5    2    9 1
   6    3    4 1
   7    3   28 1
   8    3   29 1
   9    4    5 1
  10    4   30 1
  11    4   31 1
  12    5    6 am
  13    5   19 1
  14    6   13 2
  15    7    8 1
  16    7   32 1
  17    8    9 2
  18    8   10 1
  19   10   11 1
  20   10   33 1
  21   10   34 1
  22   11   12 1
  23   12   14 ar
  24   12   15 ar
  25   14   18 ar
  26   14   35 1
  27   15   16 ar
  28   15   36 1
  29   16   17 ar
  30   16   37 1
  31   17   18 ar
  32   17   38 1
  33   18   39 1
  34   19   20 ar
  35   19   24 ar
  36   20   21 ar
  37   20   25 1
  38   21   22 ar
  39   21   40 1
  40   22   23 ar
  41   23   24 ar
  42   23   26 1
  43   25   41 1
  44   25   42 1
  45   25   43 1
  46   26   27 1
  47   27   44 1
  48   27   45 1
  49   27   46 1

#	End of record

