#	Name: ASD06020077
#	Creating user name:	WinNT
#	Creation time:	15. 06. 2019 21:04

#	Modifying user name:	WinNT
#	Modification time:	15. 06. 2019 21:04

#	Program:	/corina/corina34_cracker 3.40 0067  02.08.2006

@<TRIPOS>MOLECULE
ASD06020077
  40   43    0    0    0
SMALL
NO_CHARGES


@<TRIPOS>ATOM
   1 C1             4.3405     1.5227     2.1048 C.3     
   2 C2             3.6848     1.8107     3.4568 C.3     
   3 C3             1.4187     2.1310    -0.0519 C.ar    
   4 N4             2.1960     1.6759     0.9103 N.ar    
   5 C5             3.4640     2.0513     0.9987 C.ar    
   6 C6             3.9723     2.9334     0.0649 C.ar    
   7 C7             3.1221     3.3961    -0.9410 C.ar    
   8 N8             1.8614     2.9732    -0.9631 N.ar    
   9 N9             3.5847     4.2828    -1.9020 N.pl3   
  10 C10            2.7620     4.6511    -2.9628 C.ar    
  11 C11            3.1888     5.6291    -3.8672 C.ar    
  12 C12            2.3572     5.9945    -4.9319 C.ar    
  13 C13            1.1058     5.3343    -5.0290 C.ar    
  14 C14            0.7704     4.3944    -4.1062 C.ar    
  15 N15            1.5841     4.0708    -3.1133 N.ar    
  16 S16            4.6667     6.5798    -3.9669 S.3     
  17 C17            4.0633     7.3840    -5.4103 C.2     
  18 N18            2.8888     6.9355    -5.7134 N.2     
  19 C19            4.7930     8.4231    -6.1670 C.ar    
  20 C20            4.2185     8.9973    -7.3031 C.ar    
  21 C21            4.9059     9.9680    -8.0049 C.ar    
  22 C22            6.1607    10.3715    -7.5852 C.ar    
  23 C23            6.7360     9.8072    -6.4608 C.ar    
  24 C24            6.0578     8.8396    -5.7459 C.ar    
  25 Cl25           6.7789     8.1376    -4.3313 Cl      
  26 Cl26           2.6444     8.4916    -7.8323 Cl      
  27 O27            4.5078     0.1123     1.9472 O.3     
  28 H28            5.3141     2.0111     2.0617 H       
  29 H29            3.5573     2.8865     3.5770 H       
  30 H30            2.7113     1.3223     3.4999 H       
  31 H31            4.3188     1.4284     4.2568 H       
  32 H32            0.3913     1.8009    -0.0971 H       
  33 H33            5.0016     3.2571     0.1121 H       
  34 H34            4.4815     4.6463    -1.8348 H       
  35 H35            0.4238     5.5769    -5.8305 H       
  36 H36           -0.1844     3.8962    -4.1867 H       
  37 H37            4.4629    10.4128    -8.8836 H       
  38 H38            6.6940    11.1305    -8.1383 H       
  39 H39            7.7161    10.1269    -6.1392 H       
  40 H40            5.0622    -0.2963     2.6260 H       
@<TRIPOS>BOND
   1    1    2 1
   2    1    5 1
   3    1   27 1
   4    1   28 1
   5    2   29 1
   6    2   30 1
   7    2   31 1
   8    3    4 ar
   9    3    8 ar
  10    3   32 1
  11    4    5 ar
  12    5    6 ar
  13    6    7 ar
  14    6   33 1
  15    7    8 ar
  16    7    9 1
  17    9   10 1
  18    9   34 1
  19   10   11 ar
  20   10   15 ar
  21   11   12 ar
  22   11   16 1
  23   12   13 ar
  24   12   18 1
  25   13   14 ar
  26   13   35 1
  27   14   15 ar
  28   14   36 1
  29   16   17 1
  30   17   18 2
  31   17   19 1
  32   19   20 ar
  33   19   24 ar
  34   20   21 ar
  35   20   26 1
  36   21   22 ar
  37   21   37 1
  38   22   23 ar
  39   22   38 1
  40   23   24 ar
  41   23   39 1
  42   24   25 1
  43   27   40 1

#	End of record

