#	Name: ASD01810139
#	Creating user name:	WinNT
#	Creation time:	15. 06. 2019 19:23

#	Modifying user name:	WinNT
#	Modification time:	15. 06. 2019 19:23

#	Program:	/corina/corina34_cracker 3.40 0067  02.08.2006

@<TRIPOS>MOLECULE
ASD01810139
  38   41    0    0    0
SMALL
NO_CHARGES


@<TRIPOS>ATOM
   1 C1            -0.4510     0.8182    -0.6304 C.ar    
   2 C2            -0.2397    -0.5486    -0.5368 C.ar    
   3 C3             1.0315    -1.0562    -0.3733 C.ar    
   4 C4             2.1218    -0.1944    -0.3003 C.ar    
   5 C5             1.9082     1.1917    -0.3957 C.ar    
   6 C6             0.6149     1.6934    -0.5612 C.ar    
   7 N7             3.3970    -0.6912    -0.1361 N.pl3   
   8 C8             4.4780     0.0957    -0.0593 C.2     
   9 C9             4.3937     1.4709    -0.1397 C.2     
  10 C10            3.0712     2.0931    -0.3170 C.2     
  11 O11            2.9436     3.3026    -0.3939 O.2     
  12 C12            5.6037     2.3001    -0.0506 C.2     
  13 O13            5.5083     3.6424    -0.1305 O.3     
  14 O14            6.6907     1.7756     0.0950 O.2     
  15 C15            3.5775    -2.1419    -0.0409 C.3     
  16 C16            3.0032    -2.7888     1.1932 C.ar    
  17 C17            3.5398    -2.9454    -1.3423 C.3     
  18 C18            4.8682    -2.7322    -0.6123 C.3     
  19 C19            2.7238    -2.0222     2.3090 C.ar    
  20 C20            2.1971    -2.6156     3.4410 C.ar    
  21 C21            1.9492    -3.9754     3.4569 C.ar    
  22 C22            2.2278    -4.7419     2.3407 C.ar    
  23 C23            2.7505    -4.1478     1.2072 C.ar    
  24 F24            0.4085     3.0253    -0.6530 F       
  25 H25           -1.4527     1.1999    -0.7625 H       
  26 H26           -1.0809    -1.2237    -0.5922 H       
  27 H27            1.1813    -2.1233    -0.3015 H       
  28 H28            5.4481    -0.3610     0.0701 H       
  29 H29            6.3316     4.1456    -0.0668 H       
  30 H30            3.0999    -3.9421    -1.3059 H       
  31 H31            3.3807    -2.3947    -2.2694 H       
  32 H32            5.5830    -2.0413    -1.0594 H       
  33 H33            5.3019    -3.5886    -0.0959 H       
  34 H34            2.9175    -0.9598     2.2966 H       
  35 H35            1.9795    -2.0168     4.3131 H       
  36 H36            1.5383    -4.4391     4.3415 H       
  37 H37            2.0345    -5.8043     2.3533 H       
  38 H38            2.9681    -4.7466     0.3352 H       
@<TRIPOS>BOND
   1    1    2 ar
   2    1    6 ar
   3    1   25 1
   4    2    3 ar
   5    2   26 1
   6    3    4 ar
   7    3   27 1
   8    4    5 ar
   9    4    7 1
  10    5    6 ar
  11    5   10 1
  12    6   24 1
  13    7    8 1
  14    7   15 1
  15    8    9 2
  16    8   28 1
  17    9   10 1
  18    9   12 1
  19   10   11 2
  20   12   13 1
  21   12   14 2
  22   13   29 1
  23   15   16 1
  24   15   17 1
  25   15   18 1
  26   16   19 ar
  27   16   23 ar
  28   17   18 1
  29   17   30 1
  30   17   31 1
  31   18   32 1
  32   18   33 1
  33   19   20 ar
  34   19   34 1
  35   20   21 ar
  36   20   35 1
  37   21   22 ar
  38   21   36 1
  39   22   23 ar
  40   22   37 1
  41   23   38 1

#	End of record

