#	Name: ASD03090320
#	Creating user name:	WinNT
#	Creation time:	15. 06. 2019 20:28

#	Modifying user name:	WinNT
#	Modification time:	15. 06. 2019 20:28

#	Program:	/corina/corina34_cracker 3.40 0067  02.08.2006

@<TRIPOS>MOLECULE
ASD03090320
  46   49    0    0    0
SMALL
NO_CHARGES


@<TRIPOS>ATOM
   1 N1             0.4117     1.4876     1.4543 N.ar    
   2 C2             0.3829     0.1689     1.4304 C.ar    
   3 C3             1.5145    -0.5590     1.1252 C.ar    
   4 C4             2.7026     0.1222     0.8389 C.ar    
   5 C5             2.6872     1.5205     0.8759 C.ar    
   6 C6             1.5102     2.1685     1.1908 C.ar    
   7 C7             3.9416    -0.6162     0.5066 C.2     
   8 N8             5.7386    -3.4561    -0.5227 N.pl3   
   9 C9             4.8182    -4.4497    -0.8719 C.ar    
  10 C10            3.6040    -4.1008    -1.4484 C.ar    
  11 C11            2.6954    -5.0831    -1.7930 C.ar    
  12 C12            2.9939    -6.4149    -1.5643 C.ar    
  13 C13            4.2058    -6.7668    -0.9886 C.ar    
  14 C14            5.1199    -5.7868    -0.6477 C.ar    
  15 N15            4.0136    -1.8718     0.1128 N.2     
  16 C16            5.2876    -2.2048    -0.0981 C.2     
  17 N17            6.0499    -1.1661     0.1579 N.2     
  18 N18            5.1981    -0.1199     0.5478 N.pl3   
  19 C19            5.5937     1.2375     0.9313 C.3     
  20 C20            5.6913     2.1129    -0.3197 C.3     
  21 C21            5.9820     3.5580     0.0905 C.3     
  22 F22            2.1036    -7.3734    -1.9017 F       
  23 O23            6.7467     1.6335    -1.1554 O.3     
  24 F24            4.4953    -8.0674    -0.7656 F       
  25 C25           -0.9033    -0.5522     1.7412 C.3     
  26 C26           -1.7859    -0.9631     0.5609 C.3     
  27 C27           -1.0034    -2.0244     1.3369 C.3     
  28 H28            1.4837    -1.6384     1.1078 H       
  29 H29            3.5831     2.0844     0.6616 H       
  30 H30            1.4882     3.2479     1.2216 H       
  31 H31            6.6902    -3.6364    -0.5755 H       
  32 H32            3.3697    -3.0618    -1.6271 H       
  33 H33            1.7511    -4.8112    -2.2410 H       
  34 H34            6.0637    -6.0602    -0.1995 H       
  35 H35            4.8496     1.6548     1.6097 H       
  36 H36            6.5627     1.2065     1.4296 H       
  37 H37            4.7488     2.0728    -0.8656 H       
  38 H38            6.9246     3.5981     0.6365 H       
  39 H39            6.0516     4.1816    -0.8008 H       
  40 H40            5.1771     3.9237     0.7279 H       
  41 H41            7.6167     1.6408    -0.7334 H       
  42 H42           -1.4027    -0.2475     2.6610 H       
  43 H43           -2.8659    -0.9291     0.7043 H       
  44 H44           -1.4362    -0.7118    -0.4404 H       
  45 H45           -0.1389    -2.4714     0.8460 H       
  46 H46           -1.5685    -2.6886     1.9907 H       
@<TRIPOS>BOND
   1    1    2 ar
   2    1    6 ar
   3    2    3 ar
   4    2   25 1
   5    3    4 ar
   6    3   28 1
   7    4    5 ar
   8    4    7 1
   9    5    6 ar
  10    5   29 1
  11    6   30 1
  12    7   15 2
  13    7   18 1
  14    8    9 1
  15    8   16 1
  16    8   31 1
  17    9   10 ar
  18    9   14 ar
  19   10   11 ar
  20   10   32 1
  21   11   12 ar
  22   11   33 1
  23   12   13 ar
  24   12   22 1
  25   13   14 ar
  26   13   24 1
  27   14   34 1
  28   15   16 1
  29   16   17 2
  30   17   18 1
  31   18   19 1
  32   19   20 1
  33   19   35 1
  34   19   36 1
  35   20   21 1
  36   20   23 1
  37   20   37 1
  38   21   38 1
  39   21   39 1
  40   21   40 1
  41   23   41 1
  42   25   26 1
  43   25   27 1
  44   25   42 1
  45   26   27 1
  46   26   43 1
  47   26   44 1
  48   27   45 1
  49   27   46 1

#	End of record

