#	Name: ASD08070266
#	Creating user name:	WinNT
#	Creation time:	15. 06. 2019 21:14

#	Modifying user name:	WinNT
#	Modification time:	15. 06. 2019 21:14

#	Program:	/corina/corina34_cracker 3.40 0067  02.08.2006

@<TRIPOS>MOLECULE
ASD08070266
  42   43    0    0    0
SMALL
NO_CHARGES


@<TRIPOS>ATOM
   1 C1            -0.0179     1.4718     0.0101 C.2     
   2 C2             0.0021    -0.0041     0.0020 C.ar    
   3 C3             1.2206    -0.6881    -0.0133 C.ar    
   4 C4             1.2351    -2.0649    -0.0209 C.ar    
   5 C5             0.0396    -2.7744    -0.0138 C.ar    
   6 C6            -1.1742    -2.0979     0.0014 C.ar    
   7 C7            -1.1971    -0.7209     0.0154 C.ar    
   8 O8             1.0266     2.0940     0.0035 O.2     
   9 N9            -1.1942     2.1298     0.0193 N.am    
  10 C10           -1.2140     3.5946     0.0273 C.3     
  11 C11           -2.5311     4.0901    -0.5734 C.3     
  12 C12           -2.6000     3.6925    -2.0492 C.3     
  13 C13           -3.8972     4.1805    -2.6408 C.ar    
  14 C14           -3.9660     5.4362    -3.2148 C.ar    
  15 C15           -5.1559     5.8839    -3.7575 C.ar    
  16 C16           -6.2770     5.0757    -3.7266 C.ar    
  17 C17           -6.2080     3.8197    -3.1535 C.ar    
  18 C18           -5.0169     3.3703    -2.6147 C.ar    
  19 C19           -1.0884     4.0984     1.4665 C.3     
  20 C20            2.5485    -2.8035    -0.0374 C.3     
  21 O21            0.0580    -4.1314    -0.0222 O.3     
  22 H22            2.1498    -0.1376    -0.0195 H       
  23 H23           -2.1008    -2.6527     0.0069 H       
  24 H24           -2.1407    -0.1959     0.0317 H       
  25 H25           -2.0275     1.6334     0.0205 H       
  26 H26           -0.3800     3.9725    -0.5640 H       
  27 H27           -3.3668     3.6411    -0.0367 H       
  28 H28           -2.5844     5.1753    -0.4866 H       
  29 H29           -1.7642     4.1414    -2.5858 H       
  30 H30           -2.5466     2.6072    -2.1360 H       
  31 H31           -3.0901     6.0676    -3.2389 H       
  32 H32           -5.2098     6.8652    -4.2053 H       
  33 H33           -7.2068     5.4258    -4.1500 H       
  34 H34           -7.0839     3.1884    -3.1291 H       
  35 H35           -4.9621     2.3875    -2.1702 H       
  36 H36           -1.9224     3.7205     2.0579 H       
  37 H37           -0.1502     3.7454     1.8945 H       
  38 H38           -1.1032     5.1883     1.4725 H       
  39 H39            2.8750    -2.9872     0.9862 H       
  40 H40            2.4240    -3.7546    -0.5552 H       
  41 H41            3.2965    -2.2031    -0.5551 H       
  42 H42            0.0718    -4.5300     0.8587 H       
@<TRIPOS>BOND
   1    1    2 1
   2    1    8 2
   3    1    9 am
   4    2    3 ar
   5    2    7 ar
   6    3    4 ar
   7    3   22 1
   8    4    5 ar
   9    4   20 1
  10    5    6 ar
  11    5   21 1
  12    6    7 ar
  13    6   23 1
  14    7   24 1
  15    9   10 1
  16    9   25 1
  17   10   11 1
  18   10   19 1
  19   10   26 1
  20   11   12 1
  21   11   27 1
  22   11   28 1
  23   12   13 1
  24   12   29 1
  25   12   30 1
  26   13   14 ar
  27   13   18 ar
  28   14   15 ar
  29   14   31 1
  30   15   16 ar
  31   15   32 1
  32   16   17 ar
  33   16   33 1
  34   17   18 ar
  35   17   34 1
  36   18   35 1
  37   19   36 1
  38   19   37 1
  39   19   38 1
  40   20   39 1
  41   20   40 1
  42   20   41 1
  43   21   42 1

#	End of record

