#	Name: ASD01903179
#	Creating user name:	WinNT
#	Creation time:	15. 06. 2019 19:54

#	Modifying user name:	WinNT
#	Modification time:	15. 06. 2019 19:54

#	Program:	/corina/corina34_cracker 3.40 0067  02.08.2006

@<TRIPOS>MOLECULE
ASD01903179
  33   36    0    0    0
SMALL
NO_CHARGES


@<TRIPOS>ATOM
   1 S1            -0.0242     1.7575    -0.0297 S.3     
   2 C2             0.0013    -0.0032    -0.0096 C.2     
   3 N3             1.2315    -0.4161    -0.0142 N.2     
   4 C4             2.1776     0.5130    -0.0321 C.2     
   5 C5             1.7377     1.7837    -0.0434 C.2     
   6 N6            -1.1187    -0.8210     0.0090 N.pl3   
   7 C7            -2.3869    -0.2613     0.1295 C.ar    
   8 N8            -2.5127     1.0412     0.3311 N.ar    
   9 C9            -3.6966     1.6117     0.4504 C.ar    
  10 C10           -4.8542     0.8642     0.3684 C.ar    
  11 C11           -4.7659    -0.5056     0.1575 C.ar    
  12 C12           -3.5115    -1.0744     0.0312 C.ar    
  13 C13            3.6210     0.1741    -0.0386 C.2     
  14 C14            4.6907     1.0853    -0.0562 C.2     
  15 N15            5.8117     0.4138    -0.0569 N.2     
  16 N16            5.5262    -0.9564    -0.0398 N.pl3   
  17 C17            4.1680    -1.1050    -0.0224 C.2     
  18 C18            3.4265    -2.3739    -0.0011 C.2     
  19 O19            2.3522    -2.6757    -0.7569 O.3     
  20 C20            1.9396    -3.9215    -0.4686 C.2     
  21 C21            2.7473    -4.4365     0.4796 C.2     
  22 C22            3.7089    -3.4532     0.7826 C.2     
  23 H23            2.3575     2.6681    -0.0583 H       
  24 H24           -1.0179    -1.7832    -0.0619 H       
  25 H25           -3.7606     2.6772     0.6146 H       
  26 H26           -5.8188     1.3398     0.4675 H       
  27 H27           -5.6567    -1.1125     0.0900 H       
  28 H28           -3.4062    -2.1366    -0.1335 H       
  29 H29            4.6012     2.1615    -0.0677 H       
  30 H30            6.1783    -1.6745    -0.0371 H       
  31 H31            1.0995    -4.4267    -0.9218 H       
  32 H32            2.6735    -5.4195     0.9209 H       
  33 H33            4.5107    -3.5357     1.5013 H       
@<TRIPOS>BOND
   1    1    2 1
   2    1    5 1
   3    2    3 2
   4    2    6 1
   5    3    4 1
   6    4    5 2
   7    4   13 1
   8    5   23 1
   9    6    7 1
  10    6   24 1
  11    7    8 ar
  12    7   12 ar
  13    8    9 ar
  14    9   10 ar
  15    9   25 1
  16   10   11 ar
  17   10   26 1
  18   11   12 ar
  19   11   27 1
  20   12   28 1
  21   13   14 1
  22   13   17 2
  23   14   15 2
  24   14   29 1
  25   15   16 1
  26   16   17 1
  27   16   30 1
  28   17   18 1
  29   18   19 1
  30   18   22 2
  31   19   20 1
  32   20   21 2
  33   20   31 1
  34   21   22 1
  35   21   32 1
  36   22   33 1

#	End of record

