#	Name: ASD04220050
#	Creating user name:	WinNT
#	Creation time:	15. 06. 2019 20:48

#	Modifying user name:	WinNT
#	Modification time:	15. 06. 2019 20:48

#	Program:	/corina/corina34_cracker 3.40 0067  02.08.2006

@<TRIPOS>MOLECULE
ASD04220050
  75   77    0    0    0
SMALL
NO_CHARGES


@<TRIPOS>ATOM
   1 C1            -0.0168     1.3867     0.0097 C.ar    
   2 C2             0.0021    -0.0041     0.0020 C.ar    
   3 C3             1.2073    -0.6827    -0.0127 C.ar    
   4 C4             2.4003     0.0338    -0.0202 C.ar    
   5 C5             2.3797     1.4367    -0.0129 C.ar    
   6 C6             1.1607     2.1032     0.0023 C.ar    
   7 C7             3.8249    -0.3526    -0.0354 C.2     
   8 C8             4.5430     0.8046    -0.0363 C.2     
   9 N9             3.6965     1.8708    -0.0230 N.am    
  10 C10            6.0474     0.8916    -0.0495 C.3     
  11 O11            6.5351     0.9121     1.2936 O.3     
  12 C12            7.8825     0.9890     1.4600 C.ar    
  13 C13            8.7169     1.0437     0.3479 C.ar    
  14 C14            8.4192     1.0184     2.7337 C.ar    
  15 C15            9.7995     1.0977     2.8972 C.ar    
  16 C16           10.6411     1.1475     1.7745 C.ar    
  17 C17           10.0838     1.1223     0.5005 C.ar    
  18 C18           10.6899     1.1477     4.0718 C.2     
  19 C19           11.9643     1.2216     3.5884 C.2     
  20 N20           11.9414     1.2219     2.2349 N.pl3   
  21 C21           10.2857     1.1228     5.4820 C.2     
  22 O22           10.1787     0.0611     6.0651 O.2     
  23 C23            4.3630    -1.7188    -0.0469 C.2     
  24 O24            4.5763    -2.2793    -1.1045 O.2     
  25 O25           10.0328     2.2772     6.1314 O.3     
  26 C26            9.3952     3.5782     8.0886 C.3     
  27 C27            9.6376     2.1767     7.5249 C.3     
  28 O28           -1.1670    -0.6982     0.0094 O.3     
  29 S29           -1.7125    -1.0068    -1.3775 S.o2    
  30 O30           -3.0985    -1.4123    -1.2024 O.co2   
  31 O31           -1.5958     0.2166    -2.1559 O.co2   
  32 O32           -0.8943    -2.0797    -1.9209 O.co2   
  33 C33           13.2094     1.2931     4.4343 C.3     
  34 O34            4.6206    -2.3517     1.1154 O.3     
  35 C35            5.3783    -4.2514     2.4373 C.3     
  36 C36            5.1513    -3.7004     1.0281 C.3     
  37 O37            4.2869     3.8011     1.1461 O.3     
  38 C38            4.7017     5.1906     1.0728 C.3     
  39 C39            3.6329     6.0040     0.3400 C.3     
  40 C40            4.8829     5.7441     2.4876 C.3     
  41 C41            6.0265     5.2880     0.3135 C.3     
  42 C42            4.0828     3.1621    -0.0205 C.2     
  43 O43            4.2467     3.7488    -1.0711 O.2     
  44 H44           -0.9618     1.9094     0.0170 H       
  45 H45            1.2223    -1.7625    -0.0179 H       
  46 H46            1.1358     3.1829     0.0076 H       
  47 H47            6.4569     0.0269    -0.5716 H       
  48 H48            6.3541     1.8038    -0.5613 H       
  49 H49            8.2893     1.0240    -0.6436 H       
  50 H50            7.7714     0.9805     3.5970 H       
  51 H51           10.7229     1.1598    -0.3693 H       
  52 H52           12.7273     1.2678     1.6682 H       
  53 H53            9.0985     3.5028     9.1348 H       
  54 H54           10.3111     4.1641     8.0121 H       
  55 H55            8.6032     4.0663     7.5207 H       
  56 H56            8.7216     1.5908     7.6015 H       
  57 H57           10.4296     1.6886     8.0929 H       
  58 H58           13.5689     0.2844     4.6376 H       
  59 H59           13.9787     1.8526     3.9019 H       
  60 H60           12.9813     1.7941     5.3751 H       
  61 H61            6.0881    -3.6152     2.9661 H       
  62 H62            4.4320    -4.2676     2.9779 H       
  63 H63            5.7767    -5.2638     2.3717 H       
  64 H64            4.4415    -4.3366     0.4993 H       
  65 H65            6.0976    -3.6842     0.4875 H       
  66 H66            2.6892     5.9346     0.8809 H       
  67 H67            3.9443     7.0471     0.2850 H       
  68 H68            3.5038     5.6097    -0.6679 H       
  69 H69            5.6444     5.1647     3.0097 H       
  70 H70            5.1944     6.7872     2.4326 H       
  71 H71            3.9392     5.6747     3.0286 H       
  72 H72            5.8974     4.8937    -0.6944 H       
  73 H73            6.3379     6.3311     0.2585 H       
  74 H74            6.7879     4.7086     0.8356 H       
  75 Na75          18.9787    12.0471    14.1348 Du      
@<TRIPOS>BOND
   1    1    2 ar
   2    1    6 ar
   3    1   44 1
   4    2    3 ar
   5    2   28 1
   6    3    4 ar
   7    3   45 1
   8    4    5 ar
   9    4    7 1
  10    5    6 ar
  11    5    9 1
  12    6   46 1
  13    7    8 2
  14    7   23 1
  15    8    9 1
  16    8   10 1
  17    9   42 am
  18   10   11 1
  19   10   47 1
  20   10   48 1
  21   11   12 1
  22   12   13 ar
  23   12   14 ar
  24   13   17 ar
  25   13   49 1
  26   14   15 ar
  27   14   50 1
  28   15   16 ar
  29   15   18 1
  30   16   17 ar
  31   16   20 1
  32   17   51 1
  33   18   19 2
  34   18   21 1
  35   19   20 1
  36   19   33 1
  37   20   52 1
  38   21   22 2
  39   21   25 1
  40   23   24 2
  41   23   34 1
  42   25   27 1
  43   26   27 1
  44   26   53 1
  45   26   54 1
  46   26   55 1
  47   27   56 1
  48   27   57 1
  49   28   29 1
  50   29   30 ar
  51   29   31 ar
  52   29   32 ar
  53   33   58 1
  54   33   59 1
  55   33   60 1
  56   34   36 1
  57   35   36 1
  58   35   61 1
  59   35   62 1
  60   35   63 1
  61   36   64 1
  62   36   65 1
  63   37   38 1
  64   37   42 1
  65   38   39 1
  66   38   40 1
  67   38   41 1
  68   39   66 1
  69   39   67 1
  70   39   68 1
  71   40   69 1
  72   40   70 1
  73   40   71 1
  74   41   72 1
  75   41   73 1
  76   41   74 1
  77   42   43 2

#	End of record

