#	Name: ASD04882256
#	Creating user name:	WinNT
#	Creation time:	15. 06. 2019 20:54

#	Modifying user name:	WinNT
#	Modification time:	15. 06. 2019 20:54

#	Program:	/corina/corina34_cracker 3.40 0067  02.08.2006

@<TRIPOS>MOLECULE
ASD04882256
  80   84    0    0    0
SMALL
NO_CHARGES


@<TRIPOS>ATOM
   1 N1            -0.1369     1.5564    -0.0347 N.am    
   2 C2            -0.0772     0.1564    -0.0449 C.ar    
   3 C3            -1.2537    -0.5943     0.0291 C.ar    
   4 C4            -1.1961    -1.9833     0.0186 C.ar    
   5 C5             0.0199    -2.6245    -0.0643 C.ar    
   6 C6             1.2003    -1.8798    -0.1385 C.ar    
   7 C7             1.1447    -0.4831    -0.1339 C.ar    
   8 N8            -2.4854     0.0499     0.1139 N.3     
   9 C9            -2.6126     0.7778     1.3841 C.3     
  10 C10           -3.5910    -0.9031    -0.0568 C.3     
  11 C11           -4.9210    -0.1462    -0.0367 C.3     
  12 N12           -5.0483     0.5818     1.2336 N.3     
  13 C13           -3.9427     1.5347     1.4042 C.3     
  14 C14            2.5029    -2.5669    -0.2267 C.2     
  15 O15            3.5293    -1.9181    -0.2913 O.2     
  16 C16           -6.2837     1.2279     1.3187 C.ar    
  17 C17           -7.1959     1.1256     0.2763 C.ar    
  18 C18           -6.6051     1.9697     2.4486 C.ar    
  19 C19           -7.8272     2.6073     2.5294 C.ar    
  20 C20           -8.7312     2.5076     1.4873 C.ar    
  21 C21           -8.4167     1.7659     0.3637 C.ar    
  22 C22            0.8442     2.2684     0.5543 C.2     
  23 C23            0.8474     3.7388     0.4574 C.2     
  24 O24            1.7270     1.6973     1.1658 O.2     
  25 C25           -0.0632     4.5249    -0.1861 C.2     
  26 C26            1.8291     4.6657     1.0394 C.2     
  27 C27            1.4250     5.8970     0.6918 C.2     
  28 O28            0.3009     5.8021    -0.0354 O.3     
  29 N29            2.5551    -3.9136    -0.2357 N.am    
  30 C30            3.8486    -4.5959    -0.3233 C.3     
  31 C31            3.6281    -6.1099    -0.3151 C.3     
  32 C32            2.1198     7.1819     1.0626 C.3     
  33 C33            4.9790    -6.8225    -0.4066 C.3     
  34 N34            4.7679    -8.2721    -0.3988 N.am    
  35 C35            4.5865    -9.0182    -1.5021 C.2     
  36 C36            4.3894   -10.4692    -1.1225 C.3     
  37 C37            4.0641   -10.4250     0.3885 C.3     
  38 C38            4.7335    -9.0974     0.8144 C.3     
  39 O39            4.5812    -8.5901    -2.6369 O.2     
  40 C40           -8.1767     3.4121     3.7546 C.3     
  41 C41          -10.0645     3.2040     1.5795 C.3     
  42 H42           -0.8823     2.0131    -0.4550 H       
  43 H43           -2.1069    -2.5608     0.0758 H       
  44 H44            0.0614    -3.7037    -0.0715 H       
  45 H45            2.0552     0.0949    -0.1915 H       
  46 H46           -2.5842     0.0705     2.2130 H       
  47 H47           -1.7897     1.4859     1.4815 H       
  48 H48           -3.4813    -1.4204    -1.0099 H       
  49 H49           -3.5736    -1.6295     0.7558 H       
  50 H50           -4.9495     0.5611    -0.8655 H       
  51 H51           -5.7440    -0.8543    -0.1340 H       
  52 H52           -4.0523     2.0521     2.3573 H       
  53 H53           -3.9600     2.2611     0.5917 H       
  54 H54           -6.9508     0.5464    -0.6017 H       
  55 H55           -5.8999     2.0473     3.2629 H       
  56 H56           -9.1248     1.6902    -0.4483 H       
  57 H57           -0.9305     4.1746    -0.7261 H       
  58 H58            2.6979     4.4081     1.6271 H       
  59 H59            1.7363    -4.4311    -0.1842 H       
  60 H60            4.3501    -4.3067    -1.2469 H       
  61 H61            4.4665    -4.3141     0.5293 H       
  62 H62            3.1266    -6.3990     0.6084 H       
  63 H63            3.0102    -6.3917    -1.1677 H       
  64 H64            2.8507     7.4345     0.2945 H       
  65 H65            1.3847     7.9827     1.1420 H       
  66 H66            2.6266     7.0578     2.0196 H       
  67 H67            5.4805    -6.5333    -1.3301 H       
  68 H68            5.5969    -6.5407     0.4460 H       
  69 H69            3.5571   -10.8996    -1.6795 H       
  70 H70            5.3026   -11.0373    -1.2997 H       
  71 H71            2.9873   -10.3945     0.5550 H       
  72 H72            4.5140   -11.2703     0.9093 H       
  73 H73            5.7434    -9.2843     1.1795 H       
  74 H74            4.1387    -8.6048     1.5835 H       
  75 H75           -7.8528     4.4436     3.6162 H       
  76 H76           -9.2553     3.3877     3.9098 H       
  77 H77           -7.6748     2.9871     4.6238 H       
  78 H78           -9.9783     4.2097     1.1681 H       
  79 H79          -10.8076     2.6423     1.0136 H       
  80 H80          -10.3718     3.2637     2.6236 H       
@<TRIPOS>BOND
   1    1    2 1
   2    1   22 am
   3    1   42 1
   4    2    3 ar
   5    2    7 ar
   6    3    4 ar
   7    3    8 1
   8    4    5 ar
   9    4   43 1
  10    5    6 ar
  11    5   44 1
  12    6    7 ar
  13    6   14 1
  14    7   45 1
  15    8    9 1
  16    8   10 1
  17    9   13 1
  18    9   46 1
  19    9   47 1
  20   10   11 1
  21   10   48 1
  22   10   49 1
  23   11   12 1
  24   11   50 1
  25   11   51 1
  26   12   13 1
  27   12   16 1
  28   13   52 1
  29   13   53 1
  30   14   15 2
  31   14   29 am
  32   16   17 ar
  33   16   18 ar
  34   17   21 ar
  35   17   54 1
  36   18   19 ar
  37   18   55 1
  38   19   20 ar
  39   19   40 1
  40   20   21 ar
  41   20   41 1
  42   21   56 1
  43   22   24 2
  44   22   23 1
  45   23   25 2
  46   23   26 1
  47   25   28 1
  48   25   57 1
  49   26   27 2
  50   26   58 1
  51   27   28 1
  52   27   32 1
  53   29   30 1
  54   29   59 1
  55   30   31 1
  56   30   60 1
  57   30   61 1
  58   31   33 1
  59   31   62 1
  60   31   63 1
  61   32   64 1
  62   32   65 1
  63   32   66 1
  64   33   34 1
  65   33   67 1
  66   33   68 1
  67   34   35 am
  68   34   38 1
  69   35   36 1
  70   35   39 2
  71   36   37 1
  72   36   69 1
  73   36   70 1
  74   37   38 1
  75   37   71 1
  76   37   72 1
  77   38   73 1
  78   38   74 1
  79   40   75 1
  80   40   76 1
  81   40   77 1
  82   41   78 1
  83   41   79 1
  84   41   80 1

#	End of record

