#	Name: ASD01940487
#	Creating user name:	WinNT
#	Creation time:	15. 06. 2019 20:12

#	Modifying user name:	WinNT
#	Modification time:	15. 06. 2019 20:12

#	Program:	/corina/corina34_cracker 3.40 0067  02.08.2006

@<TRIPOS>MOLECULE
ASD01940487
  36   39    0    0    0
SMALL
NO_CHARGES


@<TRIPOS>ATOM
   1 S1             3.3491     2.9765    -2.8969 S.3     
   2 N2             4.0642     1.5456    -3.4598 N.2     
   3 C3             4.1323     0.7122    -2.4785 C.2     
   4 C4             3.6435     1.1024    -1.2209 C.ar    
   5 C5             3.1304     2.4122    -1.2375 C.ar    
   6 C6             2.5960     2.9929    -0.0899 C.ar    
   7 C7             2.5697     2.2572     1.1029 C.ar    
   8 C8             3.0825     0.9483     1.1191 C.ar    
   9 C9             3.6014     0.3861     0.0025 C.ar    
  10 C10            2.0109     2.8495     2.3270 C.2     
  11 O11            1.6547     4.0118     2.3319 O.2     
  12 O12            1.8935     2.1037     3.4439 O.3     
  13 N13            2.0954     4.2861    -0.1269 N.pl3   
  14 C14            2.9087     5.3616     0.2440 C.ar    
  15 C15            2.4502     6.6668     0.0947 C.ar    
  16 C16            3.2574     7.7269     0.4631 C.ar    
  17 C17            4.5189     7.4903     0.9789 C.ar    
  18 C18            4.9766     6.1945     1.1282 C.ar    
  19 C19            4.1733     5.1296     0.7675 C.ar    
  20 F20            1.2184     6.8977    -0.4099 F       
  21 C21            5.3967     8.6482     1.3786 C.3     
  22 C22            5.8448     8.7237     2.8395 C.3     
  23 C23            6.8482     8.3389     1.7505 C.3     
  24 H24            4.5580    -0.2700    -2.6212 H       
  25 H25            3.0621     0.3817     2.0383 H       
  26 H26            3.9885    -0.6214     0.0437 H       
  27 H27            1.5205     2.5369     4.2238 H       
  28 H28            1.1812     4.4444    -0.4100 H       
  29 H29            2.9029     8.7405     0.3477 H       
  30 H30            5.9622     6.0140     1.5313 H       
  31 H31            4.5307     4.1177     0.8886 H       
  32 H32            5.1982     9.5883     0.8639 H       
  33 H33            5.9413     9.7134     3.2859 H       
  34 H34            5.5046     7.9358     3.5116 H       
  35 H35            7.1682     7.2978     1.7062 H       
  36 H36            7.6049     9.0754     1.4804 H       
@<TRIPOS>BOND
   1    1    2 1
   2    1    5 1
   3    2    3 2
   4    3    4 1
   5    3   24 1
   6    4    5 ar
   7    4    9 ar
   8    5    6 ar
   9    6    7 ar
  10    6   13 1
  11    7    8 ar
  12    7   10 1
  13    8    9 ar
  14    8   25 1
  15    9   26 1
  16   10   11 2
  17   10   12 1
  18   12   27 1
  19   13   14 1
  20   13   28 1
  21   14   15 ar
  22   14   19 ar
  23   15   16 ar
  24   15   20 1
  25   16   17 ar
  26   16   29 1
  27   17   18 ar
  28   17   21 1
  29   18   19 ar
  30   18   30 1
  31   19   31 1
  32   21   22 1
  33   21   23 1
  34   21   32 1
  35   22   23 1
  36   22   33 1
  37   22   34 1
  38   23   35 1
  39   23   36 1

#	End of record

