#	Name: ASD01883683
#	Creating user name:	WinNT
#	Creation time:	15. 06. 2019 19:46

#	Modifying user name:	WinNT
#	Modification time:	15. 06. 2019 19:46

#	Program:	/corina/corina34_cracker 3.40 0067  02.08.2006

@<TRIPOS>MOLECULE
ASD01883683
  43   46    0    0    0
SMALL
NO_CHARGES


@<TRIPOS>ATOM
   1 C1            -1.1281    -0.6639    -1.0123 C.2     
   2 C2            -0.6445    -1.8768    -0.5008 C.2     
   3 C3            -1.5665    -2.8655    -0.0986 C.2     
   4 C4            -2.8929    -2.6588    -0.1997 C.2     
   5 N5            -3.4065    -1.4943    -0.6918 N.pl3   
   6 C6            -2.5783    -0.4798    -1.0992 C.2     
   7 C7            -4.6917    -1.0602    -0.8884 C.2     
   8 C8            -4.6172     0.1836    -1.4072 C.2     
   9 N9            -3.3285     0.5195    -1.5272 N.2     
  10 C10           -5.9519    -1.8280    -0.5825 C.3     
  11 C11           -6.4316    -2.5450    -1.8461 C.3     
  12 C12            0.8099    -2.1156    -0.3854 C.ar    
  13 C13            1.3959    -2.2709     0.8727 C.ar    
  14 C14            2.7536    -2.4941     0.9759 C.ar    
  15 C15            3.5372    -2.5640    -0.1716 C.ar    
  16 C16            2.9562    -2.4098    -1.4237 C.ar    
  17 C17            1.5999    -2.1923    -1.5344 C.ar    
  18 O18            4.8737    -2.7830    -0.0671 O.3     
  19 C19            5.6186    -2.7355    -1.2025 C.ar    
  20 C20            6.1587    -1.5307    -1.6296 C.ar    
  21 C21            6.9155    -1.4853    -2.7843 C.ar    
  22 C22            7.1348    -2.6387    -3.5145 C.ar    
  23 C23            6.5978    -3.8406    -3.0912 C.ar    
  24 C24            5.8454    -3.8927    -1.9339 C.ar    
  25 F25            3.3224    -2.6446     2.1920 F       
  26 F26           -5.4410    -3.4303    -2.2845 F       
  27 F27           -7.6015    -3.2578    -1.5621 F       
  28 F28           -6.6910    -1.6027    -2.8470 F       
  29 C29           -0.2289     0.3683    -1.4324 C.1     
  30 N30            0.4845     1.1872    -1.7656 N.1     
  31 H31           -1.2028    -3.8027     0.2962 H       
  32 H32           -3.5704    -3.4377     0.1177 H       
  33 H33           -5.4581     0.8051    -1.6773 H       
  34 H34           -5.7498    -2.5622     0.1973 H       
  35 H35           -6.7237    -1.1382    -0.2409 H       
  36 H36            0.7876    -2.2160     1.7633 H       
  37 H37            3.5678    -2.4643    -2.3122 H       
  38 H38            1.1496    -2.0730    -2.5088 H       
  39 H39            5.9871    -0.6294    -1.0600 H       
  40 H40            7.3361    -0.5478    -3.1171 H       
  41 H41            7.7262    -2.6009    -4.4174 H       
  42 H42            6.7703    -4.7400    -3.6636 H       
  43 H43            5.4262    -4.8317    -1.6037 H       
@<TRIPOS>BOND
   1    1    2 2
   2    1   29 1
   3    1    6 1
   4    2    3 1
   5    2   12 1
   6    3    4 2
   7    3   31 1
   8    4    5 1
   9    4   32 1
  10    5    6 1
  11    5    7 1
  12    6    9 2
  13    7    8 2
  14    7   10 1
  15    8    9 1
  16    8   33 1
  17   10   11 1
  18   10   34 1
  19   10   35 1
  20   11   26 1
  21   11   27 1
  22   11   28 1
  23   12   13 ar
  24   12   17 ar
  25   13   14 ar
  26   13   36 1
  27   14   15 ar
  28   14   25 1
  29   15   16 ar
  30   15   18 1
  31   16   17 ar
  32   16   37 1
  33   17   38 1
  34   18   19 1
  35   19   20 ar
  36   19   24 ar
  37   20   21 ar
  38   20   39 1
  39   21   22 ar
  40   21   40 1
  41   22   23 ar
  42   22   41 1
  43   23   24 ar
  44   23   42 1
  45   24   43 1
  46   29   30 3

#	End of record

