#	Name: ASD00740011
#	Creating user name:	WinNT
#	Creation time:	15. 06. 2019 18:37

#	Modifying user name:	WinNT
#	Modification time:	15. 06. 2019 18:37

#	Program:	/corina/corina34_cracker 3.40 0067  02.08.2006

@<TRIPOS>MOLECULE
ASD00740011
  59   62    0    0    0
SMALL
NO_CHARGES


@<TRIPOS>ATOM
   1 C1             5.2583     6.8664    -3.4328 C.ar    
   2 C2             6.5569     6.6391    -3.8445 C.ar    
   3 C3             7.6139     7.1790    -3.1346 C.ar    
   4 C4             7.3751     7.9480    -2.0107 C.ar    
   5 C5             6.0780     8.1791    -1.5928 C.ar    
   6 C6             5.0137     7.6426    -2.3075 C.ar    
   7 N7             3.6995     7.8746    -1.8880 N.am    
   8 C8             3.2918     9.1292    -1.6119 C.2     
   9 C9             1.8896     9.3876    -1.2872 C.2     
  10 S10            0.6030     8.1863    -1.2103 S.3     
  11 C11           -0.5240     9.4017    -0.7934 C.2     
  12 N12            0.0597    10.5639    -0.7332 N.2     
  13 C13            1.3436    10.6039    -0.9832 C.2     
  14 N14           -1.8662     9.1819    -0.5547 N.pl3   
  15 C15           -2.6739    10.2243    -0.1194 C.ar    
  16 C16           -4.0012     9.9919     0.2252 C.ar    
  17 C17           -4.7690    11.0703     0.6562 C.ar    
  18 N18           -4.2090    12.2765     0.7224 N.ar    
  19 C19           -2.9475    12.4556     0.3869 C.ar    
  20 N20           -2.1872    11.4601    -0.0206 N.ar    
  21 C21            4.1075     6.2779    -4.2077 C.3     
  22 C22           -2.3557    13.8386     0.4770 C.3     
  23 N23           -6.0970    10.8910     1.0107 N.3     
  24 C24           -6.7058    12.1606     1.4316 C.3     
  25 C25           -8.1884    11.9356     1.7376 C.3     
  26 N26           -8.3200    10.9176     2.7892 N.3     
  27 C27           -7.7112     9.6480     2.3682 C.3     
  28 C28           -6.2286     9.8729     2.0623 C.3     
  29 C29           -9.7274    10.7276     3.1649 C.3     
  30 C30           -9.8329     9.5998     4.1933 C.3     
  31 O31           -9.1168     9.9642     5.3750 O.3     
  32 Cl32           5.7785     9.1437    -0.1808 Cl      
  33 O33            4.0911    10.0475    -1.6328 O.2     
  34 H34            6.7472     6.0386    -4.7217 H       
  35 H35            8.6283     6.9992    -3.4588 H       
  36 H36            8.2028     8.3681    -1.4586 H       
  37 H37            3.0816     7.1326    -1.7959 H       
  38 H38            1.9192    11.5174    -0.9592 H       
  39 H39           -2.2448     8.2993    -0.6910 H       
  40 H40           -4.4252     9.0008     0.1598 H       
  41 H41            3.8678     5.2919    -3.8094 H       
  42 H42            3.2375     6.9281    -4.1161 H       
  43 H43            4.3850     6.1879    -5.2579 H       
  44 H44           -1.9288    13.9872     1.4689 H       
  45 H45           -1.5746    13.9493    -0.2751 H       
  46 H46           -3.1358    14.5797     0.3025 H       
  47 H47           -6.2014    12.5268     2.3258 H       
  48 H48           -6.6068    12.8942     0.6316 H       
  49 H49           -8.6353    12.8698     2.0778 H       
  50 H50           -8.6982    11.5954     0.8362 H       
  51 H51           -7.8102     8.9143     3.1683 H       
  52 H52           -8.2156     9.2817     1.4740 H       
  53 H53           -5.7817     8.9388     1.7221 H       
  54 H54           -5.7188    10.2132     2.9637 H       
  55 H55          -10.1160    11.6501     3.5961 H       
  56 H56          -10.3078    10.4676     2.2797 H       
  57 H57          -10.8808     9.4309     4.4411 H       
  58 H58           -9.4064     8.6872     3.7769 H       
  59 H59           -9.1408     9.2941     6.0719 H       
@<TRIPOS>BOND
   1    1    2 ar
   2    1   21 1
   3    1    6 ar
   4    2    3 ar
   5    2   34 1
   6    3    4 ar
   7    3   35 1
   8    4    5 ar
   9    4   36 1
  10    5    6 ar
  11    5   32 1
  12    6    7 1
  13    7    8 am
  14    7   37 1
  15    8    9 1
  16    8   33 2
  17    9   10 1
  18    9   13 2
  19   10   11 1
  20   11   12 2
  21   11   14 1
  22   12   13 1
  23   13   38 1
  24   14   15 1
  25   14   39 1
  26   15   16 ar
  27   15   20 ar
  28   16   17 ar
  29   16   40 1
  30   17   18 ar
  31   17   23 1
  32   18   19 ar
  33   19   20 ar
  34   19   22 1
  35   21   41 1
  36   21   42 1
  37   21   43 1
  38   22   44 1
  39   22   45 1
  40   22   46 1
  41   23   24 1
  42   23   28 1
  43   24   25 1
  44   24   47 1
  45   24   48 1
  46   25   26 1
  47   25   49 1
  48   25   50 1
  49   26   27 1
  50   26   29 1
  51   27   28 1
  52   27   51 1
  53   27   52 1
  54   28   53 1
  55   28   54 1
  56   29   30 1
  57   29   55 1
  58   29   56 1
  59   30   31 1
  60   30   57 1
  61   30   58 1
  62   31   59 1

#	End of record

