#	Name: ASD01913674
#	Creating user name:	WinNT
#	Creation time:	15. 06. 2019 20:02

#	Modifying user name:	WinNT
#	Modification time:	15. 06. 2019 20:02

#	Program:	/corina/corina34_cracker 3.40 0067  02.08.2006

@<TRIPOS>MOLECULE
ASD01913674
  41   43    0    0    0
SMALL
NO_CHARGES


@<TRIPOS>ATOM
   1 C1            -0.0274     1.3529     0.0065 C.ar    
   2 C2            -0.0117    -0.0291     0.0042 C.ar    
   3 C3            -1.2011    -0.7339     0.0167 C.ar    
   4 C4            -2.4057    -0.0565     0.0320 C.ar    
   5 C5            -2.4214     1.3259     0.0352 C.ar    
   6 C6            -1.2324     2.0306     0.0271 C.ar    
   7 C7            -3.7349     2.0645     0.0514 C.3     
   8 O8            -4.1352     2.2950     1.4037 O.3     
   9 C9            -5.3040     2.9530     1.5956 C.ar    
  10 N10           -6.0111     3.3463     0.5473 N.ar    
  11 C11           -7.1525     3.9887     0.6849 C.ar    
  12 C12           -7.6548     4.2762     1.9549 C.ar    
  13 C13           -6.9256     3.8707     3.0826 C.ar    
  14 C14           -5.7466     3.2004     2.8914 C.ar    
  15 C15           -8.9336     4.9964     2.1091 C.2     
  16 N16           -9.6258     5.3817     1.0187 N.am    
  17 O17           -9.3628     5.2422     3.2198 O.2     
  18 C18          -10.8829     5.9649     1.1618 C.ar    
  19 N19          -11.4337     6.0497     2.3624 N.ar    
  20 C20          -12.6219     6.5943     2.5417 C.ar    
  21 C21          -13.3380     7.0987     1.4744 C.ar    
  22 C22          -12.7955     7.0291     0.1982 C.ar    
  23 C23          -11.5452     6.4576     0.0426 C.ar    
  24 C24            1.2689     2.1212    -0.0072 C.3     
  25 H25            0.9296    -0.5584    -0.0078 H       
  26 H26           -1.1888    -1.8139     0.0141 H       
  27 H27           -3.3348    -0.6071     0.0410 H       
  28 H28           -1.2447     3.1105     0.0297 H       
  29 H29           -3.6211     3.0195    -0.4616 H       
  30 H30           -4.4935     1.4680    -0.4554 H       
  31 H31           -7.7039     4.2956    -0.1916 H       
  32 H32           -7.2879     4.0784     4.0786 H       
  33 H33           -5.1616     2.8743     3.7387 H       
  34 H34           -9.2486     5.2530     0.1343 H       
  35 H35          -13.0401     6.6459     3.5361 H       
  36 H36          -14.3102     7.5424     1.6305 H       
  37 H37          -13.3354     7.4164    -0.6532 H       
  38 H38          -11.0934     6.3872    -0.9358 H       
  39 H39            1.5697     2.3081    -1.0381 H       
  40 H40            1.1337     3.0713     0.5097 H       
  41 H41            2.0411     1.5400     0.4969 H       
@<TRIPOS>BOND
   1    1    2 ar
   2    1   24 1
   3    1    6 ar
   4    2    3 ar
   5    2   25 1
   6    3    4 ar
   7    3   26 1
   8    4    5 ar
   9    4   27 1
  10    5    6 ar
  11    5    7 1
  12    6   28 1
  13    7    8 1
  14    7   29 1
  15    7   30 1
  16    8    9 1
  17    9   10 ar
  18    9   14 ar
  19   10   11 ar
  20   11   12 ar
  21   11   31 1
  22   12   13 ar
  23   12   15 1
  24   13   14 ar
  25   13   32 1
  26   14   33 1
  27   15   16 am
  28   15   17 2
  29   16   18 1
  30   16   34 1
  31   18   19 ar
  32   18   23 ar
  33   19   20 ar
  34   20   21 ar
  35   20   35 1
  36   21   22 ar
  37   21   36 1
  38   22   23 ar
  39   22   37 1
  40   23   38 1
  41   24   39 1
  42   24   40 1
  43   24   41 1

#	End of record

