#	Name: ASD03330565
#	Creating user name:	WinNT
#	Creation time:	15. 06. 2019 20:37

#	Modifying user name:	WinNT
#	Modification time:	15. 06. 2019 20:37

#	Program:	/corina/corina34_cracker 3.40 0067  02.08.2006

@<TRIPOS>MOLECULE
ASD03330565
  63   66    0    0    0
SMALL
NO_CHARGES


@<TRIPOS>ATOM
   1 C1            -0.0809     2.0299     1.8019 C.2     
   2 N2            -0.1760     0.7387     2.2238 N.pl3   
   3 C3             1.1927     2.2151     1.3599 C.2     
   4 N4             1.8541     1.0371     1.4993 N.2     
   5 C5             1.0355     0.1461     2.0121 C.2     
   6 C6             1.3699    -1.2600     2.3093 C.2     
   7 C7             1.7534     3.4684     0.8260 C.2     
   8 O8             1.0569     4.4627     0.7505 O.2     
   9 C9             3.5957     4.7596    -0.1098 C.3     
  10 N10            3.0381     3.5133     0.4212 N.am    
  11 C11            3.2751     4.8669    -1.6019 C.3     
  12 C12            1.7622     4.7667    -1.8070 C.3     
  13 C13            3.7741     6.2112    -2.1355 C.3     
  14 C14            3.9683     3.7300    -2.3555 C.3     
  15 C15            5.0901     4.7643     0.0845 C.2     
  16 N16            5.7837     5.9119    -0.0511 N.am    
  17 O17            5.6686     3.7354     0.3629 O.2     
  18 C18            7.2441     5.9032     0.0646 C.3     
  19 C19           -1.3697     0.1224     2.8098 C.3     
  20 C20           -2.5886     0.4708     1.9498 C.3     
  21 C21           -3.1848     1.7961     2.4129 C.3     
  22 N22           -2.1412     2.7064     2.8880 N.3     
  23 C23           -1.1959     3.0434     1.8132 C.3     
  24 C24           -2.7274     3.9197     3.4731 C.3     
  25 C25            1.0471    -1.8522     3.4611 C.2     
  26 S26            1.5882    -3.5187     3.4929 S.3     
  27 C27            2.2785    -3.4034     1.8793 C.ar    
  28 C28            2.0771    -2.1229     1.3643 C.ar    
  29 C29            2.9465    -4.3626     1.1101 C.ar    
  30 C30            3.4079    -4.0439    -0.1450 C.ar    
  31 C31            3.2139    -2.7681    -0.6558 C.ar    
  32 C32            2.5588    -1.8233     0.0741 C.ar    
  33 H33            3.1581     5.6072     0.4177 H       
  34 H34            3.5936     2.7204     0.4814 H       
  35 H35            1.2683     5.5766    -1.2701 H       
  36 H36            1.5338     4.8431    -2.8700 H       
  37 H37            1.4067     3.8090    -1.4269 H       
  38 H38            4.8210     6.3444    -1.8626 H       
  39 H39            3.6763     6.2303    -3.2209 H       
  40 H40            3.1806     7.0167    -1.7030 H       
  41 H41            3.6128     2.7723    -1.9754 H       
  42 H42            3.7399     3.8064    -3.4186 H       
  43 H43            5.0461     3.8014    -2.2095 H       
  44 H44            5.3160     6.7436    -0.2253 H       
  45 H45            7.6652     5.2492    -0.6990 H       
  46 H46            7.6256     6.9149    -0.0730 H       
  47 H47            7.5282     5.5389     1.0519 H       
  48 H48           -1.2430    -0.9598     2.8408 H       
  49 H49           -1.5166     0.5021     3.8209 H       
  50 H50           -2.2840     0.5552     0.9067 H       
  51 H51           -3.3365    -0.3163     2.0456 H       
  52 H52           -3.7129     2.2609     1.5803 H       
  53 H53           -3.8904     1.6075     3.2220 H       
  54 H54           -0.7836     4.0370     1.9888 H       
  55 H55           -1.7135     3.0265     0.8541 H       
  56 H56           -3.3628     3.6464     4.3155 H       
  57 H57           -1.9303     4.5784     3.8179 H       
  58 H58           -3.3239     4.4346     2.7200 H       
  59 H59            0.5208    -1.3667     4.2696 H       
  60 H60            3.1003    -5.3564     1.5038 H       
  61 H61            3.9229    -4.7878    -0.7348 H       
  62 H62            3.5797    -2.5245    -1.6423 H       
  63 H63            2.4147    -0.8344    -0.3354 H       
@<TRIPOS>BOND
   1    1    2 1
   2    1    3 2
   3    1   23 1
   4    2   19 1
   5    2    5 1
   6    3    4 1
   7    3    7 1
   8    4    5 2
   9    5    6 1
  10    6   25 2
  11    6   28 1
  12    7    8 2
  13    7   10 am
  14    9   10 1
  15    9   11 1
  16    9   15 1
  17    9   33 1
  18   10   34 1
  19   11   12 1
  20   11   13 1
  21   11   14 1
  22   12   35 1
  23   12   36 1
  24   12   37 1
  25   13   38 1
  26   13   39 1
  27   13   40 1
  28   14   41 1
  29   14   42 1
  30   14   43 1
  31   15   16 am
  32   15   17 2
  33   16   18 1
  34   16   44 1
  35   18   45 1
  36   18   46 1
  37   18   47 1
  38   19   20 1
  39   19   48 1
  40   19   49 1
  41   20   21 1
  42   20   50 1
  43   20   51 1
  44   21   22 1
  45   21   52 1
  46   21   53 1
  47   22   23 1
  48   22   24 1
  49   23   54 1
  50   23   55 1
  51   24   56 1
  52   24   57 1
  53   24   58 1
  54   25   26 1
  55   25   59 1
  56   26   27 1
  57   27   28 ar
  58   27   29 ar
  59   28   32 ar
  60   29   30 ar
  61   29   60 1
  62   30   31 ar
  63   30   61 1
  64   31   32 ar
  65   31   62 1
  66   32   63 1

#	End of record

