#	Name: ASD00460030
#	Creating user name:	WinNT
#	Creation time:	15. 06. 2019 18:36

#	Modifying user name:	WinNT
#	Modification time:	15. 06. 2019 18:36

#	Program:	/corina/corina34_cracker 3.40 0067  02.08.2006

@<TRIPOS>MOLECULE
ASD00460030
  78   82    0    0    0
SMALL
NO_CHARGES


@<TRIPOS>ATOM
   1 O1             1.2001    -1.0936     0.3363 O.2     
   2 C2             0.5419    -0.0826     0.1856 C.2     
   3 N3             1.1265     1.1260     0.3033 N.am    
   4 C4             2.5552     1.2215     0.6130 C.3     
   5 C5             3.3588     1.2440    -0.6888 C.3     
   6 C6             4.8509     1.3438    -0.3654 C.3     
   7 C7             5.6490     1.2423    -1.6397 C.ar    
   8 C8             5.3810     2.0966    -2.6929 C.ar    
   9 C9             6.1131     2.0035    -3.8618 C.ar    
  10 C10            7.1134     1.0565    -3.9773 C.ar    
  11 C11            7.3820     0.2028    -2.9238 C.ar    
  12 C12            6.6529     0.2988    -1.7533 C.ar    
  13 C13            5.1333     2.6659     0.3003 C.ar    
  14 C14            5.8215     2.7035     1.4986 C.ar    
  15 C15            6.0805     3.9163     2.1092 C.ar    
  16 C16            5.6517     5.0916     1.5213 C.ar    
  17 C17            4.9643     5.0542     0.3226 C.ar    
  18 C18            4.7091     3.8416    -0.2902 C.ar    
  19 C19            0.3333     2.3442     0.1216 C.3     
  20 C20           -0.2491     2.7791     1.4679 C.3     
  21 N21           -1.0444     4.0007     1.2857 N.3     
  22 C22           -1.8105     4.3166     2.5000 C.3     
  23 C23           -2.5762     5.6253     2.2879 C.3     
  24 O24           -3.4146     5.4999     1.1361 O.3     
  25 C25           -2.7011     5.1930    -0.0648 C.3     
  26 C26           -1.9367     3.8800     0.1235 C.3     
  27 N27           -0.7713    -0.1706    -0.1048 N.am    
  28 C28           -1.3728    -1.4167    -0.2318 C.2     
  29 N29           -0.7714    -2.5568    -0.0925 N.2     
  30 C30           -1.5070    -3.6487    -0.2501 C.2     
  31 C31           -2.8029    -3.4339    -0.5387 C.2     
  32 S32           -3.0726    -1.6936    -0.5997 S.3     
  33 S33           -4.0222    -4.6781    -0.8029 S.o2    
  34 O34           -4.9299    -4.0892    -1.7241 O.2     
  35 O35           -3.2733    -5.8347    -1.1501 O.2     
  36 C36           -4.8090    -4.8921     0.8175 C.3     
  37 C37           -0.9398    -5.0126    -0.1177 C.ar    
  38 C38            0.2519    -5.3403    -0.7622 C.ar    
  39 C39            0.7752    -6.6109    -0.6351 C.ar    
  40 C40            0.1193    -7.5587     0.1298 C.ar    
  41 C41           -1.0637    -7.2391     0.7717 C.ar    
  42 C42           -1.5934    -5.9700     0.6563 C.ar    
  43 H43            2.7452     2.1372     1.1730 H       
  44 H44            2.8558     0.3610     1.2107 H       
  45 H45            3.1689     0.3283    -1.2489 H       
  46 H46            3.0583     2.1045    -1.2866 H       
  47 H47            5.1324     0.5319     0.3052 H       
  48 H48            4.5995     2.8365    -2.6027 H       
  49 H49            5.9032     2.6704    -4.6850 H       
  50 H50            7.6849     0.9833    -4.8908 H       
  51 H51            8.1633    -0.5373    -3.0141 H       
  52 H52            6.8627    -0.3682    -0.9301 H       
  53 H53            6.1565     1.7852     1.9579 H       
  54 H54            6.6175     3.9455     3.0458 H       
  55 H55            5.8534     6.0391     1.9988 H       
  56 H56            4.6290     5.9724    -0.1366 H       
  57 H57            4.1721     3.8124    -1.2268 H       
  58 H58            0.9697     3.1368    -0.2721 H       
  59 H59           -0.4783     2.1482    -0.5791 H       
  60 H60           -0.8854     1.9866     1.8616 H       
  61 H61            0.5626     2.9752     2.1686 H       
  62 H62           -2.5159     3.5113     2.7051 H       
  63 H63           -1.1279     4.4267     3.3427 H       
  64 H64           -3.1901     5.8339     3.1640 H       
  65 H65           -1.8686     6.4404     2.1360 H       
  66 H66           -3.4054     5.0890    -0.8901 H       
  67 H67           -1.9971     5.9956    -0.2850 H       
  68 H68           -1.3462     3.6714    -0.7686 H       
  69 H69           -2.6441     3.0677     0.2906 H       
  70 H70           -1.2965     0.6360    -0.2251 H       
  71 H71           -5.3120    -3.9679     1.1021 H       
  72 H72           -5.5380    -5.7007     0.7636 H       
  73 H73           -4.0499    -5.1362     1.5606 H       
  74 H74            0.7645    -4.6014    -1.3602 H       
  75 H75            1.6985    -6.8659    -1.1340 H       
  76 H76            0.5321    -8.5520     0.2260 H       
  77 H77           -1.5716    -7.9830     1.3676 H       
  78 H78           -2.5169    -5.7215     1.1582 H       
@<TRIPOS>BOND
   1    1    2 2
   2    2    3 am
   3    2   27 am
   4    3    4 1
   5    3   19 1
   6    4    5 1
   7    4   43 1
   8    4   44 1
   9    5    6 1
  10    5   45 1
  11    5   46 1
  12    6    7 1
  13    6   13 1
  14    6   47 1
  15    7    8 ar
  16    7   12 ar
  17    8    9 ar
  18    8   48 1
  19    9   10 ar
  20    9   49 1
  21   10   11 ar
  22   10   50 1
  23   11   12 ar
  24   11   51 1
  25   12   52 1
  26   13   14 ar
  27   13   18 ar
  28   14   15 ar
  29   14   53 1
  30   15   16 ar
  31   15   54 1
  32   16   17 ar
  33   16   55 1
  34   17   18 ar
  35   17   56 1
  36   18   57 1
  37   19   20 1
  38   19   58 1
  39   19   59 1
  40   20   21 1
  41   20   60 1
  42   20   61 1
  43   21   22 1
  44   21   26 1
  45   22   23 1
  46   22   62 1
  47   22   63 1
  48   23   24 1
  49   23   64 1
  50   23   65 1
  51   24   25 1
  52   25   26 1
  53   25   66 1
  54   25   67 1
  55   26   68 1
  56   26   69 1
  57   27   28 1
  58   27   70 1
  59   28   29 2
  60   28   32 1
  61   29   30 1
  62   30   31 2
  63   30   37 1
  64   31   32 1
  65   31   33 1
  66   33   34 2
  67   33   35 2
  68   33   36 1
  69   36   71 1
  70   36   72 1
  71   36   73 1
  72   37   38 ar
  73   37   42 ar
  74   38   39 ar
  75   38   74 1
  76   39   40 ar
  77   39   75 1
  78   40   41 ar
  79   40   76 1
  80   41   42 ar
  81   41   77 1
  82   42   78 1

#	End of record

