#	Name: ASD01478080
#	Creating user name:	WinNT
#	Creation time:	15. 06. 2019 19:21

#	Modifying user name:	WinNT
#	Modification time:	15. 06. 2019 19:21

#	Program:	/corina/corina34_cracker 3.40 0067  02.08.2006

@<TRIPOS>MOLECULE
ASD01478080
  30   31    0    0    0
SMALL
NO_CHARGES


@<TRIPOS>ATOM
   1 O1            -0.1494     1.2521    -0.7574 O.3     
   2 C2            -0.0382    -0.1456    -0.4778 C.3     
   3 O3             0.9493    -0.7257    -1.3335 O.3     
   4 C4             2.2468    -0.1378    -1.1984 C.3     
   5 C5             2.1459     1.3631    -1.4918 C.3     
   6 C6             1.0736     1.9742    -0.5832 C.3     
   7 O7             3.4254     1.9973    -1.2288 O.3     
   8 C8             3.7318     3.0821    -1.9632 C.2     
   9 O9             2.9521     3.4883    -2.8009 O.2     
  10 O10            4.9024     3.7172    -1.7695 O.3     
  11 C11            5.1033     4.8672    -2.4658 C.ar    
  12 C12            4.4750     6.0386    -2.0687 C.ar    
  13 C13            4.6811     7.2062    -2.7777 C.ar    
  14 C14            5.5124     7.2078    -3.8825 C.ar    
  15 C15            6.1397     6.0417    -4.2803 C.ar    
  16 C16            5.9413     4.8728    -3.5713 C.ar    
  17 N17            5.7307     8.4600    -4.6410 N.pl3   
  18 O18            5.1783     9.4878    -4.2917 O.2     
  19 O19            6.4628     8.4627    -5.6145 O.2     
  20 H20            0.2550    -0.2858     0.5626 H       
  21 H21           -0.9995    -0.6287    -0.6526 H       
  22 H22            2.6111    -0.2872    -0.1820 H       
  23 H23            2.9335    -0.6025    -1.9058 H       
  24 H24            1.8694     1.5134    -2.5353 H       
  25 H25            0.9213     3.0198    -0.8507 H       
  26 H26            1.3934     1.9047     0.4565 H       
  27 H27            3.8251     6.0376    -1.2062 H       
  28 H28            4.1923     8.1183    -2.4689 H       
  29 H29            6.7883     6.0454    -5.1439 H       
  30 H30            6.4347     3.9630    -3.8800 H       
@<TRIPOS>BOND
   1    1    2 1
   2    1    6 1
   3    2    3 1
   4    2   20 1
   5    2   21 1
   6    3    4 1
   7    4    5 1
   8    4   22 1
   9    4   23 1
  10    5    6 1
  11    5    7 1
  12    5   24 1
  13    6   25 1
  14    6   26 1
  15    7    8 1
  16    8    9 2
  17    8   10 1
  18   10   11 1
  19   11   12 ar
  20   11   16 ar
  21   12   13 ar
  22   12   27 1
  23   13   14 ar
  24   13   28 1
  25   14   15 ar
  26   14   17 1
  27   15   16 ar
  28   15   29 1
  29   16   30 1
  30   17   18 2
  31   17   19 2

#	End of record

