#	Name: ASD09740069
#	Creating user name:	WinNT
#	Creation time:	15. 06. 2019 21:22

#	Modifying user name:	WinNT
#	Modification time:	15. 06. 2019 21:22

#	Program:	/corina/corina34_cracker 3.40 0067  02.08.2006

@<TRIPOS>MOLECULE
ASD09740069
  35   37    0    0    0
SMALL
NO_CHARGES


@<TRIPOS>ATOM
   1 O1            -0.0144     1.2085     0.0087 O.3     
   2 N2             0.0021    -0.0041     0.0020 N.2     
   3 C3             1.2410     1.6828    -0.0008 C.2     
   4 N4             2.0455     0.6368    -0.0141 N.2     
   5 C5             1.2349    -0.4420    -0.0121 C.2     
   6 C6             1.6630    -1.8633    -0.0229 C.ar    
   7 C7             1.6452     3.1049     0.0030 C.ar    
   8 C8             0.7182    -2.8871    -0.0195 C.ar    
   9 C9             3.0198    -2.1959    -0.0424 C.ar    
  10 C10            3.3674    -3.5361    -0.0517 C.ar    
  11 C11            2.3698    -4.4935    -0.0416 C.ar    
  12 N12            1.0966    -4.1487    -0.0285 N.ar    
  13 C13            0.6761     4.1088     0.0182 C.ar    
  14 C14            1.0602     5.4341     0.0216 C.ar    
  15 C15            2.4024     5.7685     0.0095 C.ar    
  16 C16            3.3684     4.7778    -0.0060 C.ar    
  17 C17            2.9980     3.4491    -0.0028 C.ar    
  18 C18           -0.7501    -2.5480    -0.0048 C.3     
  19 C19            2.8145     7.2181     0.0128 C.3     
  20 C20            0.0150     6.5197     0.0380 C.3     
  21 F21           -1.2585     5.9408     0.0475 F       
  22 F22            0.1781     7.3068     1.1830 F       
  23 F23            0.1553     7.3193    -1.1014 F       
  24 H24            3.7782    -1.4271    -0.0503 H       
  25 H25            4.4064    -3.8305    -0.0672 H       
  26 H26            2.6372    -5.5399    -0.0492 H       
  27 H27           -0.3721     3.8491     0.0269 H       
  28 H28            4.4147     5.0455    -0.0157 H       
  29 H29            3.7529     2.6768    -0.0149 H       
  30 H30           -1.1133    -2.4613    -1.0288 H       
  31 H31           -1.2998    -3.3359     0.5101 H       
  32 H32           -0.8993    -1.6016     0.5150 H       
  33 H33            2.9244     7.5622     1.0412 H       
  34 H34            3.7646     7.3269    -0.5102 H       
  35 H35            2.0526     7.8135    -0.4901 H       
@<TRIPOS>BOND
   1    1    2 1
   2    1    3 1
   3    2    5 2
   4    3    4 2
   5    3    7 1
   6    4    5 1
   7    5    6 1
   8    6    8 ar
   9    6    9 ar
  10    7   13 ar
  11    7   17 ar
  12    8   18 1
  13    8   12 ar
  14    9   10 ar
  15    9   24 1
  16   10   11 ar
  17   10   25 1
  18   11   12 ar
  19   11   26 1
  20   13   14 ar
  21   13   27 1
  22   14   15 ar
  23   14   20 1
  24   15   16 ar
  25   15   19 1
  26   16   17 ar
  27   16   28 1
  28   17   29 1
  29   18   30 1
  30   18   31 1
  31   18   32 1
  32   19   33 1
  33   19   34 1
  34   19   35 1
  35   20   21 1
  36   20   22 1
  37   20   23 1

#	End of record

