#	Name: ASD02038566
#	Creating user name:	WinNT
#	Creation time:	15. 06. 2019 20:17

#	Modifying user name:	WinNT
#	Modification time:	15. 06. 2019 20:17

#	Program:	/corina/corina34_cracker 3.40 0067  02.08.2006

@<TRIPOS>MOLECULE
ASD02038566
  54   56    0    0    0
SMALL
NO_CHARGES


@<TRIPOS>ATOM
   1 C1            -0.0172     1.4641    -0.0077 C.3     
   2 N2             0.0026    -0.0052     0.0023 N.3     
   3 C3            -1.3592    -0.5495     0.0884 C.3     
   4 C4             0.7049    -0.5277    -1.1781 C.3     
   5 C5             2.1419    -0.0009    -1.1881 C.3     
   6 N6             2.1221     1.4685    -1.1981 N.3     
   7 C7             3.4168     1.9860    -1.2799 C.ar    
   8 C8             3.6170     3.3604    -1.3024 C.ar    
   9 C9             4.8986     3.8688    -1.3829 C.ar    
  10 C10            5.9819     3.0112    -1.4410 C.ar    
  11 C11            5.7861     1.6424    -1.4188 C.ar    
  12 C12            4.5076     1.1275    -1.3331 C.ar    
  13 C13            1.4197     1.9910    -0.0177 C.3     
  14 C14           -1.8792    -0.3986     1.5193 C.3     
  15 C15           -3.3393    -0.8515     1.5817 C.3     
  16 O16           -3.8599    -0.6022     2.8890 O.3     
  17 C17           -5.1552    -0.9496     3.1143 C.ar    
  18 C18           -5.7239    -0.7352     4.3610 C.ar    
  19 C19           -7.0396    -1.0881     4.5899 C.ar    
  20 C20           -7.7921    -1.6564     3.5728 C.ar    
  21 C21           -7.2237    -1.8699     2.3258 C.ar    
  22 C22           -5.9093    -1.5130     2.0957 C.ar    
  23 O23           -9.0871    -2.0047     3.7983 O.3     
  24 O24           -1.0927    -1.2041     2.3994 O.3     
  25 C25            7.3788     3.5695    -1.5293 C.3     
  26 C26            7.9380     3.7700    -0.1193 C.3     
  27 H27           -0.5393     1.8147    -0.8980 H       
  28 H28           -0.5314     1.8270     0.8823 H       
  29 H29           -2.0117    -0.0055    -0.5946 H       
  30 H30           -1.3466    -1.6048    -0.1843 H       
  31 H31            0.7172    -1.6170    -1.1414 H       
  32 H32            0.1911    -0.1997    -2.0817 H       
  33 H33            2.6639    -0.3515    -0.2978 H       
  34 H34            2.6560    -0.3637    -2.0781 H       
  35 H35            2.7714     4.0307    -1.2574 H       
  36 H36            5.0549     4.9372    -1.4008 H       
  37 H37            6.6343     0.9755    -1.4644 H       
  38 H38            4.3554     0.0584    -1.3155 H       
  39 H39            1.4074     3.0803    -0.0544 H       
  40 H40            1.9336     1.6630     0.8859 H       
  41 H41           -1.8095     0.6459     1.8230 H       
  42 H42           -3.9232    -0.2977     0.8465 H       
  43 H43           -3.3986    -1.9179     1.3643 H       
  44 H44           -5.1379    -0.2927     5.1530 H       
  45 H45           -7.4822    -0.9219     5.5609 H       
  46 H46           -7.8097    -2.3124     1.5338 H       
  47 H47           -5.4667    -1.6793     1.1247 H       
  48 H48           -9.7226    -1.3012     3.6073 H       
  49 H49           -1.1081    -2.1477     2.1882 H       
  50 H50            8.0144     2.8734    -2.0766 H       
  51 H51            7.3553     4.5267    -2.0503 H       
  52 H52            7.9615     2.8128     0.4017 H       
  53 H53            8.9484     4.1738    -0.1831 H       
  54 H54            7.3024     4.4661     0.4280 H       
@<TRIPOS>BOND
   1    1    2 1
   2    1   13 1
   3    1   27 1
   4    1   28 1
   5    2    3 1
   6    2    4 1
   7    3   14 1
   8    3   29 1
   9    3   30 1
  10    4    5 1
  11    4   31 1
  12    4   32 1
  13    5    6 1
  14    5   33 1
  15    5   34 1
  16    6    7 1
  17    6   13 1
  18    7    8 ar
  19    7   12 ar
  20    8    9 ar
  21    8   35 1
  22    9   10 ar
  23    9   36 1
  24   10   11 ar
  25   10   25 1
  26   11   12 ar
  27   11   37 1
  28   12   38 1
  29   13   39 1
  30   13   40 1
  31   14   15 1
  32   14   24 1
  33   14   41 1
  34   15   16 1
  35   15   42 1
  36   15   43 1
  37   16   17 1
  38   17   18 ar
  39   17   22 ar
  40   18   19 ar
  41   18   44 1
  42   19   20 ar
  43   19   45 1
  44   20   21 ar
  45   20   23 1
  46   21   22 ar
  47   21   46 1
  48   22   47 1
  49   23   48 1
  50   24   49 1
  51   25   26 1
  52   25   50 1
  53   25   51 1
  54   26   52 1
  55   26   53 1
  56   26   54 1

#	End of record

