#	Name: ASD01884597
#	Creating user name:	WinNT
#	Creation time:	15. 06. 2019 19:48

#	Modifying user name:	WinNT
#	Modification time:	15. 06. 2019 19:48

#	Program:	/corina/corina34_cracker 3.40 0067  02.08.2006

@<TRIPOS>MOLECULE
ASD01884597
  46   48    0    0    0
SMALL
NO_CHARGES


@<TRIPOS>ATOM
   1 C1             0.7747     1.0544     1.9439 C.2     
   2 C2             0.4970    -0.1522     1.3731 C.2     
   3 C3             1.2941    -0.6107     0.3123 C.2     
   4 C4             2.3244     0.1427    -0.1324 C.2     
   5 N5             2.6012     1.3495     0.4401 N.am    
   6 C6             1.8531     1.8146     1.4588 C.2     
   7 O7             2.1120     2.8955     1.9614 O.2     
   8 C8             3.6336     2.0842    -0.0188 C.2     
   9 C9             1.0015    -1.9423    -0.3298 C.3     
  10 C10            1.6728    -3.0380     0.4576 C.ar    
  11 C11            0.9999    -3.6520     1.4977 C.ar    
  12 C12            1.6131    -4.6567     2.2210 C.ar    
  13 C13            2.9051    -5.0493     1.9029 C.ar    
  14 C14            3.5781    -4.4316     0.8588 C.ar    
  15 C15            2.9585    -3.4313     0.1350 C.ar    
  16 O16            3.5107    -6.0371     2.6132 O.3     
  17 C17            4.8414    -6.3894     2.2300 C.3     
  18 N18            3.5180     3.4237    -0.1135 N.am    
  19 O19            4.6687     1.5391    -0.3471 O.2     
  20 C20            2.1953     4.0361    -0.2607 C.3     
  21 C21            4.6621     4.2299    -0.0713 C.ar    
  22 C22            4.5403     5.6125    -0.1137 C.ar    
  23 C23            5.6700     6.4059    -0.0715 C.ar    
  24 C24            6.9235     5.8236     0.0126 C.ar    
  25 C25            7.0472     4.4450     0.0550 C.ar    
  26 C26            5.9196     3.6482     0.0188 C.ar    
  27 F27            8.0274     6.6014     0.0529 F       
  28 H28            0.1691     1.4246     2.7579 H       
  29 H29           -0.3275    -0.7493     1.7335 H       
  30 H30            2.9347    -0.2145    -0.9487 H       
  31 H31           -0.0753    -2.1110    -0.3419 H       
  32 H32            1.3812    -1.9442    -1.3515 H       
  33 H33           -0.0057    -3.3458     1.7452 H       
  34 H34            1.0872    -5.1358     3.0336 H       
  35 H35            4.5840    -4.7355     0.6093 H       
  36 H36            3.4820    -2.9501    -0.6779 H       
  37 H37            5.2061    -7.1882     2.8758 H       
  38 H38            4.8432    -6.7300     1.1945 H       
  39 H39            5.4901    -5.5189     2.3272 H       
  40 H40            1.7310     4.1382     0.7202 H       
  41 H41            2.2994     5.0203    -0.7175 H       
  42 H42            1.5714     3.4056    -0.8942 H       
  43 H43            3.5629     6.0670    -0.1801 H       
  44 H44            5.5757     7.4813    -0.1045 H       
  45 H45            8.0257     3.9928     0.1206 H       
  46 H46            6.0165     2.5730     0.0522 H       
@<TRIPOS>BOND
   1    1    2 2
   2    1    6 1
   3    1   28 1
   4    2    3 1
   5    2   29 1
   6    3    4 2
   7    3    9 1
   8    4    5 1
   9    4   30 1
  10    5    6 am
  11    5    8 am
  12    6    7 2
  13    8   18 am
  14    8   19 2
  15    9   10 1
  16    9   31 1
  17    9   32 1
  18   10   11 ar
  19   10   15 ar
  20   11   12 ar
  21   11   33 1
  22   12   13 ar
  23   12   34 1
  24   13   14 ar
  25   13   16 1
  26   14   15 ar
  27   14   35 1
  28   15   36 1
  29   16   17 1
  30   17   37 1
  31   17   38 1
  32   17   39 1
  33   18   20 1
  34   18   21 1
  35   20   40 1
  36   20   41 1
  37   20   42 1
  38   21   22 ar
  39   21   26 ar
  40   22   23 ar
  41   22   43 1
  42   23   24 ar
  43   23   44 1
  44   24   25 ar
  45   24   27 1
  46   25   26 ar
  47   25   45 1
  48   26   46 1

#	End of record

