#	Name: ASD01814621
#	Creating user name:	WinNT
#	Creation time:	15. 06. 2019 19:32

#	Modifying user name:	WinNT
#	Modification time:	15. 06. 2019 19:32

#	Program:	/corina/corina34_cracker 3.40 0067  02.08.2006

@<TRIPOS>MOLECULE
ASD01814621
  45   48    0    0    0
SMALL
NO_CHARGES


@<TRIPOS>ATOM
   1 C1            -0.0169     1.3972     0.0097 C.2     
   2 C2             0.0021    -0.0041     0.0020 C.2     
   3 C3             1.1986    -0.6593    -0.0129 C.2     
   4 C4             2.3918     0.0821    -0.0204 C.2     
   5 N5             2.3437     1.4497    -0.0122 N.am    
   6 C6             1.1421     2.0937     0.0024 C.2     
   7 C7             3.6227    -0.5889    -0.0356 C.2     
   8 C8             4.7877     0.1218    -0.0425 C.2     
   9 C9             4.7345     1.5280    -0.0346 C.2     
  10 C10            3.4812     2.1736    -0.0189 C.2     
  11 O11            3.4258     3.3917    -0.0123 O.2     
  12 C12            5.9703     2.3140    -0.0413 C.2     
  13 O13            5.9124     3.6618    -0.0337 O.3     
  14 O14            7.0487     1.7516    -0.0537 O.2     
  15 C15            3.6593    -2.0954    -0.0439 C.3     
  16 N16            3.7787    -2.5747    -1.4274 N.3     
  17 C17            5.0699    -2.1912    -2.0067 C.3     
  18 C18            5.2217    -2.7718    -3.3885 C.ar    
  19 C19            4.4333    -3.8133    -3.8304 C.ar    
  20 C20            3.3685    -4.4253    -2.9562 C.3     
  21 C21            3.6028    -4.0341    -1.4970 C.3     
  22 C22            6.1870    -2.2328    -4.2267 C.ar    
  23 C23            6.3654    -2.7349    -5.5035 C.ar    
  24 C24            5.5710    -3.7874    -5.9480 C.ar    
  25 C25            4.6092    -4.3215    -5.1088 C.ar    
  26 O26            5.7394    -4.2889    -7.2009 O.3     
  27 O27            7.3127    -2.2018    -6.3208 O.3     
  28 H28           -0.9605     1.9226     0.0170 H       
  29 H29           -0.9233    -0.5609     0.0082 H       
  30 H30            1.2282    -1.7389    -0.0187 H       
  31 H31            1.1156     3.1733     0.0087 H       
  32 H32            5.7393    -0.3889    -0.0536 H       
  33 H33            6.7544     4.1373    -0.0385 H       
  34 H34            4.5153    -2.4412     0.5356 H       
  35 H35            2.7412    -2.4836     0.3971 H       
  36 H36            5.1296    -1.1044    -2.0647 H       
  37 H37            5.8738    -2.5616    -1.3706 H       
  38 H38            2.3893    -4.0671    -3.2742 H       
  39 H39            3.4031    -5.5107    -3.0499 H       
  40 H40            4.4995    -4.5293    -1.1245 H       
  41 H41            2.7421    -4.3282    -0.8962 H       
  42 H42            6.8028    -1.4159    -3.8804 H       
  43 H43            3.9916    -5.1386    -5.4514 H       
  44 H44            6.3797    -5.0117    -7.2524 H       
  45 H45            8.1790    -2.6251    -6.2473 H       
@<TRIPOS>BOND
   1    1    2 1
   2    1    6 2
   3    1   28 1
   4    2    3 2
   5    2   29 1
   6    3    4 1
   7    3   30 1
   8    4    5 1
   9    4    7 2
  10    5    6 1
  11    5   10 am
  12    6   31 1
  13    7    8 1
  14    7   15 1
  15    8    9 2
  16    8   32 1
  17    9   10 1
  18    9   12 1
  19   10   11 2
  20   12   13 1
  21   12   14 2
  22   13   33 1
  23   15   16 1
  24   15   34 1
  25   15   35 1
  26   16   17 1
  27   16   21 1
  28   17   18 1
  29   17   36 1
  30   17   37 1
  31   18   19 ar
  32   18   22 ar
  33   19   20 1
  34   19   25 ar
  35   20   21 1
  36   20   38 1
  37   20   39 1
  38   21   40 1
  39   21   41 1
  40   22   23 ar
  41   22   42 1
  42   23   24 ar
  43   23   27 1
  44   24   25 ar
  45   24   26 1
  46   25   43 1
  47   26   44 1
  48   27   45 1

#	End of record

