#	Name: ASD01910745
#	Creating user name:	WinNT
#	Creation time:	15. 06. 2019 19:56

#	Modifying user name:	WinNT
#	Modification time:	15. 06. 2019 19:56

#	Program:	/corina/corina34_cracker 3.40 0067  02.08.2006

@<TRIPOS>MOLECULE
ASD01910745
  51   54    0    0    0
SMALL
NO_CHARGES


@<TRIPOS>ATOM
   1 C1            12.4099    -2.3110     4.1834 C.ar    
   2 N2            12.9564    -2.4721     2.9899 N.ar    
   3 C3            12.2828    -2.1428     1.9041 C.ar    
   4 C4            10.9946    -1.6250     2.0166 C.ar    
   5 N5            10.4503    -1.4651     3.2160 N.ar    
   6 C6            11.1320    -1.7975     4.2990 C.ar    
   7 N7            10.2815    -1.2763     0.8755 N.3     
   8 C8             8.9533    -0.7543     1.2238 C.3     
   9 C9             8.2727    -0.2153    -0.0390 C.3     
  10 N10            8.2768    -1.2740    -1.0600 N.am    
  11 C11            9.5515    -1.9412    -1.3655 C.3     
  12 C12           10.1817    -2.4123    -0.0505 C.3     
  13 C13            7.1426    -1.6236    -1.6985 C.2     
  14 C14            7.1893    -2.5995    -2.8054 C.ar    
  15 O15            6.0809    -1.1354    -1.3630 O.2     
  16 C16            6.1810    -3.5600    -2.9339 C.ar    
  17 C17            6.2196    -4.4734    -3.9651 C.ar    
  18 C18            7.2589    -4.4473    -4.8837 C.ar    
  19 C19            8.2772    -3.4869    -4.7652 C.ar    
  20 C20            8.2357    -2.5601    -3.7259 C.ar    
  21 C21            9.3512    -3.4576    -5.7119 C.1     
  22 C22           10.2317    -3.4335    -6.4881 C.1     
  23 C23           11.3057    -3.4042    -7.4348 C.ar    
  24 O24            7.2920    -5.3492    -5.8959 O.3     
  25 N25           12.2659    -2.4920    -7.3158 N.ar    
  26 C26           13.2701    -2.4328    -8.1663 C.ar    
  27 C27           13.3623    -3.3230    -9.2203 C.ar    
  28 C28           12.3814    -4.2925    -9.3829 C.ar    
  29 C29           11.3403    -4.3382    -8.4740 C.ar    
  30 C30            6.2244    -6.2972    -5.9553 C.3     
  31 H31           12.9622    -2.5857     5.0699 H       
  32 H32           12.7297    -2.2742     0.9298 H       
  33 H33           10.6896    -1.6675     5.2756 H       
  34 H34            8.3482    -1.5547     1.6496 H       
  35 H35            9.0580     0.0499     1.9520 H       
  36 H36            7.2455     0.0676     0.1910 H       
  37 H37            8.8203     0.6517    -0.4084 H       
  38 H38            9.3697    -2.7994    -2.0125 H       
  39 H39           10.2220    -1.2401    -1.8623 H       
  40 H40           11.1772    -2.8105    -0.2464 H       
  41 H41            9.5595    -3.1896     0.3931 H       
  42 H42            5.3692    -3.5862    -2.2221 H       
  43 H43            5.4378    -5.2127    -4.0583 H       
  44 H44            9.0153    -1.8190    -3.6290 H       
  45 H45           14.0319    -1.6780    -8.0388 H       
  46 H46           14.1901    -3.2645    -9.9116 H       
  47 H47           12.4327    -4.9980   -10.1990 H       
  48 H48           10.5609    -5.0795    -8.5706 H       
  49 H49            5.2763    -5.7704    -6.0633 H       
  50 H50            6.3723    -6.9579    -6.8095 H       
  51 H51            6.2103    -6.8864    -5.0383 H       
@<TRIPOS>BOND
   1    1    2 ar
   2    1    6 ar
   3    1   31 1
   4    2    3 ar
   5    3    4 ar
   6    3   32 1
   7    4    5 ar
   8    4    7 1
   9    5    6 ar
  10    6   33 1
  11    7    8 1
  12    7   12 1
  13    8    9 1
  14    8   34 1
  15    8   35 1
  16    9   10 1
  17    9   36 1
  18    9   37 1
  19   10   11 1
  20   10   13 am
  21   11   12 1
  22   11   38 1
  23   11   39 1
  24   12   40 1
  25   12   41 1
  26   13   14 1
  27   13   15 2
  28   14   16 ar
  29   14   20 ar
  30   16   17 ar
  31   16   42 1
  32   17   18 ar
  33   17   43 1
  34   18   19 ar
  35   18   24 1
  36   19   20 ar
  37   19   21 1
  38   20   44 1
  39   21   22 3
  40   22   23 1
  41   23   25 ar
  42   23   29 ar
  43   24   30 1
  44   25   26 ar
  45   26   27 ar
  46   26   45 1
  47   27   28 ar
  48   27   46 1
  49   28   29 ar
  50   28   47 1
  51   29   48 1
  52   30   49 1
  53   30   50 1
  54   30   51 1

#	End of record

