#	Name: ASD01730094
#	Creating user name:	WinNT
#	Creation time:	15. 06. 2019 19:23

#	Modifying user name:	WinNT
#	Modification time:	15. 06. 2019 19:23

#	Program:	/corina/corina34_cracker 3.40 0067  02.08.2006

@<TRIPOS>MOLECULE
ASD01730094
  23   24    0    0    0
SMALL
NO_CHARGES


@<TRIPOS>ATOM
   1 S1            -0.0226     1.8146     0.0120 S.3     
   2 C2             0.0021    -0.0041     0.0020 C.3     
   3 C3             1.0566    -0.4779     0.9644 C.2     
   4 N4             2.1653     0.1298     1.1729 N.2     
   5 C5             2.5982     1.2819     0.5873 C.ar    
   6 C6             1.7028     2.1869    -0.0025 C.ar    
   7 C7             3.9640     1.5760     0.5708 C.ar    
   8 C8             4.4162     2.7403    -0.0141 C.ar    
   9 C9             3.5229     3.6319    -0.5919 C.ar    
  10 C10            2.1632     3.3522    -0.5866 C.ar    
  11 O11            3.9794     4.7777    -1.1637 O.3     
  12 C12            5.3907     5.0000    -1.1340 C.3     
  13 F13            6.0410     3.9595    -1.8060 F       
  14 F14            5.6845     6.2156    -1.7609 F       
  15 F15            5.8281     5.0426     0.1942 F       
  16 N16            0.8161    -1.6328     1.6631 N.pl3   
  17 H17           -0.9717    -0.3846     0.3103 H       
  18 H18            0.2357    -0.3610    -1.0011 H       
  19 H19            4.6678     0.8895     1.0177 H       
  20 H20            5.4736     2.9602    -0.0222 H       
  21 H21            1.4666     4.0436    -1.0372 H       
  22 H22           -0.0136    -2.1170     1.5289 H       
  23 H23            1.4757    -1.9657     2.2916 H       
@<TRIPOS>BOND
   1    1    2 1
   2    1    6 1
   3    2    3 1
   4    2   17 1
   5    2   18 1
   6    3    4 2
   7    3   16 1
   8    4    5 1
   9    5    6 ar
  10    5    7 ar
  11    6   10 ar
  12    7    8 ar
  13    7   19 1
  14    8    9 ar
  15    8   20 1
  16    9   10 ar
  17    9   11 1
  18   10   21 1
  19   11   12 1
  20   12   13 1
  21   12   14 1
  22   12   15 1
  23   16   22 1
  24   16   23 1

#	End of record

