#	Name: ASD01913648
#	Creating user name:	WinNT
#	Creation time:	15. 06. 2019 20:02

#	Modifying user name:	WinNT
#	Modification time:	15. 06. 2019 20:02

#	Program:	/corina/corina34_cracker 3.40 0067  02.08.2006

@<TRIPOS>MOLECULE
ASD01913648
  47   48    0    0    0
SMALL
NO_CHARGES


@<TRIPOS>ATOM
   1 C1            -0.0167     1.3804     0.0096 C.ar    
   2 C2             0.0021    -0.0041     0.0020 C.ar    
   3 C3             1.2110    -0.6789    -0.0131 C.ar    
   4 C4             2.3973     0.0299    -0.0207 C.ar    
   5 C5             2.3774     1.4122    -0.0131 C.ar    
   6 C6             1.1709     2.0870     0.0021 C.ar    
   7 C7             3.6717     2.1840    -0.0208 C.3     
   8 O8             4.0685     2.4351    -1.3704 O.3     
   9 C9             5.2206     3.1240    -1.5548 C.ar    
  10 N10            5.9156     3.5269    -0.5023 N.ar    
  11 C11            7.0406     4.1990    -0.6296 C.ar    
  12 C12            7.5423     4.5124    -1.8932 C.ar    
  13 C13            6.8301     4.1000    -3.0293 C.ar    
  14 C14            5.6595     3.3930    -2.8478 C.ar    
  15 C15            8.8034     5.2668    -2.0326 C.2     
  16 N16            9.4793     5.6584    -0.9343 N.am    
  17 O17            9.2323     5.5350    -3.1382 O.2     
  18 C18           10.7309     6.4072    -1.0726 C.3     
  19 F19           -1.1583    -0.6959     0.0098 F       
  20 C20           11.2904     6.7262     0.3152 C.3     
  21 C21           12.5975     7.5082     0.1707 C.3     
  22 C22           12.3309     8.8123    -0.5837 C.3     
  23 C23           13.1571     7.8271     1.5586 C.3     
  24 C24           13.6117     6.6672    -0.6071 C.3     
  25 H25           -0.9591     1.9078     0.0170 H       
  26 H26            1.2268    -1.7588    -0.0187 H       
  27 H27            3.3404    -0.4962    -0.0321 H       
  28 H28            1.1565     3.1669     0.0080 H       
  29 H29            3.5328     3.1317     0.4995 H       
  30 H30            4.4442     1.6029     0.4829 H       
  31 H31            7.5800     4.5110     0.2526 H       
  32 H32            7.1915     4.3267    -4.0214 H       
  33 H33            5.0855     3.0594    -3.6997 H       
  34 H34            9.1371     5.4445    -0.0522 H       
  35 H35           11.4534     5.8081    -1.6268 H       
  36 H36           10.5409     7.3363    -1.6101 H       
  37 H37           10.5679     7.3253     0.8694 H       
  38 H38           11.4804     5.7971     0.8527 H       
  39 H39           11.6084     9.4114    -0.0296 H       
  40 H40           13.2621     9.3694    -0.6866 H       
  41 H41           11.9323     8.5850    -1.5724 H       
  42 H42           13.3470     6.8981     2.0960 H       
  43 H43           14.0883     8.3842     1.4556 H       
  44 H44           12.4346     8.4263     2.1127 H       
  45 H45           13.2131     6.4399    -1.5958 H       
  46 H46           14.5429     7.2243    -0.7101 H       
  47 H47           13.8016     5.7381    -0.0696 H       
@<TRIPOS>BOND
   1    1    2 ar
   2    1    6 ar
   3    1   25 1
   4    2    3 ar
   5    2   19 1
   6    3    4 ar
   7    3   26 1
   8    4    5 ar
   9    4   27 1
  10    5    6 ar
  11    5    7 1
  12    6   28 1
  13    7    8 1
  14    7   29 1
  15    7   30 1
  16    8    9 1
  17    9   10 ar
  18    9   14 ar
  19   10   11 ar
  20   11   12 ar
  21   11   31 1
  22   12   13 ar
  23   12   15 1
  24   13   14 ar
  25   13   32 1
  26   14   33 1
  27   15   16 am
  28   15   17 2
  29   16   18 1
  30   16   34 1
  31   18   20 1
  32   18   35 1
  33   18   36 1
  34   20   21 1
  35   20   37 1
  36   20   38 1
  37   21   22 1
  38   21   23 1
  39   21   24 1
  40   22   39 1
  41   22   40 1
  42   22   41 1
  43   23   42 1
  44   23   43 1
  45   23   44 1
  46   24   45 1
  47   24   46 1
  48   24   47 1

#	End of record

