#	Name: ASD01815784
#	Creating user name:	WinNT
#	Creation time:	15. 06. 2019 19:34

#	Modifying user name:	WinNT
#	Modification time:	15. 06. 2019 19:34

#	Program:	/corina/corina34_cracker 3.40 0067  02.08.2006

@<TRIPOS>MOLECULE
ASD01815784
  60   65    0    0    0
SMALL
NO_CHARGES


@<TRIPOS>ATOM
   1 C1            -0.0168     1.3869     0.0097 C.ar    
   2 C2             0.0021    -0.0041     0.0020 C.ar    
   3 C3             1.1801    -0.6897    -0.0129 C.ar    
   4 C4             2.3948     0.0129    -0.0207 C.ar    
   5 C5             2.3717     1.4290    -0.0129 C.ar    
   6 C6             1.1455     2.1015     0.0024 C.ar    
   7 C7             3.6293    -0.6694    -0.0365 C.ar    
   8 C8             4.8031     0.0063    -0.0446 C.ar    
   9 C9             4.8359     1.4095    -0.0374 C.ar    
  10 C10            3.6406     2.1511    -0.0211 C.ar    
  11 C11            6.1026     2.1526    -0.0470 C.2     
  12 N12            6.0328     3.5041    -0.0399 N.am    
  13 C13            4.8302     4.1313    -0.0241 C.2     
  14 N14            3.6961     3.4935    -0.0158 N.2     
  15 C15            7.2655     4.2957    -0.0490 C.3     
  16 C16            7.2938     5.1857    -1.2953 C.3     
  17 C17            7.3143     5.1822     1.1993 C.3     
  18 C18            8.5657     6.0622     1.1420 C.3     
  19 O19            8.5443     6.8411    -0.0559 O.3     
  20 C20            8.5460     6.0656    -1.2562 C.3     
  21 O21            7.3616     4.3602     2.3672 O.3     
  22 O22            7.1745     1.5748    -0.0604 O.2     
  23 C23            3.6424    -2.1763    -0.0442 C.3     
  24 C24            3.5087    -2.6726    -1.4608 C.ar    
  25 C25            4.6334    -2.8953    -2.2436 C.ar    
  26 C26            4.4793    -3.3508    -3.5400 C.ar    
  27 N27            3.2817    -3.5752    -4.0408 N.ar    
  28 C28            2.1795    -3.3749    -3.3256 C.ar    
  29 C29            2.2629    -2.9217    -2.0078 C.ar    
  30 C30            0.8572    -3.6395    -3.9273 C.2     
  31 C31            0.6306    -4.0866    -5.1918 C.2     
  32 C32           -0.7657    -4.1971    -5.3387 C.2     
  33 C33           -1.3174    -3.8161    -4.1693 C.2     
  34 O34           -0.3341    -3.4857    -3.3174 O.3     
  35 C35           -2.7931    -3.7740    -3.8666 C.3     
  36 H36           -0.9630     1.9076     0.0169 H       
  37 H37           -0.9305    -0.5488     0.0083 H       
  38 H38            1.1786    -1.7697    -0.0183 H       
  39 H39            1.1188     3.1811     0.0081 H       
  40 H40            5.7317    -0.5451    -0.0563 H       
  41 H41            4.8132     5.2111    -0.0182 H       
  42 H42            8.1273     3.6284    -0.0578 H       
  43 H43            7.3151     4.5613    -2.1884 H       
  44 H44            6.4054     5.8170    -1.3123 H       
  45 H45            6.4263     5.8134     1.2327 H       
  46 H46            8.5835     6.7256     2.0067 H       
  47 H47            9.4545     5.4312     1.1495 H       
  48 H48            9.4345     5.4346    -1.2801 H       
  49 H49            8.5495     6.7314    -2.1192 H       
  50 H50            7.3941     4.8565     3.1965 H       
  51 H51            4.5813    -2.5336     0.3789 H       
  52 H52            2.8098    -2.5499     0.5518 H       
  53 H53            5.6201    -2.7141    -1.8437 H       
  54 H54            5.3529    -3.5248    -4.1507 H       
  55 H55            1.3671    -2.7590    -1.4269 H       
  56 H56            1.3771    -4.3128    -5.9388 H       
  57 H57           -1.2945    -4.5245    -6.2217 H       
  58 H58           -3.1078    -4.7343    -3.4580 H       
  59 H59           -2.9925    -2.9869    -3.1394 H       
  60 H60           -3.3464    -3.5703    -4.7833 H       
@<TRIPOS>BOND
   1    1    2 ar
   2    1    6 ar
   3    1   36 1
   4    2    3 ar
   5    2   37 1
   6    3    4 ar
   7    3   38 1
   8    4    5 ar
   9    4    7 ar
  10    5    6 ar
  11    5   10 ar
  12    6   39 1
  13    7    8 ar
  14    7   23 1
  15    8    9 ar
  16    8   40 1
  17    9   10 ar
  18    9   11 1
  19   10   14 1
  20   11   12 am
  21   11   22 2
  22   12   13 1
  23   12   15 1
  24   13   14 2
  25   13   41 1
  26   15   16 1
  27   15   17 1
  28   15   42 1
  29   16   20 1
  30   16   43 1
  31   16   44 1
  32   17   18 1
  33   17   21 1
  34   17   45 1
  35   18   19 1
  36   18   46 1
  37   18   47 1
  38   19   20 1
  39   20   48 1
  40   20   49 1
  41   21   50 1
  42   23   24 1
  43   23   51 1
  44   23   52 1
  45   24   25 ar
  46   24   29 ar
  47   25   26 ar
  48   25   53 1
  49   26   27 ar
  50   26   54 1
  51   27   28 ar
  52   28   29 ar
  53   28   30 1
  54   29   55 1
  55   30   31 2
  56   30   34 1
  57   31   32 1
  58   31   56 1
  59   32   33 2
  60   32   57 1
  61   33   34 1
  62   33   35 1
  63   35   58 1
  64   35   59 1
  65   35   60 1

#	End of record

