#	Name: ASD01916020
#	Creating user name:	WinNT
#	Creation time:	15. 06. 2019 20:06

#	Modifying user name:	WinNT
#	Modification time:	15. 06. 2019 20:06

#	Program:	/corina/corina34_cracker 3.40 0067  02.08.2006

@<TRIPOS>MOLECULE
ASD01916020
  47   49    0    0    0
SMALL
NO_CHARGES


@<TRIPOS>ATOM
   1 C1            -0.0282     1.4084    -0.1671 C.ar    
   2 C2            -0.0015     0.0146    -0.0170 C.ar    
   3 C3            -1.2043    -0.6613     0.0482 C.ar    
   4 C4            -2.3964     0.0593    -0.0368 C.ar    
   5 C5            -3.6886    -0.6573     0.0328 C.2     
   6 N6            -4.8384     0.0362     0.1487 N.am    
   7 O7            -3.7134    -1.8716    -0.0147 O.2     
   8 C8             1.1918     2.1547    -0.2403 C.1     
   9 C9             2.1920     2.7664    -0.3003 C.1     
  10 C10            3.4120     3.5127    -0.3734 C.ar    
  11 C11            3.3776     4.9019    -0.5231 C.ar    
  12 C12            5.8138     3.5814    -0.3611 C.ar    
  13 C13            4.5567     5.6138    -0.5928 C.ar    
  14 N14           -2.3866     1.3804    -0.1788 N.ar    
  15 C15           -1.2662     2.0600    -0.2504 C.ar    
  16 C16            4.6430     2.8560    -0.2898 C.ar    
  17 C17            5.7718     4.9560    -0.5155 C.ar    
  18 C18           -4.8175     1.4874     0.3770 C.3     
  19 C19           -5.6645     1.8043     1.6135 C.3     
  20 C20           -7.0659     1.2168     1.4312 C.3     
  21 C21           -6.9688    -0.3039     1.2890 C.3     
  22 C22           -6.1366    -0.6437     0.0432 C.3     
  23 O23           -7.8686     1.5383     2.5689 O.3     
  24 C24           -6.2971    -0.8912     2.5319 C.3     
  25 C25           -8.3727    -0.8935     1.1396 C.3     
  26 H26            0.9363    -0.5174     0.0457 H       
  27 H27           -1.2220    -1.7350     0.1632 H       
  28 H28            2.4301     5.4165    -0.5843 H       
  29 H29            6.7657     3.0749    -0.3012 H       
  30 H30            4.5318     6.6873    -0.7085 H       
  31 H31           -1.2985     3.1334    -0.3655 H       
  32 H32            4.6773     1.7833    -0.1693 H       
  33 H33            6.6919     5.5188    -0.5707 H       
  34 H34           -3.7917     1.8165     0.5427 H       
  35 H35           -5.2321     1.9999    -0.4910 H       
  36 H36           -5.1983     1.3660     2.4960 H       
  37 H37           -5.7364     2.8848     1.7382 H       
  38 H38           -7.5220     1.6370     0.5348 H       
  39 H39           -6.6610    -0.3048    -0.8502 H       
  40 H40           -5.9802    -1.7212    -0.0090 H       
  41 H41           -7.9745     2.4875     2.7200 H       
  42 H42           -6.8881    -0.6460     3.4143 H       
  43 H43           -6.2282    -1.9742     2.4301 H       
  44 H44           -5.2965    -0.4717     2.6366 H       
  45 H45           -8.8499    -0.4756     0.2532 H       
  46 H46           -8.3031    -1.9765     1.0383 H       
  47 H47           -8.9654    -0.6483     2.0210 H       
@<TRIPOS>BOND
   1    1    2 ar
   2    1    8 1
   3    1   15 ar
   4    2    3 ar
   5    2   26 1
   6    3    4 ar
   7    3   27 1
   8    4   14 ar
   9    4    5 1
  10    5    6 am
  11    5    7 2
  12    6   18 1
  13    6   22 1
  14    8    9 3
  15    9   10 1
  16   10   11 ar
  17   10   16 ar
  18   11   13 ar
  19   11   28 1
  20   12   17 ar
  21   12   16 ar
  22   12   29 1
  23   13   17 ar
  24   13   30 1
  25   14   15 ar
  26   15   31 1
  27   16   32 1
  28   17   33 1
  29   18   19 1
  30   18   34 1
  31   18   35 1
  32   19   20 1
  33   19   36 1
  34   19   37 1
  35   20   21 1
  36   20   23 1
  37   20   38 1
  38   21   22 1
  39   21   24 1
  40   21   25 1
  41   22   39 1
  42   22   40 1
  43   23   41 1
  44   24   42 1
  45   24   43 1
  46   24   44 1
  47   25   45 1
  48   25   46 1
  49   25   47 1

#	End of record

