#	Name: ASD01810358
#	Creating user name:	WinNT
#	Creation time:	15. 06. 2019 19:24

#	Modifying user name:	WinNT
#	Modification time:	15. 06. 2019 19:24

#	Program:	/corina/corina34_cracker 3.40 0067  02.08.2006

@<TRIPOS>MOLECULE
ASD01810358
  28   29    0    0    0
SMALL
NO_CHARGES


@<TRIPOS>ATOM
   1 C1            -0.0176     1.4478     0.0100 C.3     
   2 O2             0.0021    -0.0041     0.0020 O.3     
   3 C3             0.6008    -0.6022    -1.0471 C.2     
   4 O4             1.0930     0.0714    -1.9310 O.2     
   5 C5             0.6587    -2.0709    -1.1222 C.ar    
   6 C6             0.0874    -2.8474    -0.0963 C.ar    
   7 C7             0.1283    -4.2018    -0.1428 C.ar    
   8 C8             0.7469    -4.8559    -1.2260 C.ar    
   9 C9             1.3275    -4.0931    -2.2690 C.ar    
  10 C10            1.2737    -2.6855    -2.2115 C.ar    
  11 O11            1.8225    -1.9386    -3.1990 O.3     
  12 C12            0.9779    -1.5975    -4.3001 C.3     
  13 C13            1.9430    -4.7520    -3.3455 C.ar    
  14 C14            1.9744    -6.1133    -3.3740 C.ar    
  15 C15            1.4034    -6.8639    -2.3491 C.ar    
  16 C16            0.7987    -6.2579    -1.2898 C.ar    
  17 H17            1.0050     1.8251     0.0023 H       
  18 H18           -0.5448     1.8089    -0.8731 H       
  19 H19           -0.5278     1.7993     0.9068 H       
  20 H20           -0.3898    -2.3574     0.7395 H       
  21 H21           -0.3148    -4.7812     0.6538 H       
  22 H22            0.6254    -2.5086    -4.7835 H       
  23 H23            0.1242    -1.0240    -3.9391 H       
  24 H24            1.5400    -0.9997    -5.0175 H       
  25 H25            2.3890    -4.1821    -4.1472 H       
  26 H26            2.4484    -6.6178    -4.2030 H       
  27 H27            1.4409    -7.9422    -2.3948 H       
  28 H28            0.3608    -6.8531    -0.5021 H       
@<TRIPOS>BOND
   1    1    2 1
   2    1   17 1
   3    1   18 1
   4    1   19 1
   5    2    3 1
   6    3    4 2
   7    3    5 1
   8    5    6 ar
   9    5   10 ar
  10    6    7 ar
  11    6   20 1
  12    7    8 ar
  13    7   21 1
  14    8    9 ar
  15    8   16 ar
  16    9   10 ar
  17    9   13 ar
  18   10   11 1
  19   11   12 1
  20   12   22 1
  21   12   23 1
  22   12   24 1
  23   13   14 ar
  24   13   25 1
  25   14   15 ar
  26   14   26 1
  27   15   16 ar
  28   15   27 1
  29   16   28 1

#	End of record

