#	Name: ASD03081349
#	Creating user name:	WinNT
#	Creation time:	15. 06. 2019 20:27

#	Modifying user name:	WinNT
#	Modification time:	15. 06. 2019 20:27

#	Program:	/corina/corina34_cracker 3.40 0067  02.08.2006

@<TRIPOS>MOLECULE
ASD03081349
  42   45    0    0    0
SMALL
NO_CHARGES


@<TRIPOS>ATOM
   1 O1            -0.0162     1.3444     0.0094 O.3     
   2 C2             0.0021    -0.0041     0.0020 C.2     
   3 N3             1.2606    -0.3805    -0.0120 N.2     
   4 N4             2.0177     0.6598    -0.0137 N.2     
   5 C5             1.2725     1.7416    -0.0007 C.2     
   6 C6             0.8547     4.2023     0.0156 C.ar    
   7 C7             1.7573     3.1373     0.0017 C.ar    
   8 C8             3.1296     3.4143    -0.0094 C.ar    
   9 C9             3.5313     4.7386    -0.0061 C.ar    
  10 C10            2.5739     5.7366     0.0079 C.ar    
  11 N11            1.2869     5.4461     0.0177 N.ar    
  12 C12           -1.1769    -0.8945     0.0085 C.ar    
  13 C13           -1.0088    -2.2807    -0.0006 C.ar    
  14 C14           -2.1137    -3.1062     0.0060 C.ar    
  15 C15           -3.3867    -2.5636     0.0211 C.ar    
  16 C16           -3.5603    -1.1911     0.0297 C.ar    
  17 C17           -2.4637    -0.3539     0.0295 C.ar    
  18 C18            0.3767    -2.8734    -0.0180 C.3     
  19 C19            0.9098    -2.9659     1.4131 C.3     
  20 C20            2.2953    -3.5586     1.3957 C.ar    
  21 C21            3.3987    -2.7334     1.2843 C.ar    
  22 C22            4.6695    -3.2771     1.2683 C.ar    
  23 C23            4.8370    -4.6459     1.3641 C.ar    
  24 C24            3.7336    -5.4710     1.4764 C.ar    
  25 C25            2.4629    -4.9270     1.4968 C.ar    
  26 H26           -0.2070     4.0044     0.0197 H       
  27 H27            3.8559     2.6151    -0.0199 H       
  28 H28            4.5816     4.9901    -0.0140 H       
  29 H29            2.8849     6.7709     0.0105 H       
  30 H30           -1.9852    -4.1785    -0.0009 H       
  31 H31           -4.2485    -3.2145     0.0259 H       
  32 H32           -4.5565    -0.7742     0.0408 H       
  33 H33           -2.6006     0.7173     0.0411 H       
  34 H34            0.3399    -3.8703    -0.4572 H       
  35 H35            1.0357    -2.2392    -0.6109 H       
  36 H36            0.9466    -1.9690     1.8523 H       
  37 H37            0.2508    -3.6001     2.0061 H       
  38 H38            3.2679    -1.6640     1.2095 H       
  39 H39            5.5316    -2.6324     1.1805 H       
  40 H40            5.8298    -5.0707     1.3508 H       
  41 H41            3.8644    -6.5405     1.5509 H       
  42 H42            1.6011    -5.5714     1.5882 H       
@<TRIPOS>BOND
   1    1    2 1
   2    1    5 1
   3    2    3 2
   4    2   12 1
   5    3    4 1
   6    4    5 2
   7    5    7 1
   8    6    7 ar
   9    6   11 ar
  10    6   26 1
  11    7    8 ar
  12    8    9 ar
  13    8   27 1
  14    9   10 ar
  15    9   28 1
  16   10   11 ar
  17   10   29 1
  18   12   13 ar
  19   12   17 ar
  20   13   14 ar
  21   13   18 1
  22   14   15 ar
  23   14   30 1
  24   15   16 ar
  25   15   31 1
  26   16   17 ar
  27   16   32 1
  28   17   33 1
  29   18   19 1
  30   18   34 1
  31   18   35 1
  32   19   20 1
  33   19   36 1
  34   19   37 1
  35   20   21 ar
  36   20   25 ar
  37   21   22 ar
  38   21   38 1
  39   22   23 ar
  40   22   39 1
  41   23   24 ar
  42   23   40 1
  43   24   25 ar
  44   24   41 1
  45   25   42 1

#	End of record

