#	Name: ASD01908084
#	Creating user name:	WinNT
#	Creation time:	15. 06. 2019 19:54

#	Modifying user name:	WinNT
#	Modification time:	15. 06. 2019 19:54

#	Program:	/corina/corina34_cracker 3.40 0067  02.08.2006

@<TRIPOS>MOLECULE
ASD01908084
  29   31    0    0    0
SMALL
NO_CHARGES


@<TRIPOS>ATOM
   1 S1            -0.0243     1.7576    -0.0309 S.3     
   2 C2             0.0013    -0.0032    -0.0101 C.2     
   3 N3             1.2320    -0.4152    -0.0147 N.2     
   4 C4             2.1768     0.5142    -0.0331 C.2     
   5 C5             1.7376     1.7833    -0.0448 C.2     
   6 N6            -1.1185    -0.8216     0.0087 N.pl3   
   7 N7             5.8058     0.3513    -0.0592 N.pl3   
   8 N8             5.4760    -1.0094    -0.0402 N.2     
   9 C9             4.1738    -1.1207    -0.0286 C.2     
  10 C10            3.6232     0.1752    -0.0398 C.2     
  11 C11            4.6585     1.0626    -0.0587 C.2     
  12 C12            3.3966    -2.4116    -0.0069 C.3     
  13 F13            4.2827    -3.4874     0.1146 F       
  14 F14            2.5161    -2.4077     1.0803 F       
  15 F15            2.6695    -2.5383    -1.1953 F       
  16 C16           -2.3869    -0.2623     0.1288 C.ar    
  17 C17           -3.5112    -1.0759     0.0303 C.ar    
  18 C18           -4.7660    -0.5068     0.1515 C.ar    
  19 C19           -4.8547     0.8621     0.3682 C.ar    
  20 C20           -3.6972     1.6093     0.4555 C.ar    
  21 N21           -2.5130     1.0385     0.3413 N.ar    
  22 H22            2.3576     2.6675    -0.0602 H       
  23 H23           -1.0174    -1.7837    -0.0618 H       
  24 H24            6.7033     0.7191    -0.0672 H       
  25 H25            4.5756     2.1394    -0.0703 H       
  26 H26           -3.4056    -2.1373    -0.1390 H       
  27 H27           -5.6567    -1.1132     0.0791 H       
  28 H28           -5.8195     1.3374     0.4670 H       
  29 H29           -3.7616     2.6741     0.6239 H       
@<TRIPOS>BOND
   1    1    2 1
   2    1    5 1
   3    2    3 2
   4    2    6 1
   5    3    4 1
   6    4    5 2
   7    4   10 1
   8    5   22 1
   9    6   16 1
  10    6   23 1
  11    7    8 1
  12    7   11 1
  13    7   24 1
  14    8    9 2
  15    9   10 1
  16    9   12 1
  17   10   11 2
  18   11   25 1
  19   12   13 1
  20   12   14 1
  21   12   15 1
  22   16   17 ar
  23   16   21 ar
  24   17   18 ar
  25   17   26 1
  26   18   19 ar
  27   18   27 1
  28   19   20 ar
  29   19   28 1
  30   20   21 ar
  31   20   29 1

#	End of record

