#	Name: ASD07930658
#	Creating user name:	WinNT
#	Creation time:	15. 06. 2019 21:12

#	Modifying user name:	WinNT
#	Modification time:	15. 06. 2019 21:12

#	Program:	/corina/corina34_cracker 3.40 0067  02.08.2006

@<TRIPOS>MOLECULE
ASD07930658
  48   50    0    0    0
SMALL
NO_CHARGES


@<TRIPOS>ATOM
   1 C1            -0.1436     1.4649     0.3082 C.3     
   2 N2             0.5900    -0.2181    -2.0456 N.2     
   3 N3            -0.9974    -1.6994    -1.1810 N.pl3   
   4 C4            -0.9255    -2.8147    -0.2313 C.3     
   5 C5            -1.1667    -2.2859     1.1894 C.3     
   6 S6             0.0528    -0.9768     1.5262 S.o2    
   7 N7            -0.0848     0.0061     0.1878 N.am    
   8 C8            -0.1414    -0.6255    -1.0465 C.2     
   9 C9             0.4587    -3.4621    -0.3073 C.3     
  10 C10           -1.9793    -3.8361    -0.5738 C.ar    
  11 C11           -2.8117    -3.6317    -1.6567 C.ar    
  12 C12           -3.7833    -4.5728    -1.9729 C.ar    
  13 C13           -3.9157    -5.7178    -1.1991 C.ar    
  14 C14           -3.0799    -5.9185    -0.1153 C.ar    
  15 C15           -2.1080    -4.9800     0.1937 C.ar    
  16 O16           -0.3681    -0.1629     2.6123 O.2     
  17 O17            1.3760    -1.4905     1.4581 O.2     
  18 N18           -4.6273    -4.3668    -3.0692 N.am    
  19 C19           -5.0475    -5.4165    -3.8028 C.2     
  20 O20           -4.6188    -6.5302    -3.5713 O.2     
  21 C21           -6.0299    -5.2134    -4.8891 C.ar    
  22 N22           -6.5000    -3.9933    -5.1431 N.ar    
  23 Cl23          -1.0595    -5.2338     1.5538 Cl      
  24 C24           -7.3741    -3.8135    -6.1098 C.ar    
  25 C25           -7.8097    -4.9006    -6.8692 C.ar    
  26 N26           -7.3429    -6.1161    -6.6178 N.ar    
  27 C27           -6.4608    -6.2981    -5.6521 C.ar    
  28 O28           -8.7106    -4.7139    -7.8638 O.3     
  29 C29           -9.1125    -5.8704    -8.6007 C.3     
  30 F30           -3.2074    -7.0322     0.6389 F       
  31 H31            0.8659     1.8739     0.2674 H       
  32 H32           -0.7346     1.8736    -0.5115 H       
  33 H33           -0.6060     1.7327     1.2582 H       
  34 H34            1.1866     0.5384    -1.9331 H       
  35 H35           -1.6428    -1.7185    -1.9048 H       
  36 H36           -2.1744    -1.8772     1.2632 H       
  37 H37           -1.0445    -3.0958     1.9086 H       
  38 H38            1.2198    -2.7230    -0.0575 H       
  39 H39            0.5114    -4.2909     0.3987 H       
  40 H40            0.6309    -3.8338    -1.3174 H       
  41 H41           -2.7074    -2.7402    -2.2573 H       
  42 H42           -4.6706    -6.4507    -1.4427 H       
  43 H43           -4.9102    -3.4685    -3.3015 H       
  44 H44           -7.7551    -2.8241    -6.3156 H       
  45 H45           -6.0805    -7.2880    -5.4472 H       
  46 H46           -9.8343    -5.5818    -9.3647 H       
  47 H47           -8.2404    -6.3196    -9.0760 H       
  48 H48           -9.5692    -6.5922    -7.9235 H       
@<TRIPOS>BOND
   1    1    7 1
   2    1   31 1
   3    1   32 1
   4    1   33 1
   5    2    8 2
   6    2   34 1
   7    3    4 1
   8    3    8 1
   9    3   35 1
  10    4    5 1
  11    4    9 1
  12    4   10 1
  13    5    6 1
  14    5   36 1
  15    5   37 1
  16    6    7 am
  17    6   16 2
  18    6   17 2
  19    7    8 1
  20    9   38 1
  21    9   39 1
  22    9   40 1
  23   10   11 ar
  24   10   15 ar
  25   11   12 ar
  26   11   41 1
  27   12   13 ar
  28   12   18 1
  29   13   14 ar
  30   13   42 1
  31   14   15 ar
  32   14   30 1
  33   15   23 1
  34   18   19 am
  35   18   43 1
  36   19   20 2
  37   19   21 1
  38   21   22 ar
  39   21   27 ar
  40   22   24 ar
  41   24   25 ar
  42   24   44 1
  43   25   26 ar
  44   25   28 1
  45   26   27 ar
  46   27   45 1
  47   28   29 1
  48   29   46 1
  49   29   47 1
  50   29   48 1

#	End of record

