#	Name: ASD06660178
#	Creating user name:	WinNT
#	Creation time:	15. 06. 2019 21:08

#	Modifying user name:	WinNT
#	Modification time:	15. 06. 2019 21:08

#	Program:	/corina/corina34_cracker 3.40 0067  02.08.2006

@<TRIPOS>MOLECULE
ASD06660178
  67   70    0    0    0
SMALL
NO_CHARGES


@<TRIPOS>ATOM
   1 C1             0.2836     1.4789    -0.1709 C.2     
   2 C2             0.2860    -0.0278    -0.2032 C.3     
   3 C3            -0.7238    -0.5171    -1.2433 C.3     
   4 O4             1.2958     2.0900    -0.4193 O.2     
   5 O5            -0.8444     2.1420     0.1286 O.3     
   6 C6            -0.8111    -2.0207    -1.1901 C.ar    
   7 C7            -1.7276    -2.6293    -0.3523 C.ar    
   8 C8            -1.8102    -4.0069    -0.3011 C.ar    
   9 C9            -0.9713    -4.7813    -1.0925 C.ar    
  10 C10           -0.0519    -4.1667    -1.9330 C.ar    
  11 C11            0.0216    -2.7885    -1.9834 C.ar    
  12 N12           -1.0519    -6.1748    -1.0428 N.3     
  13 C13           -2.4537    -6.6196    -0.9323 C.3     
  14 C14           -1.9822    -7.6693     0.0839 C.3     
  15 C15           -0.8458    -6.6675     0.3318 C.3     
  16 C16           -2.9242    -7.8555     1.2750 C.3     
  17 N17           -2.4411    -8.9564     2.1122 N.pl3   
  18 C18           -3.1384    -9.3142     3.2602 C.ar    
  19 C19           -4.2944    -8.6227     3.6085 C.ar    
  20 C20           -4.9783    -8.9893     4.7533 C.ar    
  21 C21           -4.4814   -10.0392     5.5146 C.ar    
  22 C22           -3.3286   -10.6813     5.1100 C.ar    
  23 N23           -2.6995   -10.3135     4.0097 N.ar    
  24 C24            2.5629    -0.6543     0.3969 C.2     
  25 O25            2.2999    -0.3910     1.5512 O.2     
  26 N26            1.6241    -0.5065    -0.5588 N.am    
  27 C27            3.9394    -1.1468     0.0311 C.3     
  28 C28            4.8048    -1.2240     1.2905 C.3     
  29 C29            4.1661    -2.1907     2.2897 C.3     
  30 C30            4.0596    -3.5802     1.6582 C.3     
  31 C31            3.1942    -3.5030     0.3988 C.3     
  32 C32            3.8329    -2.5363    -0.6004 C.3     
  33 C33            4.5781    -0.1800    -0.9681 C.3     
  34 H34            0.0114    -0.4127     0.7789 H       
  35 H35           -1.7028    -0.0886    -1.0290 H       
  36 H36           -0.4010    -0.2069    -2.2371 H       
  37 H37           -0.7968     3.1078     0.1369 H       
  38 H38           -2.3792    -2.0266     0.2630 H       
  39 H39           -2.5259    -4.4816     0.3537 H       
  40 H40            0.6018    -4.7659    -2.5496 H       
  41 H41            0.7330    -2.3100    -2.6402 H       
  42 H42           -3.1155    -5.8670    -0.5037 H       
  43 H43           -2.8460    -7.0518    -1.8528 H       
  44 H44           -1.6589    -8.6094    -0.3631 H       
  45 H45            0.1247    -7.1404     0.4827 H       
  46 H46           -1.0785    -5.9277     1.0978 H       
  47 H47           -2.9529    -6.9378     1.8625 H       
  48 H48           -3.9261    -8.0868     0.9133 H       
  49 H49           -1.6347    -9.4355     1.8654 H       
  50 H50           -4.6527    -7.8105     2.9933 H       
  51 H51           -5.8783    -8.4706     5.0488 H       
  52 H52           -4.9916   -10.3497     6.4144 H       
  53 H53           -2.9387   -11.4982     5.6991 H       
  54 H54            1.8344    -0.7171    -1.4820 H       
  55 H55            5.8004    -1.5801     1.0260 H       
  56 H56            4.8807    -0.2340     1.7404 H       
  57 H57            4.7826    -2.2457     3.1869 H       
  58 H58            3.1705    -1.8345     2.5542 H       
  59 H59            5.0552    -3.9364     1.3936 H       
  60 H60            3.6045    -4.2689     2.3700 H       
  61 H61            3.1183    -4.4929    -0.0511 H       
  62 H62            2.1986    -3.1468     0.6633 H       
  63 H63            3.2164    -2.4813    -1.4976 H       
  64 H64            4.8285    -2.8925    -0.8650 H       
  65 H65            4.6540     0.8099    -0.5182 H       
  66 H66            5.5737    -0.5362    -1.2326 H       
  67 H67            3.9616    -0.1251    -1.8653 H       
@<TRIPOS>BOND
   1    1    2 1
   2    1    4 2
   3    1    5 1
   4    2    3 1
   5    2   26 1
   6    2   34 1
   7    3    6 1
   8    3   35 1
   9    3   36 1
  10    5   37 1
  11    6    7 ar
  12    6   11 ar
  13    7    8 ar
  14    7   38 1
  15    8    9 ar
  16    8   39 1
  17    9   10 ar
  18    9   12 1
  19   10   11 ar
  20   10   40 1
  21   11   41 1
  22   12   13 1
  23   12   15 1
  24   13   14 1
  25   13   42 1
  26   13   43 1
  27   14   15 1
  28   14   16 1
  29   14   44 1
  30   15   45 1
  31   15   46 1
  32   16   17 1
  33   16   47 1
  34   16   48 1
  35   17   18 1
  36   17   49 1
  37   18   19 ar
  38   18   23 ar
  39   19   20 ar
  40   19   50 1
  41   20   21 ar
  42   20   51 1
  43   21   22 ar
  44   21   52 1
  45   22   23 ar
  46   22   53 1
  47   24   25 2
  48   24   26 am
  49   24   27 1
  50   26   54 1
  51   27   28 1
  52   27   32 1
  53   27   33 1
  54   28   29 1
  55   28   55 1
  56   28   56 1
  57   29   30 1
  58   29   57 1
  59   29   58 1
  60   30   31 1
  61   30   59 1
  62   30   60 1
  63   31   32 1
  64   31   61 1
  65   31   62 1
  66   32   63 1
  67   32   64 1
  68   33   65 1
  69   33   66 1
  70   33   67 1

#	End of record

