#	Name: ASD02508275
#	Creating user name:	WinNT
#	Creation time:	15. 06. 2019 20:24

#	Modifying user name:	WinNT
#	Modification time:	15. 06. 2019 20:24

#	Program:	/corina/corina34_cracker 3.40 0067  02.08.2006

@<TRIPOS>MOLECULE
ASD02508275
  42   44    0    0    0
SMALL
NO_CHARGES


@<TRIPOS>ATOM
   1 C1             0.0437     1.1039    -0.2552 C.ar    
   2 C2            -1.0395     1.5597    -1.0062 C.ar    
   3 C3            -2.2621     0.9117    -0.9244 C.ar    
   4 C4            -2.4039    -0.1857    -0.0976 C.ar    
   5 C5            -1.3296    -0.6385     0.6484 C.ar    
   6 C6            -0.1069    -0.0012     0.5678 C.ar    
   7 S7            -3.9571    -1.0111     0.0080 S.o2    
   8 N8            -4.5006    -0.8357     1.5624 N.am    
   9 C9            -4.8607     0.4272     2.0381 C.ar    
  10 O10            1.0939     1.9159    -0.5297 O.3     
  11 C11            0.7098     2.8502    -1.4136 C.2     
  12 N12           -0.5876     2.6642    -1.7279 N.am    
  13 O13           -4.8560    -0.2817    -0.8161 O.2     
  14 O14           -3.6888    -2.3952    -0.1695 O.2     
  15 O15            1.4219     3.7282    -1.8615 O.2     
  16 C16           -1.3786     3.4745    -2.6574 C.3     
  17 C17           -6.0416     0.5920     2.7511 C.ar    
  18 C18           -1.4933    -1.8360     1.5486 C.3     
  19 C19           -4.0362     1.5201     1.8041 C.ar    
  20 C20           -4.3952     2.7677     2.2759 C.ar    
  21 C21           -5.5738     2.9291     2.9806 C.ar    
  22 C22           -6.3946     1.8419     3.2199 C.ar    
  23 C23           -7.6782     2.0227     3.9885 C.3     
  24 C24           -5.9618     4.2916     3.4946 C.3     
  25 H25           -3.1016     1.2641    -1.5052 H       
  26 H26            0.7286    -0.3584     1.1516 H       
  27 H27           -4.5690    -1.6101     2.1426 H       
  28 H28           -0.7551     4.2684    -3.0686 H       
  29 H29           -1.7453     2.8441    -3.4675 H       
  30 H30           -2.2239     3.9138    -2.1277 H       
  31 H31           -6.6830    -0.2565     2.9383 H       
  32 H32           -1.3523    -2.7483     0.9690 H       
  33 H33           -0.7522    -1.7944     2.3468 H       
  34 H34           -2.4938    -1.8313     1.9812 H       
  35 H35           -3.1151     1.3946     1.2543 H       
  36 H36           -3.7545     3.6179     2.0943 H       
  37 H37           -8.4878     2.2505     3.2952 H       
  38 H38           -7.9102     1.1051     4.5292 H       
  39 H39           -7.5649     2.8431     4.6971 H       
  40 H40           -6.5545     4.8092     2.7404 H       
  41 H41           -6.5491     4.1822     4.4063 H       
  42 H42           -5.0623     4.8688     3.7089 H       
@<TRIPOS>BOND
   1    1    2 ar
   2    1   10 1
   3    1    6 ar
   4    2    3 ar
   5    2   12 1
   6    3    4 ar
   7    3   25 1
   8    4    5 ar
   9    4    7 1
  10    5    6 ar
  11    5   18 1
  12    6   26 1
  13    7    8 am
  14    7   13 2
  15    7   14 2
  16    8    9 1
  17    8   27 1
  18    9   17 ar
  19    9   19 ar
  20   10   11 1
  21   11   12 am
  22   11   15 2
  23   12   16 1
  24   16   28 1
  25   16   29 1
  26   16   30 1
  27   17   22 ar
  28   17   31 1
  29   18   32 1
  30   18   33 1
  31   18   34 1
  32   19   20 ar
  33   19   35 1
  34   20   21 ar
  35   20   36 1
  36   21   22 ar
  37   21   24 1
  38   22   23 1
  39   23   37 1
  40   23   38 1
  41   23   39 1
  42   24   40 1
  43   24   41 1
  44   24   42 1

#	End of record

