#	Name: ASD09720059
#	Creating user name:	WinNT
#	Creation time:	15. 06. 2019 21:22

#	Modifying user name:	WinNT
#	Modification time:	15. 06. 2019 21:22

#	Program:	/corina/corina34_cracker 3.40 0067  02.08.2006

@<TRIPOS>MOLECULE
ASD09720059
  33   34    0    0    0
SMALL
NO_CHARGES


@<TRIPOS>ATOM
   1 C1             0.0052     1.5026    -0.1898 C.2     
   2 C2             0.0560     0.0645    -0.4925 C.2     
   3 N3             1.1850    -0.4942    -0.7952 N.2     
   4 C4            -1.2051    -0.7594    -0.4506 C.3     
   5 O5             2.3700     0.2799    -0.8346 O.3     
   6 S6            -0.8399    -2.4521    -0.9909 S.3     
   7 C7            -2.4062    -3.2510    -0.8775 C.ar    
   8 C8            -2.5301    -4.5927    -1.2181 C.ar    
   9 C9            -3.7592    -5.2155    -1.1281 C.ar    
  10 C10           -4.8663    -4.5056    -0.6999 C.ar    
  11 C11           -4.7468    -3.1702    -0.3605 C.ar    
  12 C12           -3.5196    -2.5426    -0.4418 C.ar    
  13 C13            1.0856     2.3488    -0.0437 C.2     
  14 C14            0.5912     3.6210     0.2370 C.2     
  15 N15           -0.7166     3.5679     0.2636 N.2     
  16 N16           -1.1203     2.2543    -0.0060 N.pl3   
  17 C17            1.4246     4.8545     0.4721 C.3     
  18 C18           -2.5018     1.7709    -0.0694 C.3     
  19 H19           -1.5928    -0.7788     0.5680 H       
  20 H20           -1.9492    -0.3187    -1.1142 H       
  21 H21            3.1612    -0.2239    -1.0697 H       
  22 H22           -1.6662    -5.1474    -1.5532 H       
  23 H23           -3.8562    -6.2581    -1.3926 H       
  24 H24           -5.8264    -4.9953    -0.6308 H       
  25 H25           -5.6136    -2.6190    -0.0269 H       
  26 H26           -3.4271    -1.4997    -0.1766 H       
  27 H27            2.1265     2.0744    -0.1307 H       
  28 H28            1.5971     5.3627    -0.4766 H       
  29 H29            0.8986     5.5241     1.1526 H       
  30 H30            2.3808     4.5688     0.9104 H       
  31 H31           -2.8358     1.7604    -1.1069 H       
  32 H32           -2.5526     0.7615     0.3389 H       
  33 H33           -3.1448     2.4311     0.5127 H       
@<TRIPOS>BOND
   1    1    2 1
   2    1   13 2
   3    1   16 1
   4    2    3 2
   5    2    4 1
   6    3    5 1
   7    4    6 1
   8    4   19 1
   9    4   20 1
  10    5   21 1
  11    6    7 1
  12    7    8 ar
  13    7   12 ar
  14    8    9 ar
  15    8   22 1
  16    9   10 ar
  17    9   23 1
  18   10   11 ar
  19   10   24 1
  20   11   12 ar
  21   11   25 1
  22   12   26 1
  23   13   14 1
  24   13   27 1
  25   14   15 2
  26   14   17 1
  27   15   16 1
  28   16   18 1
  29   17   28 1
  30   17   29 1
  31   17   30 1
  32   18   31 1
  33   18   32 1
  34   18   33 1

#	End of record

