#	Name: ASD04590640
#	Creating user name:	WinNT
#	Creation time:	15. 06. 2019 20:51

#	Modifying user name:	WinNT
#	Modification time:	15. 06. 2019 20:51

#	Program:	/corina/corina34_cracker 3.40 0067  02.08.2006

@<TRIPOS>MOLECULE
ASD04590640
  72   77    0    0    0
SMALL
NO_CHARGES


@<TRIPOS>ATOM
   1 N1            -2.3782    -2.7058     0.0212 N.ar    
   2 C2            -1.2117    -2.0738     0.0044 C.ar    
   3 N3            -0.0574    -2.7202    -0.0182 N.ar    
   4 C4            -0.0260    -4.0495    -0.0251 C.ar    
   5 C5            -1.2487    -4.7505    -0.0077 C.ar    
   6 C6            -2.4371    -4.0274     0.0159 C.ar    
   7 N7             0.9976    -4.9639    -0.0460 N.pl3   
   8 C8             0.4940    -6.2537    -0.0431 C.ar    
   9 C9            -0.9094    -6.1792    -0.0194 C.ar    
  10 C10            1.0908    -7.5094    -0.0580 C.ar    
  11 N11            0.3533    -8.6020    -0.0499 N.ar    
  12 C12           -0.9677    -8.5652    -0.0277 C.ar    
  13 C13           -1.6446    -7.3648    -0.0125 C.ar    
  14 N14           -1.2019    -0.6887     0.0103 N.pl3   
  15 C15           -2.4014     0.0175    -0.0793 C.ar    
  16 C16            2.4223    -4.6232    -0.0691 C.3     
  17 C17            2.7325    -3.7309    -1.2887 C.3     
  18 C18            2.7883    -3.8028     1.1802 C.3     
  19 C19            3.3082    -2.4407     0.6762 C.3     
  20 C20            2.6737    -2.2881    -0.7285 C.3     
  21 N21           -3.5342    -0.6390    -0.2707 N.ar    
  22 C22           -4.6920    -0.0124    -0.3612 C.ar    
  23 C23           -4.7607     1.3687    -0.2580 C.ar    
  24 C24           -3.5876     2.0944    -0.0561 C.ar    
  25 C25           -2.3937     1.4030     0.0394 C.ar    
  26 N26           -5.9927     2.0263    -0.3560 N.3     
  27 C27           -5.9637     3.0436    -1.4153 C.3     
  28 C28           -7.2599     3.8598    -1.3707 C.3     
  29 C29           -7.0857     1.0678    -0.5674 C.3     
  30 C30           -8.4278     1.8030    -0.4881 C.3     
  31 N31           -8.3990     2.9312    -1.4312 N.am    
  32 Cl32           2.8217    -7.6394    -0.0879 Cl      
  33 O33           -9.3459     4.1488    -3.1818 O.3     
  34 C34          -10.4475     4.2790    -4.1187 C.3     
  35 C35          -11.7582     4.4385    -3.3457 C.3     
  36 C36          -10.2234     5.5082    -5.0017 C.3     
  37 C37          -10.5217     3.0276    -4.9958 C.3     
  38 C38           -9.3903     3.1098    -2.3267 C.2     
  39 O39          -10.3240     2.3331    -2.3623 O.2     
  40 H40           -3.3899    -4.5355     0.0300 H       
  41 H41           -1.5254    -9.4901    -0.0220 H       
  42 H42           -2.7242    -7.3423     0.0053 H       
  43 H43           -0.3610    -0.2099     0.0767 H       
  44 H44            3.0227    -5.5320    -0.1081 H       
  45 H45            3.7271    -3.9489    -1.6777 H       
  46 H46            1.9795    -3.8699    -2.0645 H       
  47 H47            1.9060    -3.6582     1.8037 H       
  48 H48            3.5670    -4.3132     1.7470 H       
  49 H49            2.9754    -1.6381     1.3344 H       
  50 H50            4.3958    -2.4502     0.6045 H       
  51 H51            3.2618    -1.6095    -1.3464 H       
  52 H52            1.6418    -1.9455    -0.6511 H       
  53 H53           -5.5963    -0.5817    -0.5177 H       
  54 H54           -3.6111     3.1709     0.0277 H       
  55 H55           -1.4659     1.9332     0.1958 H       
  56 H56           -5.1116     3.7055    -1.2607 H       
  57 H57           -5.8744     2.5556    -2.3859 H       
  58 H58           -7.3016     4.4304    -0.4430 H       
  59 H59           -7.2950     4.5382    -2.2231 H       
  60 H60           -6.9807     0.6073    -1.5498 H       
  61 H61           -7.0472     0.2968     0.2021 H       
  62 H62           -9.2350     1.1216    -0.7570 H       
  63 H63           -8.5817     2.1759     0.5245 H       
  64 H64          -11.7054     5.3300    -2.7208 H       
  65 H65          -12.5852     4.5362    -4.0490 H       
  66 H66          -11.9179     3.5628    -2.7166 H       
  67 H67           -9.2897     5.3947    -5.5524 H       
  68 H68          -11.0504     5.6060    -5.7050 H       
  69 H69          -10.1706     6.3998    -4.3768 H       
  70 H70          -10.6813     2.1519    -4.3667 H       
  71 H71          -11.3487     3.1254    -5.6991 H       
  72 H72           -9.5879     2.9141    -5.5465 H       
@<TRIPOS>BOND
   1    1    2 ar
   2    1    6 ar
   3    2    3 ar
   4    2   14 1
   5    3    4 ar
   6    4    5 ar
   7    4    7 1
   8    5    6 ar
   9    5    9 1
  10    6   40 1
  11    7    8 1
  12    7   16 1
  13    8    9 ar
  14    8   10 ar
  15    9   13 ar
  16   10   11 ar
  17   10   32 1
  18   11   12 ar
  19   12   13 ar
  20   12   41 1
  21   13   42 1
  22   14   15 1
  23   14   43 1
  24   15   21 ar
  25   15   25 ar
  26   16   18 1
  27   16   17 1
  28   16   44 1
  29   17   20 1
  30   17   45 1
  31   17   46 1
  32   18   19 1
  33   18   47 1
  34   18   48 1
  35   19   20 1
  36   19   49 1
  37   19   50 1
  38   20   51 1
  39   20   52 1
  40   21   22 ar
  41   22   23 ar
  42   22   53 1
  43   23   24 ar
  44   23   26 1
  45   24   25 ar
  46   24   54 1
  47   25   55 1
  48   26   29 1
  49   26   27 1
  50   27   28 1
  51   27   56 1
  52   27   57 1
  53   28   31 1
  54   28   58 1
  55   28   59 1
  56   29   30 1
  57   29   60 1
  58   29   61 1
  59   30   31 1
  60   30   62 1
  61   30   63 1
  62   31   38 am
  63   33   34 1
  64   33   38 1
  65   34   35 1
  66   34   36 1
  67   34   37 1
  68   35   64 1
  69   35   65 1
  70   35   66 1
  71   36   67 1
  72   36   68 1
  73   36   69 1
  74   37   70 1
  75   37   71 1
  76   37   72 1
  77   38   39 2

#	End of record

