#	Name: ASD02508232
#	Creating user name:	WinNT
#	Creation time:	15. 06. 2019 20:24

#	Modifying user name:	WinNT
#	Modification time:	15. 06. 2019 20:24

#	Program:	/corina/corina34_cracker 3.40 0067  02.08.2006

@<TRIPOS>MOLECULE
ASD02508232
  33   35    0    0    0
SMALL
NO_CHARGES


@<TRIPOS>ATOM
   1 C1             0.2484     0.6124    -0.3444 C.ar    
   2 C2             0.0012    -0.7454    -0.5454 C.ar    
   3 C3            -1.2921    -1.2321    -0.4366 C.ar    
   4 C4            -2.3284    -0.3718    -0.1302 C.ar    
   5 C5            -2.0821     0.9756     0.0686 C.ar    
   6 C6            -0.7959     1.4688    -0.0323 C.ar    
   7 S7            -3.9717    -0.9926     0.0076 S.o2    
   8 N8            -4.2470    -1.2990     1.6115 N.am    
   9 C9            -3.4665    -2.2418     2.2872 C.ar    
  10 N10            1.6197     0.7978    -0.5177 N.am    
  11 C11            2.1572    -0.4034    -0.8090 C.2     
  12 O12            1.1896    -1.3335    -0.8269 O.3     
  13 O13           -4.8360     0.0769    -0.3508 O.2     
  14 O14           -3.9809    -2.2527    -0.6490 O.2     
  15 C15            2.3436     2.0663    -0.4039 C.3     
  16 O16            3.3360    -0.6120    -1.0226 O.2     
  17 C17           -2.9428    -1.9427     3.5382 C.ar    
  18 C18           -3.2186    -3.4805     1.7107 C.ar    
  19 C19           -2.4469    -4.4116     2.3792 C.ar    
  20 C20           -1.9210    -4.1113     3.6234 C.ar    
  21 C21           -2.1710    -2.8769     4.2044 C.ar    
  22 F22           -1.6563    -2.5853     5.4190 F       
  23 F23           -1.1672    -5.0236     4.2753 F       
  24 H24           -1.4893    -2.2825    -0.5916 H       
  25 H25           -2.8974     1.6425     0.3072 H       
  26 H26           -0.6055     2.5204     0.1236 H       
  27 H27           -4.9499    -0.8243     2.0822 H       
  28 H28            2.6735     2.2053     0.6256 H       
  29 H29            3.2107     2.0503    -1.0642 H       
  30 H30            1.6853     2.8871    -0.6885 H       
  31 H31           -3.1379    -0.9813     3.9901 H       
  32 H32           -3.6291    -3.7162     0.7400 H       
  33 H33           -2.2545    -5.3748     1.9304 H       
@<TRIPOS>BOND
   1    1    2 ar
   2    1   10 1
   3    1    6 ar
   4    2    3 ar
   5    2   12 1
   6    3    4 ar
   7    3   24 1
   8    4    5 ar
   9    4    7 1
  10    5    6 ar
  11    5   25 1
  12    6   26 1
  13    7    8 am
  14    7   13 2
  15    7   14 2
  16    8    9 1
  17    8   27 1
  18    9   17 ar
  19    9   18 ar
  20   10   11 am
  21   10   15 1
  22   11   12 1
  23   11   16 2
  24   15   28 1
  25   15   29 1
  26   15   30 1
  27   17   21 ar
  28   17   31 1
  29   18   19 ar
  30   18   32 1
  31   19   20 ar
  32   19   33 1
  33   20   21 ar
  34   20   23 1
  35   21   22 1

#	End of record

