#	Name: ASD03092271
#	Creating user name:	WinNT
#	Creation time:	15. 06. 2019 20:32

#	Modifying user name:	WinNT
#	Modification time:	15. 06. 2019 20:32

#	Program:	/corina/corina34_cracker 3.40 0067  02.08.2006

@<TRIPOS>MOLECULE
ASD03092271
  42   44    0    0    0
SMALL
NO_CHARGES


@<TRIPOS>ATOM
   1 F1             0.0021    -0.0041     0.0020 F       
   2 C2            -0.0169     1.3948     0.0097 C.3     
   3 F3             1.2956     1.8790    -0.0002 F       
   4 F4            -0.6935     1.8582    -1.1237 F       
   5 C5            -0.7330     1.8882     1.2685 C.3     
   6 O6            -0.0419     1.4148     2.4262 O.3     
   7 C7            -0.5502     1.7654     3.6323 C.ar    
   8 C8             0.0844     1.3378     4.7943 C.ar    
   9 C9            -0.4379     1.6980     6.0198 C.ar    
  10 C10           -1.5970     2.4872     6.0439 C.ar    
  11 C11           -2.1758     2.8766     4.8352 C.ar    
  12 N12           -1.6408     2.5146     3.6881 N.ar    
  13 C13           -2.1961     2.8993     7.3286 C.2     
  14 O14           -1.6846     2.5545     8.3763 O.2     
  15 N15           -3.3102     3.6577     7.3401 N.am    
  16 C16           -3.9047     4.0667     8.6150 C.3     
  17 C17           -5.1318     4.9012     8.3523 C.ar    
  18 C18           -5.0133     6.2779     8.2233 C.ar    
  19 C19           -6.1226     7.0594     7.9834 C.ar    
  20 C20           -7.3746     6.4647     7.8684 C.ar    
  21 N21           -8.6399     6.9561     7.6370 N.pl3   
  22 H22           -8.8590     7.8921     7.5068 H       
  23 C23           -9.5421     5.9276     7.6175 C.2     
  24 C24           -8.9116     4.7616     7.8301 C.2     
  25 C25           -7.4893     5.0685     7.9995 C.ar    
  26 C26           -6.3515     4.2955     8.2374 C.ar    
  27 C27          -11.0241     6.0810     7.3918 C.3     
  28 F28          -11.3300     7.4334     7.2058 F       
  29 F29          -11.4001     5.3573     6.2551 F       
  30 F30          -11.7182     5.5948     8.5049 F       
  31 H31           -0.7478     2.9781     1.2745 H       
  32 H32           -1.7556     1.5109     1.2763 H       
  33 H33            0.9756     0.7305     4.7378 H       
  34 H34            0.0341     1.3798     6.9376 H       
  35 H35           -3.0685     3.4843     4.8409 H       
  36 H36           -3.7183     3.9328     6.5042 H       
  37 H37           -4.1830     3.1814     9.1867 H       
  38 H38           -3.1813     4.6528     9.1818 H       
  39 H39           -4.0420     6.7416     8.3123 H       
  40 H40           -6.0202     8.1300     7.8853 H       
  41 H41           -9.3668     3.7830     7.8688 H       
  42 H42           -6.4354     3.2232     8.3345 H       
@<TRIPOS>BOND
   1    1    2 1
   2    2    3 1
   3    2    4 1
   4    2    5 1
   5    5    6 1
   6    5   31 1
   7    5   32 1
   8    6    7 1
   9    7   12 ar
  10    7    8 ar
  11    8    9 ar
  12    8   33 1
  13    9   10 ar
  14    9   34 1
  15   10   11 ar
  16   10   13 1
  17   11   12 ar
  18   11   35 1
  19   13   14 2
  20   13   15 am
  21   15   16 1
  22   15   36 1
  23   16   17 1
  24   16   37 1
  25   16   38 1
  26   17   26 ar
  27   17   18 ar
  28   18   19 ar
  29   18   39 1
  30   19   20 ar
  31   19   40 1
  32   20   25 ar
  33   20   21 1
  34   21   22 1
  35   21   23 1
  36   23   24 2
  37   23   27 1
  38   24   25 1
  39   24   41 1
  40   25   26 ar
  41   26   42 1
  42   27   28 1
  43   27   29 1
  44   27   30 1

#	End of record

