#	Name: ASD01916022
#	Creating user name:	WinNT
#	Creation time:	15. 06. 2019 20:06

#	Modifying user name:	WinNT
#	Modification time:	15. 06. 2019 20:06

#	Program:	/corina/corina34_cracker 3.40 0067  02.08.2006

@<TRIPOS>MOLECULE
ASD01916022
  47   49    0    0    0
SMALL
NO_CHARGES


@<TRIPOS>ATOM
   1 C1            -0.0283     1.4084    -0.1671 C.ar    
   2 C2            -0.0015     0.0146    -0.0170 C.ar    
   3 C3            -1.2042    -0.6613     0.0487 C.ar    
   4 C4            -2.3964     0.0593    -0.0357 C.ar    
   5 C5            -3.6885    -0.6573     0.0344 C.2     
   6 N6            -4.8383     0.0362     0.1509 N.am    
   7 O7            -3.7134    -1.8717    -0.0131 O.2     
   8 C8             1.1917     2.1547    -0.2403 C.1     
   9 C9             2.1919     2.7665    -0.3003 C.1     
  10 C10            3.4118     3.5128    -0.3734 C.ar    
  11 C11            3.3771     4.9015    -0.5230 C.ar    
  12 C12            5.8144     3.5800    -0.3603 C.ar    
  13 C13            4.5585     5.6146    -0.5923 C.ar    
  14 N14           -2.3867     1.3804    -0.1778 N.ar    
  15 C15           -1.2663     2.0600    -0.2503 C.ar    
  16 C16            4.6429     2.8558    -0.2897 C.ar    
  17 C17            5.7745     4.9546    -0.5138 C.ar    
  18 C18           -4.8173     1.4874     0.3792 C.3     
  19 C19           -5.6638     1.8043     1.6160 C.3     
  20 C20           -7.0652     1.2168     1.4343 C.3     
  21 C21           -6.9682    -0.3039     1.2920 C.3     
  22 C22           -6.1365    -0.6437     0.0459 C.3     
  23 O23           -7.8674     1.5383     2.5723 O.3     
  24 C24           -6.2960    -0.8912     2.5346 C.3     
  25 C25           -8.3722    -0.8935     1.1433 C.3     
  26 F26            4.5281     6.9574    -0.7374 F       
  27 H27            0.9364    -0.5174     0.0453 H       
  28 H28           -1.2219    -1.7350     0.1637 H       
  29 H29            2.4296     5.4161    -0.5846 H       
  30 H30            6.7657     3.0723    -0.2995 H       
  31 H31           -1.2987     3.1333    -0.3654 H       
  32 H32            4.6765     1.7831    -0.1696 H       
  33 H33            6.6954     5.5162    -0.5681 H       
  34 H34           -3.7914     1.8165     0.5444 H       
  35 H35           -5.2324     1.9999    -0.4887 H       
  36 H36           -5.1972     1.3660     2.4982 H       
  37 H37           -5.7356     2.8848     1.7407 H       
  38 H38           -7.5217     1.6370     0.5381 H       
  39 H39           -6.6614    -0.3048    -0.8473 H       
  40 H40           -5.9802    -1.7212    -0.0064 H       
  41 H41           -7.9733     2.4875     2.7235 H       
  42 H42           -6.8866    -0.6460     3.4174 H       
  43 H43           -6.2271    -1.9742     2.4329 H       
  44 H44           -5.2954    -0.4717     2.6390 H       
  45 H45           -8.8497    -0.4756     0.2571 H       
  46 H46           -8.3026    -1.9765     1.0420 H       
  47 H47           -8.9645    -0.6483     2.0249 H       
@<TRIPOS>BOND
   1    1    2 ar
   2    1    8 1
   3    1   15 ar
   4    2    3 ar
   5    2   27 1
   6    3    4 ar
   7    3   28 1
   8    4   14 ar
   9    4    5 1
  10    5    6 am
  11    5    7 2
  12    6   18 1
  13    6   22 1
  14    8    9 3
  15    9   10 1
  16   10   11 ar
  17   10   16 ar
  18   11   13 ar
  19   11   29 1
  20   12   17 ar
  21   12   16 ar
  22   12   30 1
  23   13   26 1
  24   13   17 ar
  25   14   15 ar
  26   15   31 1
  27   16   32 1
  28   17   33 1
  29   18   19 1
  30   18   34 1
  31   18   35 1
  32   19   20 1
  33   19   36 1
  34   19   37 1
  35   20   21 1
  36   20   23 1
  37   20   38 1
  38   21   22 1
  39   21   24 1
  40   21   25 1
  41   22   39 1
  42   22   40 1
  43   23   41 1
  44   24   42 1
  45   24   43 1
  46   24   44 1
  47   25   45 1
  48   25   46 1
  49   25   47 1

#	End of record

