#	Name: ASD06660101
#	Creating user name:	WinNT
#	Creation time:	15. 06. 2019 21:08

#	Modifying user name:	WinNT
#	Modification time:	15. 06. 2019 21:08

#	Program:	/corina/corina34_cracker 3.40 0067  02.08.2006

@<TRIPOS>MOLECULE
ASD06660101
  78   82    0    0    0
SMALL
NO_CHARGES


@<TRIPOS>ATOM
   1 C1             0.2345     1.9372     1.0693 C.2     
   2 C2             0.0162     0.5412     0.5452 C.3     
   3 C3            -1.1173     0.5537    -0.4823 C.3     
   4 O4             1.3070     2.4751     0.9270 O.2     
   5 O5            -0.7643     2.5851     1.6894 O.3     
   6 C6             2.2715    -0.3727     0.6696 C.2     
   7 C7             3.5455    -0.7726     0.0332 C.ar    
   8 C8             3.8000    -2.1195    -0.2335 C.ar    
   9 C9             4.9859    -2.4921    -0.8259 C.ar    
  10 C10            5.9345    -1.5225    -1.1601 C.ar    
  11 C11            5.6797    -0.1756    -0.8932 C.ar    
  12 C12            4.4908     0.1971    -0.3058 C.ar    
  13 O13            2.1498    -0.4345     1.8773 O.2     
  14 N14            1.2457     0.0603    -0.0898 N.am    
  15 C15            4.2130     1.6512    -0.0239 C.3     
  16 C16            2.7769    -3.1654     0.1275 C.3     
  17 C17            1.7701    -3.3099    -1.0154 C.3     
  18 C18            7.1680    -1.9098    -1.7757 C.1     
  19 N19            8.1466    -2.2170    -2.2641 N.1     
  20 C20           -1.4246    -0.8587    -0.9085 C.ar    
  21 C21           -2.3416    -1.6101    -0.1966 C.ar    
  22 C22           -2.6255    -2.9048    -0.5844 C.ar    
  23 C23           -1.9887    -3.4522    -1.6910 C.ar    
  24 C24           -1.0681    -2.6946    -2.4039 C.ar    
  25 C25           -0.7930    -1.3986    -2.0139 C.ar    
  26 N26           -2.2731    -4.7614    -2.0857 N.3     
  27 C27           -1.4924    -5.1348    -3.2721 C.3     
  28 C28           -1.9341    -6.5160    -3.7611 C.3     
  29 C29           -1.7202    -7.5403    -2.6432 C.3     
  30 C30           -2.5053    -7.1027    -1.4036 C.3     
  31 C31           -2.0471    -5.7044    -0.9829 C.3     
  32 C32           -2.2164    -8.9120    -3.1048 C.3     
  33 N33           -1.9033    -9.9139    -2.0828 N.pl3   
  34 C34           -2.2570   -11.2323    -2.2785 C.2     
  35 N35           -2.8996   -11.7166    -3.3817 N.pl3   
  36 C36           -3.0701   -13.0784    -3.1931 C.ar    
  37 C37           -2.5048   -13.3730    -1.9411 C.ar    
  38 N38           -2.0216   -12.2073    -1.4363 N.2     
  39 C39           -2.5255   -14.6875    -1.4696 C.ar    
  40 C40           -3.0983   -15.6795    -2.2343 C.ar    
  41 C41           -3.6545   -15.3833    -3.4694 C.ar    
  42 C42           -3.6427   -14.0893    -3.9491 C.ar    
  43 H43           -0.2489    -0.1195     1.3706 H       
  44 H44           -2.0064     1.0004    -0.0372 H       
  45 H45           -0.8136     1.1375    -1.3513 H       
  46 H46           -0.5767     3.4785     2.0084 H       
  47 H47            5.1828    -3.5338    -1.0318 H       
  48 H48            6.4131     0.5741    -1.1512 H       
  49 H49            1.3214     0.0534    -1.0568 H       
  50 H50            4.5783     1.9046     0.9713 H       
  51 H51            4.7205     2.2685    -0.7653 H       
  52 H52            3.1393     1.8323    -0.0739 H       
  53 H53            3.2763    -4.1198     0.2946 H       
  54 H54            2.2547    -2.8647     1.0358 H       
  55 H55            1.3429    -2.3347    -1.2488 H       
  56 H56            2.2751    -3.7056    -1.8966 H       
  57 H57            0.9750    -3.9924    -0.7152 H       
  58 H58           -2.8361    -1.1840     0.6639 H       
  59 H59           -3.3415    -3.4912    -0.0278 H       
  60 H60           -0.5712    -3.1172    -3.2647 H       
  61 H61           -0.0809    -0.8075    -2.5705 H       
  62 H62           -1.6567    -4.4006    -4.0608 H       
  63 H63           -0.4332    -5.1617    -3.0161 H       
  64 H64           -2.9899    -6.4863    -4.0303 H       
  65 H65           -1.3436    -6.7996    -4.6323 H       
  66 H66           -0.6591    -7.5985    -2.4006 H       
  67 H67           -3.5701    -7.0822    -1.6357 H       
  68 H68           -2.3230    -7.8053    -0.5905 H       
  69 H69           -0.9853    -5.7287    -0.7377 H       
  70 H70           -2.6143    -5.3840    -0.1090 H       
  71 H71           -3.2948    -8.8752    -3.2591 H       
  72 H72           -1.7245    -9.1807    -4.0396 H       
  73 H73           -1.4471    -9.6498    -1.2685 H       
  74 H74           -3.1841   -11.2026    -4.1536 H       
  75 H75           -2.0935   -14.9253    -0.5088 H       
  76 H76           -3.1141   -16.6958    -1.8693 H       
  77 H77           -4.1003   -16.1702    -4.0597 H       
  78 H78           -4.0777   -13.8650    -4.9118 H       
@<TRIPOS>BOND
   1    1    2 1
   2    1    4 2
   3    1    5 1
   4    2    3 1
   5    2   14 1
   6    2   43 1
   7    3   20 1
   8    3   44 1
   9    3   45 1
  10    5   46 1
  11    6    7 1
  12    6   13 2
  13    6   14 am
  14    7    8 ar
  15    7   12 ar
  16    8    9 ar
  17    8   16 1
  18    9   10 ar
  19    9   47 1
  20   10   11 ar
  21   10   18 1
  22   11   12 ar
  23   11   48 1
  24   12   15 1
  25   14   49 1
  26   15   50 1
  27   15   51 1
  28   15   52 1
  29   16   17 1
  30   16   53 1
  31   16   54 1
  32   17   55 1
  33   17   56 1
  34   17   57 1
  35   18   19 3
  36   20   21 ar
  37   20   25 ar
  38   21   22 ar
  39   21   58 1
  40   22   23 ar
  41   22   59 1
  42   23   24 ar
  43   23   26 1
  44   24   25 ar
  45   24   60 1
  46   25   61 1
  47   26   27 1
  48   26   31 1
  49   27   28 1
  50   27   62 1
  51   27   63 1
  52   28   29 1
  53   28   64 1
  54   28   65 1
  55   29   30 1
  56   29   32 1
  57   29   66 1
  58   30   31 1
  59   30   67 1
  60   30   68 1
  61   31   69 1
  62   31   70 1
  63   32   33 1
  64   32   71 1
  65   32   72 1
  66   33   34 1
  67   33   73 1
  68   34   35 1
  69   34   38 2
  70   35   36 1
  71   35   74 1
  72   36   37 ar
  73   36   42 ar
  74   37   38 1
  75   37   39 ar
  76   39   40 ar
  77   39   75 1
  78   40   41 ar
  79   40   76 1
  80   41   42 ar
  81   41   77 1
  82   42   78 1

#	End of record

