#	Name: ASD01820175
#	Creating user name:	WinNT
#	Creation time:	15. 06. 2019 19:36

#	Modifying user name:	WinNT
#	Modification time:	15. 06. 2019 19:36

#	Program:	/corina/corina34_cracker 3.40 0067  02.08.2006

@<TRIPOS>MOLECULE
ASD01820175
  90   93    0    0    0
SMALL
NO_CHARGES


@<TRIPOS>ATOM
   1 C1            -0.0170     1.4056     0.0098 C.ar    
   2 C2             0.0021    -0.0041     0.0020 C.ar    
   3 C3            -1.4140    -0.4277     0.0141 C.2     
   4 N4            -2.1900     0.6711     0.0278 N.am    
   5 C5            -1.4440     1.7905     0.0314 C.2     
   6 C6            -3.6548     0.6511     0.0418 C.3     
   7 C7            -4.1509     0.6365     1.4890 C.3     
   8 C8            -5.6807     0.6157     1.5036 C.3     
   9 N9            -6.1570     0.6017     2.8932 N.4     
  10 C10           -7.6258     0.5817     2.9071 C.3     
  11 C11           -8.1219     0.5671     4.3544 C.3     
  12 C12           -9.6517     0.5463     4.3690 C.3     
  13 C13          -10.1478     0.5317     5.8162 C.3     
  14 C14          -11.6776     0.5109     5.8308 C.3     
  15 C15          -12.1737     0.4963     7.2781 C.3     
  16 N16          -13.6425     0.4763     7.2920 N.4     
  17 C17          -14.1188     0.4623     8.6816 C.3     
  18 C18          -15.6486     0.4415     8.6962 C.3     
  19 N19          -17.6095     0.4070    10.1574 N.am    
  20 O20           -1.8715     2.9272     0.0436 O.2     
  21 O21           -1.8105    -1.5756     0.0119 O.2     
  22 C22          -16.1447     0.4269    10.1434 C.3     
  23 C23          -18.3555    -0.7125    10.1591 C.2     
  24 C24          -19.7825    -0.3276    10.1755 C.ar    
  25 C25          -19.8016     1.0821    10.1831 C.ar    
  26 C26          -18.3855     1.5057    10.1760 C.2     
  27 C27          -20.9748    -1.0327    10.1839 C.ar    
  28 C28          -22.1794    -0.3462    10.1997 C.ar    
  29 C29          -22.1981     1.0355    10.2066 C.ar    
  30 C30          -21.0126     1.7546    10.1989 C.ar    
  31 O31          -17.9279    -1.8492    10.1484 O.2     
  32 O32          -17.9889     2.6536    10.1795 O.2     
  33 C33          -14.1550     1.6727     6.6108 C.3     
  34 C34          -14.1225    -0.7260     6.5977 C.3     
  35 C35           -5.6445    -0.5946     3.5744 C.3     
  36 C36           -5.6771     1.8040     3.5875 C.3     
  37 C37            1.1753     2.1108     0.0022 C.ar    
  38 C38            2.3798     1.4243    -0.0130 C.ar    
  39 C39            2.3986     0.0426    -0.0206 C.ar    
  40 C40            1.2131    -0.6765    -0.0135 C.ar    
  41 C41            3.6776     2.1903    -0.0218 C.3     
  42 C42          -23.5162     1.7659    10.2228 C.3     
  43 H43           -4.0351     1.5388    -0.4637 H       
  44 H44           -4.0110    -0.2410    -0.4734 H       
  45 H45           -3.7707    -0.2511     1.9945 H       
  46 H46           -3.7948     1.5287     2.0042 H       
  47 H47           -6.0610     1.5034     0.9981 H       
  48 H48           -6.0369    -0.2764     0.9884 H       
  49 H49           -8.0061     1.4694     2.4016 H       
  50 H50           -7.9820    -0.3104     2.3920 H       
  51 H51           -7.7417    -0.3205     4.8599 H       
  52 H52           -7.7658     1.4592     4.8696 H       
  53 H53          -10.0320     1.4340     3.8635 H       
  54 H54          -10.0079    -0.3458     3.8538 H       
  55 H55           -9.7675    -0.3559     6.3217 H       
  56 H56           -9.7917     1.4238     6.3314 H       
  57 H57          -12.0579     1.3986     5.3253 H       
  58 H58          -12.0337    -0.3812     5.3156 H       
  59 H59          -11.7934    -0.3913     7.7836 H       
  60 H60          -11.8175     1.3884     7.7932 H       
  61 H61          -13.7385    -0.4253     9.1871 H       
  62 H62          -13.7627     1.3544     9.1968 H       
  63 H63          -16.0289     1.3292     8.1907 H       
  64 H64          -16.0047    -0.4506     8.1810 H       
  65 H65          -15.7644    -0.4607    10.6489 H       
  66 H66          -15.7885     1.3190    10.6586 H       
  67 H67          -20.9662    -2.1127    10.1778 H       
  68 H68          -23.1094    -0.8951    10.2062 H       
  69 H69          -21.0332     2.8344    10.2047 H       
  70 H70          -13.8016     1.6831     5.5797 H       
  71 H71          -15.2448     1.6578     6.6211 H       
  72 H72          -13.7988     2.5648     7.1259 H       
  73 H73          -13.7422    -1.6136     7.1032 H       
  74 H74          -15.2123    -0.7408     6.6081 H       
  75 H75          -13.7690    -0.7156     5.5667 H       
  76 H76           -4.5547    -0.5798     3.5641 H       
  77 H77           -5.9980    -0.6050     4.6055 H       
  78 H78           -6.0007    -1.4867     3.0593 H       
  79 H79           -6.0573     2.6917     3.0820 H       
  80 H80           -6.0305     1.7936     4.6185 H       
  81 H81           -4.5872     1.8188     3.5771 H       
  82 H82            1.1667     3.1908     0.0077 H       
  83 H83            3.3432    -0.4808    -0.0324 H       
  84 H84            1.2338    -1.7563    -0.0193 H       
  85 H85            4.0005     2.3698     1.0037 H       
  86 H86            4.4378     1.6111    -0.5460 H       
  87 H87            3.5332     3.1440    -0.5294 H       
  88 H88          -23.8241     1.9370    11.2543 H       
  89 H89          -23.4075     2.7230     9.7126 H       
  90 H90          -24.2702     1.1661     9.7132 H       
@<TRIPOS>BOND
   1    1    2 ar
   2    1   37 ar
   3    1    5 1
   4    2    3 1
   5    2   40 ar
   6    3    4 am
   7    3   21 2
   8    4    5 am
   9    4    6 1
  10    5   20 2
  11    6    7 1
  12    6   43 1
  13    6   44 1
  14    7    8 1
  15    7   45 1
  16    7   46 1
  17    8    9 1
  18    8   47 1
  19    8   48 1
  20    9   10 1
  21    9   35 1
  22    9   36 1
  23   10   11 1
  24   10   49 1
  25   10   50 1
  26   11   12 1
  27   11   51 1
  28   11   52 1
  29   12   13 1
  30   12   53 1
  31   12   54 1
  32   13   14 1
  33   13   55 1
  34   13   56 1
  35   14   15 1
  36   14   57 1
  37   14   58 1
  38   15   16 1
  39   15   59 1
  40   15   60 1
  41   16   17 1
  42   16   33 1
  43   16   34 1
  44   17   18 1
  45   17   61 1
  46   17   62 1
  47   18   22 1
  48   18   63 1
  49   18   64 1
  50   19   23 am
  51   19   22 1
  52   19   26 am
  53   22   65 1
  54   22   66 1
  55   23   24 1
  56   23   31 2
  57   24   25 ar
  58   24   27 ar
  59   25   26 1
  60   25   30 ar
  61   26   32 2
  62   27   28 ar
  63   27   67 1
  64   28   29 ar
  65   28   68 1
  66   29   30 ar
  67   29   42 1
  68   30   69 1
  69   33   70 1
  70   33   71 1
  71   33   72 1
  72   34   73 1
  73   34   74 1
  74   34   75 1
  75   35   76 1
  76   35   77 1
  77   35   78 1
  78   36   79 1
  79   36   80 1
  80   36   81 1
  81   37   38 ar
  82   37   82 1
  83   38   39 ar
  84   38   41 1
  85   39   40 ar
  86   39   83 1
  87   40   84 1
  88   41   85 1
  89   41   86 1
  90   41   87 1
  91   42   88 1
  92   42   89 1
  93   42   90 1

#	End of record

