#	Name: ASD01812309
#	Creating user name:	WinNT
#	Creation time:	15. 06. 2019 19:28

#	Modifying user name:	WinNT
#	Modification time:	15. 06. 2019 19:28

#	Program:	/corina/corina34_cracker 3.40 0067  02.08.2006

@<TRIPOS>MOLECULE
ASD01812309
  57   61    0    0    0
SMALL
NO_CHARGES


@<TRIPOS>ATOM
   1 C1            -0.0168     1.3897     0.0097 C.ar    
   2 C2             0.0021    -0.0041     0.0020 C.ar    
   3 C3             1.1796    -0.6877    -0.0129 C.ar    
   4 C4             2.3927     0.0187    -0.0207 C.ar    
   5 C5             2.3768     1.4381    -0.0130 C.ar    
   6 C6             1.1385     2.1078     0.0025 C.ar    
   7 C7             3.6297    -0.6529    -0.0357 C.ar    
   8 C8             4.7711     0.0956    -0.0422 C.ar    
   9 C9             4.6871     1.4959    -0.0340 C.ar    
  10 N10            3.5238     2.1168    -0.0199 N.ar    
  11 C11            5.9353     2.2963    -0.0412 C.2     
  12 N12            5.8725     3.6426    -0.0335 N.am    
  13 O13            7.0146     1.7386    -0.0541 O.2     
  14 C14            7.1057     4.4335    -0.0406 C.3     
  15 C15            6.8359     5.8079     0.5794 C.3     
  16 C16            8.1109     6.6528     0.4956 C.3     
  17 C17            8.5531     6.7517    -0.9667 C.3     
  18 O18            8.7570     5.4381    -1.4912 O.3     
  19 C19            7.5867     4.6181    -1.4822 C.3     
  20 C20            3.6922    -2.1586    -0.0438 C.3     
  21 C21            3.5760    -2.6586    -1.4607 C.ar    
  22 C22            4.7135    -2.8409    -2.2347 C.ar    
  23 C23            4.5638    -3.3016    -3.5310 C.ar    
  24 C24            3.2830    -3.5651    -4.0122 C.ar    
  25 N25            2.2207    -3.3771    -3.2397 N.ar    
  26 C26            2.3360    -2.9453    -1.9999 C.ar    
  27 C27            3.1056    -4.0594    -5.3994 C.2     
  28 F28            6.4648     5.6523     1.9192 F       
  29 C29            4.1342    -4.3996    -6.3004 C.2     
  30 N30            3.5814    -4.7915    -7.4173 N.2     
  31 N31            2.1905    -4.7179    -7.2756 N.pl3   
  32 C32            1.9159    -4.2732    -6.0340 C.2     
  33 C33            1.2035    -5.0693    -8.2996 C.3     
  34 H34           -0.9643     1.9080     0.0170 H       
  35 H35           -0.9302    -0.5493     0.0084 H       
  36 H36            1.1803    -1.7677    -0.0184 H       
  37 H37            1.1059     3.1873     0.0090 H       
  38 H38            5.7363    -0.3889    -0.0533 H       
  39 H39            5.0108     4.0879    -0.0231 H       
  40 H40            7.8726     3.9175     0.5370 H       
  41 H41            6.0336     6.3035     0.0327 H       
  42 H42            7.9123     7.6515     0.8845 H       
  43 H43            8.8990     6.1821     1.0834 H       
  44 H44            7.7816     7.2588    -1.5462 H       
  45 H45            9.4837     7.3159    -1.0277 H       
  46 H46            7.8211     3.6454    -1.9146 H       
  47 H47            6.8026     5.0973    -2.0685 H       
  48 H48            4.6418    -2.4851     0.3800 H       
  49 H49            2.8717    -2.5595     0.5513 H       
  50 H50            5.6936    -2.6277    -1.8343 H       
  51 H51            5.4276    -3.4543    -4.1610 H       
  52 H52            1.4489    -2.8042    -1.4002 H       
  53 H53            5.1945    -4.3454    -6.1023 H       
  54 H54            0.9327    -4.1098    -5.6180 H       
  55 H55            0.9426    -6.1235    -8.2062 H       
  56 H56            0.3092    -4.4605    -8.1663 H       
  57 H57            1.6242    -4.8854    -9.2881 H       
@<TRIPOS>BOND
   1    1    2 ar
   2    1    6 ar
   3    1   34 1
   4    2    3 ar
   5    2   35 1
   6    3    4 ar
   7    3   36 1
   8    4    5 ar
   9    4    7 ar
  10    5    6 ar
  11    5   10 ar
  12    6   37 1
  13    7    8 ar
  14    7   20 1
  15    8    9 ar
  16    8   38 1
  17    9   10 ar
  18    9   11 1
  19   11   12 am
  20   11   13 2
  21   12   14 1
  22   12   39 1
  23   14   15 1
  24   14   19 1
  25   14   40 1
  26   15   16 1
  27   15   28 1
  28   15   41 1
  29   16   17 1
  30   16   42 1
  31   16   43 1
  32   17   18 1
  33   17   44 1
  34   17   45 1
  35   18   19 1
  36   19   46 1
  37   19   47 1
  38   20   21 1
  39   20   48 1
  40   20   49 1
  41   21   22 ar
  42   21   26 ar
  43   22   23 ar
  44   22   50 1
  45   23   24 ar
  46   23   51 1
  47   24   25 ar
  48   24   27 1
  49   25   26 ar
  50   26   52 1
  51   27   29 1
  52   27   32 2
  53   29   30 2
  54   29   53 1
  55   30   31 1
  56   31   32 1
  57   31   33 1
  58   32   54 1
  59   33   55 1
  60   33   56 1
  61   33   57 1

#	End of record

