#	Name: ASD03091183
#	Creating user name:	WinNT
#	Creation time:	15. 06. 2019 20:30

#	Modifying user name:	WinNT
#	Modification time:	15. 06. 2019 20:30

#	Program:	/corina/corina34_cracker 3.40 0067  02.08.2006

@<TRIPOS>MOLECULE
ASD03091183
  62   65    0    0    0
SMALL
NO_CHARGES


@<TRIPOS>ATOM
   1 C1            -0.7015     1.3960     0.0540 C.3     
   2 N2            -0.4476    -0.0466     0.0309 N.am    
   3 C3            -0.1888    -0.7039     1.1924 C.2     
   4 N4             0.0457    -1.9790     1.2544 N.2     
   5 C5             0.0485    -2.7570     0.1424 C.ar    
   6 C6            -0.2108    -2.1599    -1.1112 C.ar    
   7 C7            -0.4781    -0.7143    -1.1461 C.2     
   8 C8            -0.1730     0.0889     2.4740 C.3     
   9 O9            -0.7086    -0.1389    -2.1937 O.2     
  10 C10            0.3015    -4.1290     0.2101 C.ar    
  11 C11            0.2963    -4.8795    -0.9308 C.ar    
  12 C12            0.0409    -4.2951    -2.1712 C.ar    
  13 C13           -0.2131    -2.9374    -2.2670 C.ar    
  14 N14            0.0416    -5.0848    -3.3245 N.3     
  15 C15            0.6005    -4.3482    -4.4668 C.3     
  16 C16            1.4393    -5.2732    -5.3358 C.3     
  17 C17            0.6117    -6.2385    -6.1603 C.3     
  18 N18           -0.8279    -5.9827    -6.0093 N.3     
  19 C19           -1.3178    -6.5869    -4.7610 C.3     
  20 C20           -1.3098    -5.5683    -3.6318 C.3     
  21 C21            0.6003     2.1379    -0.1076 C.2     
  22 O22            0.6112     3.4801    -0.1160 O.3     
  23 O23            1.6341     1.5245    -0.2295 O.2     
  24 C24            1.9010     4.1278    -0.2756 C.3     
  25 C25            0.1360    -0.8438     3.6468 C.3     
  26 C26            2.5236     3.7032    -1.6072 C.3     
  27 C27            1.7144     5.6463    -0.2611 C.3     
  28 C28            2.8239     3.7163     0.8731 C.3     
  29 C29           -1.1801    -4.5966    -6.2312 C.3     
  30 C30           -0.5277    -3.6678    -5.2204 C.3     
  31 H31           -1.3738     1.6597    -0.7625 H       
  32 H32           -1.1598     1.6691     1.0045 H       
  33 H33            0.5926     0.8623     2.4134 H       
  34 H34           -1.1474     0.5532     2.6260 H       
  35 H35            0.5013    -4.5956     1.1634 H       
  36 H36            0.4930    -5.9398    -0.8718 H       
  37 H37           -0.4107    -2.4858    -3.2279 H       
  38 H38            1.2524    -3.5662    -4.0773 H       
  39 H39            2.0434    -4.6665    -6.0103 H       
  40 H40            2.1072    -5.8464    -4.6928 H       
  41 H41            0.8836    -6.1333    -7.2105 H       
  42 H42            0.8277    -7.2573    -5.8384 H       
  43 H43           -2.3352    -6.9477    -4.9118 H       
  44 H44           -0.6761    -7.4260    -4.4922 H       
  45 H45           -1.7318    -6.0283    -2.7383 H       
  46 H46           -1.9318    -4.7199    -3.9172 H       
  47 H47            0.1475    -0.2705     4.5738 H       
  48 H48           -0.6296    -1.6173     3.7075 H       
  49 H49            1.1104    -1.3082     3.4948 H       
  50 H50            1.8660     3.9963    -2.4256 H       
  51 H51            3.4917     4.1894    -1.7270 H       
  52 H52            2.6565     2.6214    -1.6175 H       
  53 H53            1.2708     5.9488     0.6875 H       
  54 H54            2.6825     6.1325    -0.3809 H       
  55 H55            1.0568     5.9394    -1.0795 H       
  56 H56            2.9569     2.6345     0.8628 H       
  57 H57            3.7921     4.2025     0.7533 H       
  58 H58            2.3804     4.0188     1.8218 H       
  59 H59           -0.8629    -4.3074    -7.2331 H       
  60 H60           -2.2627    -4.4913    -6.1608 H       
  61 H61           -1.2813    -3.3360    -4.5062 H       
  62 H62           -0.1304    -2.7979    -5.7434 H       
@<TRIPOS>BOND
   1    1    2 1
   2    1   21 1
   3    1   31 1
   4    1   32 1
   5    2    3 1
   6    2    7 am
   7    3    4 2
   8    3    8 1
   9    4    5 1
  10    5    6 ar
  11    5   10 ar
  12    6    7 1
  13    6   13 ar
  14    7    9 2
  15    8   25 1
  16    8   33 1
  17    8   34 1
  18   10   11 ar
  19   10   35 1
  20   11   12 ar
  21   11   36 1
  22   12   13 ar
  23   12   14 1
  24   13   37 1
  25   14   15 1
  26   14   20 1
  27   15   16 1
  28   15   30 1
  29   15   38 1
  30   16   17 1
  31   16   39 1
  32   16   40 1
  33   17   18 1
  34   17   41 1
  35   17   42 1
  36   18   19 1
  37   18   29 1
  38   19   20 1
  39   19   43 1
  40   19   44 1
  41   20   45 1
  42   20   46 1
  43   21   22 1
  44   21   23 2
  45   22   24 1
  46   24   26 1
  47   24   27 1
  48   24   28 1
  49   25   47 1
  50   25   48 1
  51   25   49 1
  52   26   50 1
  53   26   51 1
  54   26   52 1
  55   27   53 1
  56   27   54 1
  57   27   55 1
  58   28   56 1
  59   28   57 1
  60   28   58 1
  61   29   30 1
  62   29   59 1
  63   29   60 1
  64   30   61 1
  65   30   62 1

#	End of record

