#	Name: ASD02030104
#	Creating user name:	WinNT
#	Creation time:	15. 06. 2019 20:14

#	Modifying user name:	WinNT
#	Modification time:	15. 06. 2019 20:14

#	Program:	/corina/corina34_cracker 3.40 0067  02.08.2006

@<TRIPOS>MOLECULE
ASD02030104
  58   62    0    0    0
SMALL
NO_CHARGES


@<TRIPOS>ATOM
   1 N1            -0.0330     1.2427     0.3467 N.am    
   2 C2            -0.2589    -0.2093     0.3693 C.3     
   3 C3            -1.3003    -0.5265     1.4496 C.3     
   4 N4            -2.4529     0.3669     1.2676 N.am    
   5 C5            -2.2269     1.8189     1.2450 C.3     
   6 C6            -1.1863     2.1363     0.1702 C.3     
   7 C7             1.2090     1.7459     0.4908 C.2     
   8 C8             2.3400     0.8456     0.8001 C.2     
   9 N9             3.5693     1.2175     1.0856 N.2     
  10 N10            2.2923    -0.4985     0.8449 N.2     
  11 C11            3.4927    -0.9203     1.1514 C.2     
  12 N12            4.2806     0.1645     1.2989 N.pl3   
  13 O13            1.3991     2.9401     0.3664 O.2     
  14 C14           -3.6949    -0.1363     1.1235 C.2     
  15 C15           -3.8937    -1.5903     1.0420 C.2     
  16 O16           -4.6513     0.6129     1.0609 O.2     
  17 C17           -0.7354     3.5920     0.3061 C.3     
  18 C18           -1.7941     1.9105    -1.2156 C.3     
  19 C19            5.6428     0.1490     1.6281 C.ar    
  20 C20            6.3426     1.3420     1.7501 C.ar    
  21 C21            7.6850     1.3233     2.0746 C.ar    
  22 C22            8.3321     0.1182     2.2773 C.ar    
  23 C23            7.6379    -1.0716     2.1565 C.ar    
  24 C24            6.2939    -1.0592     1.8383 C.ar    
  25 C25           -5.0733    -2.2034     0.7644 C.2     
  26 C26           -4.7989    -3.6397     0.7884 C.ar    
  27 C27           -3.4298    -3.7618     1.0891 C.ar    
  28 O28           -2.9306    -2.5173     1.2259 O.3     
  29 C29           -6.3971    -1.5384     0.4876 C.3     
  30 C30           -5.5770    -4.7825     0.5859 C.ar    
  31 C31           -4.9948    -6.0276     0.6827 C.ar    
  32 C32           -3.6419    -6.1471     0.9804 C.ar    
  33 C33           -2.8642    -5.0281     1.1821 C.ar    
  34 F34           -5.7415    -7.1366     0.4880 F       
  35 H35           -0.6284    -0.5372    -0.6024 H       
  36 H36            0.6752    -0.7214     0.6000 H       
  37 H37           -1.6225    -1.5634     1.3540 H       
  38 H38           -0.8649    -0.3656     2.4359 H       
  39 H39           -3.1611     2.3310     1.0142 H       
  40 H40           -1.8575     2.1468     2.2167 H       
  41 H41            3.7965    -1.9501     1.2681 H       
  42 H42           -0.1961     3.7193     1.2447 H       
  43 H43           -0.0807     3.8488    -0.5268 H       
  44 H44           -1.6080     4.2451     0.2970 H       
  45 H45           -2.6579     2.5628    -1.3441 H       
  46 H46           -1.0507     2.1373    -1.9797 H       
  47 H47           -2.1068     0.8706    -1.3102 H       
  48 H48            5.8379     2.2834     1.5912 H       
  49 H49            8.2299     2.2509     2.1697 H       
  50 H50            9.3820     0.1062     2.5303 H       
  51 H51            8.1460    -2.0112     2.3154 H       
  52 H52            5.7521    -1.9888     1.7444 H       
  53 H53           -6.4938    -1.3527    -0.5821 H       
  54 H54           -7.2067    -2.1891     0.8181 H       
  55 H55           -6.4482    -0.5924     1.0267 H       
  56 H56           -6.6281    -4.6905     0.3553 H       
  57 H57           -3.1958    -7.1279     1.0542 H       
  58 H58           -1.8144    -5.1348     1.4124 H       
@<TRIPOS>BOND
   1    1    2 1
   2    1    7 am
   3    1    6 1
   4    2    3 1
   5    2   35 1
   6    2   36 1
   7    3    4 1
   8    3   37 1
   9    3   38 1
  10    4    5 1
  11    4   14 am
  12    5    6 1
  13    5   39 1
  14    5   40 1
  15    6   17 1
  16    6   18 1
  17    7    8 1
  18    7   13 2
  19    8    9 2
  20    8   10 1
  21    9   12 1
  22   10   11 2
  23   11   12 1
  24   11   41 1
  25   12   19 1
  26   14   15 1
  27   14   16 2
  28   15   25 2
  29   15   28 1
  30   17   42 1
  31   17   43 1
  32   17   44 1
  33   18   45 1
  34   18   46 1
  35   18   47 1
  36   19   20 ar
  37   19   24 ar
  38   20   21 ar
  39   20   48 1
  40   21   22 ar
  41   21   49 1
  42   22   23 ar
  43   22   50 1
  44   23   24 ar
  45   23   51 1
  46   24   52 1
  47   25   26 1
  48   25   29 1
  49   26   27 ar
  50   26   30 ar
  51   27   28 1
  52   27   33 ar
  53   29   53 1
  54   29   54 1
  55   29   55 1
  56   30   31 ar
  57   30   56 1
  58   31   32 ar
  59   31   34 1
  60   32   33 ar
  61   32   57 1
  62   33   58 1

#	End of record

