#	Name: ASD08070032
#	Creating user name:	WinNT
#	Creation time:	15. 06. 2019 21:14

#	Modifying user name:	WinNT
#	Modification time:	15. 06. 2019 21:14

#	Program:	/corina/corina34_cracker 3.40 0067  02.08.2006

@<TRIPOS>MOLECULE
ASD08070032
  39   40    0    0    0
SMALL
NO_CHARGES


@<TRIPOS>ATOM
   1 C1            -0.0170     1.4014     0.0097 C.ar    
   2 C2             0.0021    -0.0041     0.0020 C.ar    
   3 C3            -1.2003    -0.7173     0.0097 C.ar    
   4 C4            -2.3892    -0.0505     0.0246 C.ar    
   5 C5            -2.4168     1.3498     0.0324 C.ar    
   6 C6            -1.2247     2.0738     0.0299 C.ar    
   7 O7             1.2755     1.7966    -0.0005 O.3     
   8 C8             2.0472     0.6994    -0.0137 C.2     
   9 N9             1.3098    -0.3714    -0.0124 N.2     
  10 C10           -3.7104     2.0609     0.0481 C.2     
  11 N11           -4.8632     1.3626     0.0549 N.am    
  12 O12           -3.7359     3.2764     0.0548 O.2     
  13 C13           -6.1469     2.0683     0.0704 C.3     
  14 C14           -7.2292     1.1716    -0.5341 C.3     
  15 C15           -6.5201     2.4164     1.5128 C.3     
  16 C16           -5.5041     3.4119     2.0764 C.3     
  17 C17           -5.8773     3.7600     3.5188 C.3     
  18 C18           -6.9205     0.9254    -2.0123 C.3     
  19 C19           -8.0027     0.0287    -2.6169 C.3     
  20 H20           -1.1872    -1.7972     0.0034 H       
  21 H21           -3.3157    -0.6055     0.0301 H       
  22 H22           -1.2451     3.1536     0.0358 H       
  23 H23            3.1272     0.7048    -0.0240 H       
  24 H24           -4.8428     0.3928     0.0495 H       
  25 H25           -6.0652     2.9842    -0.5149 H       
  26 H26           -7.2501     0.2195    -0.0039 H       
  27 H27           -8.1991     1.6602    -0.4420 H       
  28 H28           -7.5148     2.8615     1.5334 H       
  29 H29           -6.5150     1.5100     2.1183 H       
  30 H30           -4.5093     2.9668     2.0558 H       
  31 H31           -5.5092     4.3183     1.4709 H       
  32 H32           -5.1535     4.4693     3.9203 H       
  33 H33           -6.8720     4.2052     3.5394 H       
  34 H34           -5.8722     2.8537     4.1242 H       
  35 H35           -6.8995     1.8775    -2.5426 H       
  36 H36           -5.9505     0.4368    -2.1045 H       
  37 H37           -8.0237    -0.9234    -2.0866 H       
  38 H38           -8.9727     0.5173    -2.5247 H       
  39 H39           -7.7828    -0.1467    -3.6700 H       
@<TRIPOS>BOND
   1    1    2 ar
   2    1    7 1
   3    1    6 ar
   4    2    3 ar
   5    2    9 1
   6    3    4 ar
   7    3   20 1
   8    4    5 ar
   9    4   21 1
  10    5    6 ar
  11    5   10 1
  12    6   22 1
  13    7    8 1
  14    8    9 2
  15    8   23 1
  16   10   11 am
  17   10   12 2
  18   11   13 1
  19   11   24 1
  20   13   14 1
  21   13   15 1
  22   13   25 1
  23   14   18 1
  24   14   26 1
  25   14   27 1
  26   15   16 1
  27   15   28 1
  28   15   29 1
  29   16   17 1
  30   16   30 1
  31   16   31 1
  32   17   32 1
  33   17   33 1
  34   17   34 1
  35   18   19 1
  36   18   35 1
  37   18   36 1
  38   19   37 1
  39   19   38 1
  40   19   39 1

#	End of record

