#	Name: ASD05143018
#	Creating user name:	WinNT
#	Creation time:	15. 06. 2019 20:57

#	Modifying user name:	WinNT
#	Modification time:	15. 06. 2019 20:57

#	Program:	/corina/corina34_cracker 3.40 0067  02.08.2006

@<TRIPOS>MOLECULE
ASD05143018
 146  149    0    0    0
SMALL
NO_CHARGES


@<TRIPOS>ATOM
   1 C1            -2.0936     5.4294     7.5543 C.2     
   2 C2            -1.6066     4.6954     8.7770 C.3     
   3 N3            -1.2069     5.9625     6.6905 N.am    
   4 O4            -3.2834     5.5363     7.3450 O.2     
   5 C5            -1.6803     6.6761     5.5019 C.3     
   6 C6            -2.5151     5.7292     4.6374 C.3     
   7 C7            -2.5272     7.8488     5.9242 C.2     
   8 C8            -1.6241     4.6046     4.1062 C.3     
   9 C9            -2.4589     3.6577     3.2416 C.3     
  10 N10           -1.6057     2.5809     2.7329 N.pl3   
  11 C11           -2.1396     1.6034     1.9268 C.2     
  12 N12           -1.3389     0.5929     1.4495 N.pl3   
  13 N13           -3.4048     1.6349     1.6151 N.2     
  14 O14           -3.0184     7.8741     7.0328 O.2     
  15 N15           -2.7389     8.8696     5.0700 N.am    
  16 C16           -3.5622    10.0097     5.4805 C.3     
  17 C17           -2.6587    11.2017     5.8022 C.3     
  18 C18           -1.5014    10.7405     6.6901 C.3     
  19 C19           -0.3616    10.2676     5.8253 C.2     
  20 O20           -0.5657     9.5339     4.8814 O.2     
  21 N21            0.9060    10.6809     6.1238 N.am    
  22 C22            1.9680    10.1661     5.2295 C.3     
  23 C23            2.1167    11.1222     4.0444 C.3     
  24 C24            2.7784    10.3873     2.8769 C.3     
  25 C25            3.7360    11.3360     2.1531 C.3     
  26 N26            3.6824    11.0535     0.7047 N.am    
  27 C27            5.1392    11.1195     2.6583 C.2     
  28 N28            5.5285    11.6722     3.8242 N.am    
  29 O29            5.9182    10.4478     2.0157 O.2     
  30 C30            2.8553    11.8390    -0.0379 C.2     
  31 O31            2.2123    12.7228     0.4878 O.2     
  32 C32            2.7490    11.5969    -1.5215 C.3     
  33 N33            1.5338    12.2780    -2.0241 N.am    
  34 C34            3.9839    12.1643    -2.2244 C.3     
  35 C35            0.4801    11.4575    -2.3127 C.2     
  36 O36            0.5718    10.2577    -2.1612 O.2     
  37 C37           -0.7983    12.0716    -2.8224 C.3     
  38 N38           -1.9247    11.1800    -2.4816 N.am    
  39 C39           -1.0085    13.4372    -2.1653 C.3     
  40 C40           -3.0285    11.7703    -1.9462 C.2     
  41 O41           -3.0575    12.9689    -1.7633 O.2     
  42 C42           -4.2138    10.9129    -1.5844 C.3     
  43 C43            3.9337    11.8134    -3.6891 C.2     
  44 C44            3.2341    12.5567    -4.7398 C.ar    
  45 C45            3.4702    11.8547    -5.9357 C.ar    
  46 N46            4.2557    10.7685    -5.6208 N.pl3   
  47 C47            4.5264    10.7635    -4.2795 C.2     
  48 C48            2.4574    13.7170    -4.7547 C.ar    
  49 C49            1.9301    14.1650    -5.9328 C.ar    
  50 C50            2.1598    13.4755    -7.1157 C.ar    
  51 C51            2.9237    12.3292    -7.1238 C.ar    
  52 N52           -4.7978    11.4191    -0.3213 N.am    
  53 C53           -3.7607     9.4638    -1.3959 C.3     
  54 C54           -4.9590     8.5958    -1.1102 C.ar    
  55 C55           -5.9866     8.5181    -2.0269 C.ar    
  56 C56           -7.0961     7.7130    -1.7606 C.ar    
  57 C57           -7.1569     6.9917    -0.5668 C.ar    
  58 C58           -6.1219     7.0787     0.3414 C.ar    
  59 C59           -5.0233     7.8741     0.0688 C.ar    
  60 C60           -4.5020    10.3795     4.3618 C.2     
  61 N61           -3.9866    10.8625     3.1980 N.am    
  62 O62           -5.7001    10.2483     4.4962 O.2     
  63 C63           -4.9557    11.2079     2.1389 C.3     
  64 C64           -5.1772    12.7217     2.1206 C.3     
  65 C65           -4.4029    10.7623     0.8097 C.2     
  66 C66           -5.8386    13.1563     3.4301 C.3     
  67 N67           -6.0513    14.6097     3.4125 N.3     
  68 O68           -3.6217     9.8369     0.7452 O.2     
  69 C69           -1.0164    13.2753    -0.6439 C.3     
  70 C70           -1.3734    14.6120     0.0094 C.3     
  71 N71           -1.3809    14.4570     1.4661 N.pl3   
  72 C72           -1.6769    15.5321     2.2703 C.2     
  73 N73           -1.6840    15.3866     3.6374 N.pl3   
  74 N74           -1.9508    16.6893     1.7367 N.2     
  75 C75           -8.1669     7.6279    -2.7076 C.1     
  76 N76           -9.0164     7.5604    -3.4589 N.1     
  77 H77           -1.0118     5.3699     9.3929 H       
  78 H78           -2.4616     4.3381     9.3509 H       
  79 H79           -0.9940     3.8471     8.4716 H       
  80 H80           -0.2552     5.8736     6.8559 H       
  81 H81           -0.8253     7.0333     4.9280 H       
  82 H82           -3.3191     5.3030     5.2375 H       
  83 H83           -2.9406     6.2820     3.7998 H       
  84 H84           -0.8201     5.0307     3.5061 H       
  85 H85           -1.1986     4.0518     4.9437 H       
  86 H86           -3.2629     3.2315     3.8417 H       
  87 H87           -2.8844     4.2105     2.4041 H       
  88 H88           -0.6641     2.5575     2.9649 H       
  89 H89           -0.3973     0.5695     1.6814 H       
  90 H90           -1.7156    -0.0967     0.8807 H       
  91 H91           -3.7814     0.9453     1.0464 H       
  92 H92           -2.3460     8.8493     4.1833 H       
  93 H93           -4.1388     9.7414     6.3658 H       
  94 H94           -2.2623    11.6175     4.8758 H       
  95 H95           -3.2359    11.9644     6.3248 H       
  96 H96           -1.1660    11.5715     7.3106 H       
  97 H97           -1.8367     9.9229     7.3283 H       
  98 H98            1.0970    11.2710     6.8696 H       
  99 H99            2.9101    10.1104     5.7749 H       
 100 H100           1.6930     9.1753     4.8678 H       
 101 H101           1.1328    11.4781     3.7389 H       
 102 H102           2.7354    11.9705     4.3372 H       
 103 H103           3.3341     9.5295     3.2557 H       
 104 H104           2.0117    10.0450     2.1818 H       
 105 H105           3.4352    12.3677     2.3354 H       
 106 H106           4.2091    10.3447     0.3033 H       
 107 H107           4.9055    12.2094     4.3382 H       
 108 H108           6.4317    11.5328     4.1494 H       
 109 H109           2.6746    10.5265    -1.7134 H       
 110 H110           1.4890    13.2399    -2.1407 H       
 111 H111           4.0007    13.2482    -2.1109 H       
 112 H112           4.8831    11.7383    -1.7794 H       
 113 H113          -0.7405    12.1899    -3.9044 H       
 114 H114          -1.8805    10.2226    -2.6313 H       
 115 H115          -0.1999    14.1082    -2.4551 H       
 116 H116          -1.9613    13.8544    -2.4912 H       
 117 H117          -4.9588    10.9652    -2.3784 H       
 118 H118           4.5730    10.1075    -6.2558 H       
 119 H119           5.1222    10.0207    -3.7700 H       
 120 H120           2.2739    14.2581    -3.8383 H       
 121 H121           1.3294    15.0625    -5.9439 H       
 122 H122           1.7359    13.8419    -8.0390 H       
 123 H123           3.0969    11.8001    -8.0493 H       
 124 H124          -5.4172    12.1651    -0.2985 H       
 125 H125          -3.2684     9.1160    -2.3041 H       
 126 H126          -3.0633     9.4070    -0.5601 H       
 127 H127          -5.9335     9.0790    -2.9483 H       
 128 H128          -8.0122     6.3674    -0.3545 H       
 129 H129          -6.1677     6.5216     1.2654 H       
 130 H130          -4.2159     7.9386     0.7832 H       
 131 H131          -3.0314    10.9743     3.0712 H       
 132 H132          -5.9022    10.7026     2.3310 H       
 133 H133          -4.2180    13.2280     2.0125 H       
 134 H134          -5.8231    12.9843     1.2827 H       
 135 H135          -6.7978    12.6500     3.5381 H       
 136 H136          -5.1927    12.8937     4.2679 H       
 137 H137          -6.5939    14.8860     2.6079 H       
 138 H138          -6.4873    14.9217     4.2672 H       
 139 H139          -1.7548    12.5246    -0.3622 H       
 140 H140          -0.0294    12.9584    -0.3071 H       
 141 H141          -0.6350    15.3627    -0.2723 H       
 142 H142          -2.3604    14.9289    -0.3274 H       
 143 H143          -1.1771    13.5958     1.8633 H       
 144 H144          -1.4802    14.5255     4.0346 H       
 145 H145          -1.8928    16.1452     4.2048 H       
 146 H146          -2.1596    17.4478     2.3040 H       
@<TRIPOS>BOND
   1    1    2 1
   2    1    3 am
   3    1    4 2
   4    2   77 1
   5    2   78 1
   6    2   79 1
   7    3    5 1
   8    3   80 1
   9    5    6 1
  10    5    7 1
  11    5   81 1
  12    6    8 1
  13    6   82 1
  14    6   83 1
  15    7   14 2
  16    7   15 am
  17    8    9 1
  18    8   84 1
  19    8   85 1
  20    9   10 1
  21    9   86 1
  22    9   87 1
  23   10   11 1
  24   10   88 1
  25   11   12 1
  26   11   13 2
  27   12   89 1
  28   12   90 1
  29   13   91 1
  30   15   16 1
  31   15   92 1
  32   16   17 1
  33   16   60 1
  34   16   93 1
  35   17   18 1
  36   17   94 1
  37   17   95 1
  38   18   19 1
  39   18   96 1
  40   18   97 1
  41   19   20 2
  42   19   21 am
  43   21   22 1
  44   21   98 1
  45   22   23 1
  46   22   99 1
  47   22  100 1
  48   23   24 1
  49   23  101 1
  50   23  102 1
  51   24   25 1
  52   24  103 1
  53   24  104 1
  54   25   26 1
  55   25   27 1
  56   25  105 1
  57   26   30 am
  58   26  106 1
  59   27   28 am
  60   27   29 2
  61   28  107 1
  62   28  108 1
  63   30   31 2
  64   30   32 1
  65   32   33 1
  66   32   34 1
  67   32  109 1
  68   33   35 am
  69   33  110 1
  70   34   43 1
  71   34  111 1
  72   34  112 1
  73   35   36 2
  74   35   37 1
  75   37   38 1
  76   37   39 1
  77   37  113 1
  78   38   40 am
  79   38  114 1
  80   39   69 1
  81   39  115 1
  82   39  116 1
  83   40   41 2
  84   40   42 1
  85   42   52 1
  86   42   53 1
  87   42  117 1
  88   43   44 1
  89   43   47 2
  90   44   45 ar
  91   44   48 ar
  92   45   46 1
  93   45   51 ar
  94   46   47 1
  95   46  118 1
  96   47  119 1
  97   48   49 ar
  98   48  120 1
  99   49   50 ar
 100   49  121 1
 101   50   51 ar
 102   50  122 1
 103   51  123 1
 104   52   65 am
 105   52  124 1
 106   53   54 1
 107   53  125 1
 108   53  126 1
 109   54   55 ar
 110   54   59 ar
 111   55   56 ar
 112   55  127 1
 113   56   57 ar
 114   56   75 1
 115   57   58 ar
 116   57  128 1
 117   58   59 ar
 118   58  129 1
 119   59  130 1
 120   60   61 am
 121   60   62 2
 122   61   63 1
 123   61  131 1
 124   63   64 1
 125   63   65 1
 126   63  132 1
 127   64   66 1
 128   64  133 1
 129   64  134 1
 130   65   68 2
 131   66   67 1
 132   66  135 1
 133   66  136 1
 134   67  137 1
 135   67  138 1
 136   69   70 1
 137   69  139 1
 138   69  140 1
 139   70   71 1
 140   70  141 1
 141   70  142 1
 142   71   72 1
 143   71  143 1
 144   72   73 1
 145   72   74 2
 146   73  144 1
 147   73  145 1
 148   74  146 1
 149   75   76 3

#	End of record

