#	Name: ASD08151060
#	Creating user name:	WinNT
#	Creation time:	15. 06. 2019 21:17

#	Modifying user name:	WinNT
#	Modification time:	15. 06. 2019 21:17

#	Program:	/corina/corina34_cracker 3.40 0067  02.08.2006

@<TRIPOS>MOLECULE
ASD08151060
  31   33    0    0    0
SMALL
NO_CHARGES


@<TRIPOS>ATOM
   1 N1            -0.0153     1.2808     0.0091 N.ar    
   2 N2             0.0021    -0.0041     0.0020 N.ar    
   3 C3             1.1206    -0.7154    -0.0125 C.ar    
   4 C4             2.3406    -0.0983    -0.0203 C.ar    
   5 C5             2.3573     1.3091    -0.0129 C.ar    
   6 C6             3.5552     2.0405    -0.0204 C.ar    
   7 C7             3.5181     3.4044    -0.0133 C.ar    
   8 C8             2.3082     4.0891     0.0014 C.ar    
   9 C9             1.1054     3.4050     0.0097 C.ar    
  10 C10            1.1136     1.9902     0.0021 C.ar    
  11 C11           -0.1772     4.1461     0.0253 C.ar    
  12 C12           -1.0485     4.0599    -1.0601 C.ar    
  13 C13           -2.2437     4.7533    -1.0391 C.ar    
  14 C14           -2.5754     5.5328     0.0576 C.ar    
  15 C15           -1.7139     5.6207     1.1358 C.ar    
  16 C16           -0.5203     4.9279     1.1279 C.ar    
  17 F17           -3.0896     4.6715    -2.0894 F       
  18 Cl18           5.0805     1.2117    -0.0382 Cl      
  19 C19            2.3065     5.5960     0.0089 C.3     
  20 N20            2.0789     6.0773     1.3738 N.2     
  21 N21            2.8492     6.7218     1.8783 N.1     
  22 N22            3.6196     7.3663     2.3828 N.pl3   
  23 H23            1.0676    -1.7941    -0.0178 H       
  24 H24            3.2572    -0.6694    -0.0314 H       
  25 H25            4.4436     3.9611    -0.0187 H       
  26 H26           -0.7897     3.4529    -1.9151 H       
  27 H27           -3.5100     6.0739     0.0702 H       
  28 H28           -1.9775     6.2300     1.9876 H       
  29 H29            0.1490     4.9943     1.9729 H       
  30 H30            3.2685     5.9622    -0.3497 H       
  31 H31            1.5128     5.9618    -0.6424 H       
@<TRIPOS>BOND
   1    1    2 ar
   2    1   10 ar
   3    2    3 ar
   4    3    4 ar
   5    3   23 1
   6    4    5 ar
   7    4   24 1
   8    5    6 ar
   9    5   10 ar
  10    6    7 ar
  11    6   18 1
  12    7    8 ar
  13    7   25 1
  14    8    9 ar
  15    8   19 1
  16    9   10 ar
  17    9   11 1
  18   11   12 ar
  19   11   16 ar
  20   12   13 ar
  21   12   26 1
  22   13   14 ar
  23   13   17 1
  24   14   15 ar
  25   14   27 1
  26   15   16 ar
  27   15   28 1
  28   16   29 1
  29   19   20 1
  30   19   30 1
  31   19   31 1
  32   20   21 2
  33   21   22 2

#	End of record

