#	Name: ASD01880295
#	Creating user name:	WinNT
#	Creation time:	15. 06. 2019 19:40

#	Modifying user name:	WinNT
#	Modification time:	15. 06. 2019 19:40

#	Program:	/corina/corina34_cracker 3.40 0067  02.08.2006

@<TRIPOS>MOLECULE
ASD01880295
  43   45    0    0    0
SMALL
NO_CHARGES


@<TRIPOS>ATOM
   1 C1            -0.0164     1.3576     0.0095 C.2     
   2 C2             0.0021    -0.0041     0.0020 C.2     
   3 N3            -1.1556    -0.7133     0.0093 N.am    
   4 C4            -2.3508    -0.0958     0.0245 C.2     
   5 C5            -2.4258     1.3025     0.0327 C.2     
   6 C6            -1.2595     2.0406     0.0310 C.2     
   7 O7            -3.3763    -0.7587     0.0307 O.2     
   8 C8            -1.1024    -2.1773    -0.0001 C.3     
   9 C9            -1.0700    -2.6879     1.4174 C.ar    
  10 C10           -2.2415    -2.7697     2.1507 C.ar    
  11 C11           -2.2108    -3.2389     3.4530 C.ar    
  12 C12           -1.0100    -3.6253     4.0198 C.ar    
  13 C13            0.1600    -3.5429     3.2854 C.ar    
  14 C14            0.1285    -3.0799     1.9836 C.ar    
  15 Cl15          -0.9703    -4.2132     5.6527 Cl      
  16 F16           -3.4138    -2.3914     1.5960 F       
  17 C17            1.2554     2.1217     0.0015 C.ar    
  18 O18           -1.3013     3.3941     0.0392 O.3     
  19 C19           -2.5939     4.0032     0.0496 C.3     
  20 C20            2.1060     2.0502    -1.1003 C.ar    
  21 C21            3.2877     2.7616    -1.1048 C.ar    
  22 C22            3.6300     3.5482    -0.0135 C.ar    
  23 C23            2.7852     3.6211     1.0854 C.ar    
  24 C24            1.5992     2.9168     1.0932 C.ar    
  25 O25            4.7950     4.2481    -0.0209 O.3     
  26 C26            5.0851     5.0372     1.1347 C.3     
  27 H27            0.9478    -0.5254    -0.0102 H       
  28 H28           -3.3855     1.7978     0.0445 H       
  29 H29           -1.9837    -2.5697    -0.5075 H       
  30 H30           -0.2050    -2.5049    -0.5249 H       
  31 H31           -3.1240    -3.3027     4.0260 H       
  32 H32            1.0976    -3.8448     3.7283 H       
  33 H33            1.0422    -3.0159     1.4113 H       
  34 H34           -3.1463     3.6986    -0.8393 H       
  35 H35           -3.1369     3.6880     0.9406 H       
  36 H36           -2.4845     5.0877     0.0555 H       
  37 H37            1.8403     1.4381    -1.9495 H       
  38 H38            3.9474     2.7064    -1.9581 H       
  39 H39            3.0544     4.2336     1.9332 H       
  40 H40            0.9421     2.9742     1.9484 H       
  41 H41            4.2988     5.7789     1.2749 H       
  42 H42            5.1366     4.3920     2.0117 H       
  43 H43            6.0412     5.5426     0.9988 H       
@<TRIPOS>BOND
   1    1    2 2
   2    1   17 1
   3    1    6 1
   4    2    3 1
   5    2   27 1
   6    3    4 am
   7    3    8 1
   8    4    5 1
   9    4    7 2
  10    5    6 2
  11    5   28 1
  12    6   18 1
  13    8    9 1
  14    8   29 1
  15    8   30 1
  16    9   10 ar
  17    9   14 ar
  18   10   11 ar
  19   10   16 1
  20   11   12 ar
  21   11   31 1
  22   12   13 ar
  23   12   15 1
  24   13   14 ar
  25   13   32 1
  26   14   33 1
  27   17   20 ar
  28   17   24 ar
  29   18   19 1
  30   19   34 1
  31   19   35 1
  32   19   36 1
  33   20   21 ar
  34   20   37 1
  35   21   22 ar
  36   21   38 1
  37   22   23 ar
  38   22   25 1
  39   23   24 ar
  40   23   39 1
  41   24   40 1
  42   25   26 1
  43   26   41 1
  44   26   42 1
  45   26   43 1

#	End of record

