#	Name: ASD01917792
#	Creating user name:	WinNT
#	Creation time:	15. 06. 2019 20:10

#	Modifying user name:	WinNT
#	Modification time:	15. 06. 2019 20:10

#	Program:	/corina/corina34_cracker 3.40 0067  02.08.2006

@<TRIPOS>MOLECULE
ASD01917792
  45   48    0    0    0
SMALL
NO_CHARGES


@<TRIPOS>ATOM
   1 C1             0.0235     1.2352    -0.1575 C.2     
   2 C2            -0.0101    -0.1110    -0.1320 C.2     
   3 C3            -1.2708    -0.9333    -0.0450 C.3     
   4 C4            -2.4123    -0.0386     0.4541 C.3     
   5 N5            -2.3760     1.2395    -0.2724 N.am    
   6 C6            -1.2020     2.1129    -0.0921 C.3     
   7 C7            -3.3897     1.6029    -1.0828 C.2     
   8 O8            -4.2896     0.8210    -1.3182 O.2     
   9 C9            -3.4069     2.9559    -1.6865 C.ar    
  10 O10            1.3084     1.6037    -0.2426 O.3     
  11 C11            2.0494     0.4845    -0.2650 C.2     
  12 N12            1.2545    -0.5483    -0.1979 N.2     
  13 C13            3.5528     0.4298    -0.3536 C.3     
  14 O14            3.9478     0.3869    -1.7263 O.3     
  15 C15            5.2813     0.3345    -1.9832 C.ar    
  16 C16            5.7352     0.2909    -3.2934 C.ar    
  17 C17            7.0912     0.2377    -3.5520 C.ar    
  18 C18            7.9957     0.2279    -2.5063 C.ar    
  19 C19            7.5458     0.2709    -1.1996 C.ar    
  20 C20            6.1910     0.3304    -0.9359 C.ar    
  21 C21           -4.3657     3.2717    -2.6460 C.ar    
  22 C22           -4.3696     4.5418    -3.2015 C.ar    
  23 C23           -3.4139     5.4516    -2.7777 C.ar    
  24 C24           -2.4895     5.0686    -1.8185 C.ar    
  25 N25           -2.5118     3.8586    -1.3044 N.ar    
  26 C26           -1.4484     6.0544    -1.3544 C.3     
  27 H27           -1.5192    -1.3264    -1.0309 H       
  28 H28           -1.1216    -1.7579     0.6521 H       
  29 H29           -3.3673    -0.5326     0.2749 H       
  30 H30           -2.2908     0.1455     1.5215 H       
  31 H31           -1.2527     2.6069     0.8782 H       
  32 H32           -1.1681     2.8576    -0.8872 H       
  33 H33            3.9771     1.3156     0.1190 H       
  34 H34            3.9146    -0.4629     0.1566 H       
  35 H35            5.0291     0.2981    -4.1106 H       
  36 H36            7.4451     0.2033    -4.5718 H       
  37 H37            9.0554     0.1863    -2.7105 H       
  38 H38            8.2543     0.2625    -0.3845 H       
  39 H39            5.8401     0.3640     0.0850 H       
  40 H40           -5.0957     2.5374    -2.9531 H       
  41 H41           -5.1004     4.8160    -3.9479 H       
  42 H42           -3.3895     6.4491    -3.1909 H       
  43 H43           -1.8326     6.6141    -0.5017 H       
  44 H44           -0.5460     5.5183    -1.0603 H       
  45 H45           -1.2135     6.7436    -2.1655 H       
@<TRIPOS>BOND
   1    1    2 2
   2    1   10 1
   3    1    6 1
   4    2    3 1
   5    2   12 1
   6    3    4 1
   7    3   27 1
   8    3   28 1
   9    4    5 1
  10    4   29 1
  11    4   30 1
  12    5    6 1
  13    5    7 am
  14    6   31 1
  15    6   32 1
  16    7    8 2
  17    7    9 1
  18    9   21 ar
  19    9   25 ar
  20   10   11 1
  21   11   12 2
  22   11   13 1
  23   13   14 1
  24   13   33 1
  25   13   34 1
  26   14   15 1
  27   15   16 ar
  28   15   20 ar
  29   16   17 ar
  30   16   35 1
  31   17   18 ar
  32   17   36 1
  33   18   19 ar
  34   18   37 1
  35   19   20 ar
  36   19   38 1
  37   20   39 1
  38   21   22 ar
  39   21   40 1
  40   22   23 ar
  41   22   41 1
  42   23   24 ar
  43   23   42 1
  44   24   25 ar
  45   24   26 1
  46   26   43 1
  47   26   44 1
  48   26   45 1

#	End of record

