#	Name: ASD01028228
#	Creating user name:	WinNT
#	Creation time:	15. 06. 2019 18:56

#	Modifying user name:	WinNT
#	Modification time:	15. 06. 2019 18:56

#	Program:	/corina/corina34_cracker 3.40 0067  02.08.2006

@<TRIPOS>MOLECULE
ASD01028228
  51   55    0    0    0
SMALL
NO_CHARGES


@<TRIPOS>ATOM
   1 C1            -0.0165     1.3658     0.0096 C.ar    
   2 C2             0.0021    -0.0041     0.0020 C.ar    
   3 C3             1.1871     2.0786     0.0019 C.ar    
   4 N4             2.3453     1.4655    -0.0129 N.ar    
   5 C5             2.4265     0.1343    -0.0208 C.ar    
   6 C6             1.2509    -0.6527    -0.0134 C.ar    
   7 C7             3.6823    -0.5215    -0.0362 C.ar    
   8 C8             3.6925    -1.9066    -0.0433 C.ar    
   9 C9             2.4925    -2.6050    -0.0352 C.ar    
  10 N10            1.3341    -1.9873    -0.0204 N.ar    
  11 N11            4.8661     0.2018    -0.0444 N.pl3   
  12 C12            6.1526    -0.4989    -0.0603 C.3     
  13 C13            7.2733     0.5086    -0.0666 C.2     
  14 N14            7.8802     1.0394     1.0243 N.pl3   
  15 C15            8.8349     1.9040     0.5420 C.2     
  16 N16            8.7624     1.8567    -0.7778 N.2     
  17 N17            7.8424     1.0267    -1.1264 N.2     
  18 N18            7.7162     0.8738     2.4009 N.2     
  19 C19            8.4711     1.5414     3.2476 C.2     
  20 C20            9.4600     2.4366     2.7826 C.2     
  21 C21            9.6423     2.6175     1.4484 C.2     
  22 O22           -1.2013     2.0306     0.0188 O.3     
  23 C23           -1.1440     3.4584     0.0263 C.3     
  24 C24            8.2816     1.3526     4.7020 C.2     
  25 C25            7.3750     0.5302     5.3097 C.2     
  26 C26            7.6140     0.7273     6.6955 C.2     
  27 N27            8.5875     1.6011     6.7802 N.2     
  28 O28            8.9711     1.9518     5.6889 O.3     
  29 C29            6.9036     0.0756     7.8217 C.2     
  30 O30            6.0140    -0.7200     7.5993 O.2     
  31 O31            7.2450     0.3662     9.0914 O.3     
  32 C32            6.5070    -0.3094    10.1436 C.3     
  33 C33            7.0319     0.1446    11.5071 C.3     
  34 H34           -0.9171    -0.5710     0.0081 H       
  35 H35            1.1613     3.1582     0.0079 H       
  36 H36            4.6307    -2.4414    -0.0554 H       
  37 H37            2.5125    -3.6848    -0.0412 H       
  38 H38            4.8421     1.1715    -0.0396 H       
  39 H39            6.2346    -1.1281     0.8259 H       
  40 H40            6.2171    -1.1197    -0.9539 H       
  41 H41           10.0720     2.9780     3.4887 H       
  42 H42           10.3970     3.3007     1.0875 H       
  43 H43           -0.6118     3.7960     0.9156 H       
  44 H44           -0.6203     3.8057    -0.8643 H       
  45 H45           -2.1563     3.8626     0.0332 H       
  46 H46            6.6470    -0.1181     4.8447 H       
  47 H47            5.4485    -0.0625    10.0611 H       
  48 H48            6.6374    -1.3871    10.0445 H       
  49 H49            6.9014     1.2222    11.6062 H       
  50 H50            6.4778    -0.3626    12.2970 H       
  51 H51            8.0903    -0.1024    11.5896 H       
@<TRIPOS>BOND
   1    1    2 ar
   2    1    3 ar
   3    1   22 1
   4    2    6 ar
   5    2   34 1
   6    3    4 ar
   7    3   35 1
   8    4    5 ar
   9    5    6 ar
  10    5    7 ar
  11    6   10 ar
  12    7    8 ar
  13    7   11 1
  14    8    9 ar
  15    8   36 1
  16    9   10 ar
  17    9   37 1
  18   11   12 1
  19   11   38 1
  20   12   13 1
  21   12   39 1
  22   12   40 1
  23   13   14 1
  24   13   17 2
  25   14   15 1
  26   14   18 1
  27   15   16 2
  28   15   21 1
  29   16   17 1
  30   18   19 2
  31   19   20 1
  32   19   24 1
  33   20   21 2
  34   20   41 1
  35   21   42 1
  36   22   23 1
  37   23   43 1
  38   23   44 1
  39   23   45 1
  40   24   25 2
  41   24   28 1
  42   25   26 1
  43   25   46 1
  44   26   27 2
  45   26   29 1
  46   27   28 1
  47   29   30 2
  48   29   31 1
  49   31   32 1
  50   32   33 1
  51   32   47 1
  52   32   48 1
  53   33   49 1
  54   33   50 1
  55   33   51 1

#	End of record

