#	Name: ASD01680071
#	Creating user name:	WinNT
#	Creation time:	15. 06. 2019 19:22

#	Modifying user name:	WinNT
#	Modification time:	15. 06. 2019 19:22

#	Program:	/corina/corina34_cracker 3.40 0067  02.08.2006

@<TRIPOS>MOLECULE
ASD01680071
  71   74    0    0    0
SMALL
NO_CHARGES


@<TRIPOS>ATOM
   1 N1            -0.1507     0.8754     0.1949 N.am    
   2 C2             0.0651    -0.5789     0.0861 C.3     
   3 C3             1.5126    -0.8037     0.5900 C.3     
   4 C4             2.2340     0.4533     0.0361 C.3     
   5 C5             1.1547     1.5503     0.1518 C.3     
   6 C6            -1.3470     1.4856     0.3090 C.2     
   7 O7            -2.3704     0.8338     0.2424 O.2     
   8 O8            -1.4082     2.8174     0.4969 O.3     
   9 C9            -0.9299    -1.3325     0.9711 C.3     
  10 N10           -0.8334    -0.8365     2.3462 N.pl3   
  11 C11           -1.7130    -1.3025     3.3164 C.ar    
  12 C12           -2.6827    -2.2400     2.9748 C.ar    
  13 C13           -3.5513    -2.6951     3.9500 C.ar    
  14 C14           -3.4208    -2.1955     5.2393 C.ar    
  15 C15           -2.4358    -1.2667     5.5080 C.ar    
  16 N16           -1.6172    -0.8544     4.5585 N.ar    
  17 O17            3.3721     0.7772     0.8373 O.3     
  18 C18            4.4298     1.4110     0.1152 C.3     
  19 C19            5.5720     1.7058     1.0530 C.2     
  20 N20            6.6864     2.3060     0.5900 N.am    
  21 O21            5.4885     1.4030     2.2244 O.2     
  22 C22            7.8389     2.4937     1.4747 C.3     
  23 C23            9.0999     2.6993     0.6331 C.3     
  24 C24            7.6126     3.7034     2.3445 C.ar    
  25 C25            7.9874     3.6781     3.6748 C.ar    
  26 C26            7.7798     4.7877     4.4727 C.ar    
  27 C27            7.1979     5.9228     3.9400 C.ar    
  28 C28            6.8240     5.9485     2.6094 C.ar    
  29 C29            7.0355     4.8404     1.8105 C.ar    
  30 C30            9.3797     1.4524    -0.1656 C.2     
  31 O31            8.5988     0.5307    -0.1399 O.2     
  32 O32           10.4963     1.3656    -0.9054 O.3     
  33 C33           -2.7302     3.4069     0.6112 C.3     
  34 C34           -2.6009     4.8943     0.8162 C.ar    
  35 C35           -2.5701     5.7424    -0.2750 C.ar    
  36 C36           -2.4515     7.1067    -0.0869 C.ar    
  37 C37           -2.3641     7.6230     1.1924 C.ar    
  38 C38           -2.3958     6.7751     2.2837 C.ar    
  39 C39           -2.5188     5.4111     2.0957 C.ar    
  40 H40           -0.0297    -0.8999    -0.9512 H       
  41 H41            1.5481    -0.8264     1.6791 H       
  42 H42            1.9361    -1.7151     0.1677 H       
  43 H43            2.5231     0.3050    -1.0043 H       
  44 H44            1.2025     2.2101    -0.7145 H       
  45 H45            1.3058     2.1240     1.0662 H       
  46 H46           -1.9414    -1.1733     0.5975 H       
  47 H47           -0.6989    -2.3976     0.9519 H       
  48 H48           -0.1558    -0.1829     2.5796 H       
  49 H49           -2.7563    -2.6071     1.9617 H       
  50 H50           -4.3142    -3.4223     3.7143 H       
  51 H51           -4.0835    -2.5301     6.0236 H       
  52 H52           -2.3308    -0.8757     6.5092 H       
  53 H53            4.7740     0.7497    -0.6800 H       
  54 H54            4.0663     2.3425    -0.3187 H       
  55 H55            6.7254     2.6136    -0.3291 H       
  56 H56            7.9616     1.6119     2.1036 H       
  57 H57            8.9510     3.5395    -0.0453 H       
  58 H58            9.9448     2.9077     1.2894 H       
  59 H59            8.4420     2.7912     4.0910 H       
  60 H60            8.0720     4.7676     5.5122 H       
  61 H61            7.0351     6.7895     4.5635 H       
  62 H62            6.3691     6.8353     2.1934 H       
  63 H63            6.7468     4.8618     0.7701 H       
  64 H64           10.6324     0.5462    -1.4004 H       
  65 H65           -3.2944     3.2136    -0.3012 H       
  66 H66           -3.2520     2.9670     1.4611 H       
  67 H67           -2.6384     5.3390    -1.2745 H       
  68 H68           -2.4267     7.7692    -0.9395 H       
  69 H69           -2.2707     8.6889     1.3393 H       
  70 H70           -2.3272     7.1784     3.2832 H       
  71 H71           -2.5473     4.7489     2.9484 H       
@<TRIPOS>BOND
   1    1    2 1
   2    1    5 1
   3    1    6 am
   4    2    3 1
   5    2    9 1
   6    2   40 1
   7    3    4 1
   8    3   41 1
   9    3   42 1
  10    4    5 1
  11    4   17 1
  12    4   43 1
  13    5   44 1
  14    5   45 1
  15    6    7 2
  16    6    8 1
  17    8   33 1
  18    9   10 1
  19    9   46 1
  20    9   47 1
  21   10   11 1
  22   10   48 1
  23   11   12 ar
  24   11   16 ar
  25   12   13 ar
  26   12   49 1
  27   13   14 ar
  28   13   50 1
  29   14   15 ar
  30   14   51 1
  31   15   16 ar
  32   15   52 1
  33   17   18 1
  34   18   19 1
  35   18   53 1
  36   18   54 1
  37   19   20 am
  38   19   21 2
  39   20   22 1
  40   20   55 1
  41   22   23 1
  42   22   24 1
  43   22   56 1
  44   23   30 1
  45   23   57 1
  46   23   58 1
  47   24   25 ar
  48   24   29 ar
  49   25   26 ar
  50   25   59 1
  51   26   27 ar
  52   26   60 1
  53   27   28 ar
  54   27   61 1
  55   28   29 ar
  56   28   62 1
  57   29   63 1
  58   30   31 2
  59   30   32 1
  60   32   64 1
  61   33   34 1
  62   33   65 1
  63   33   66 1
  64   34   35 ar
  65   34   39 ar
  66   35   36 ar
  67   35   67 1
  68   36   37 ar
  69   36   68 1
  70   37   38 ar
  71   37   69 1
  72   38   39 ar
  73   38   70 1
  74   39   71 1

#	End of record

