#	Name: ASD01350026
#	Creating user name:	WinNT
#	Creation time:	15. 06. 2019 19:16

#	Modifying user name:	WinNT
#	Modification time:	15. 06. 2019 19:16

#	Program:	/corina/corina34_cracker 3.40 0067  02.08.2006

@<TRIPOS>MOLECULE
ASD01350026
  62   65    0    0    0
SMALL
NO_CHARGES


@<TRIPOS>ATOM
   1 C1            -0.0168     1.3848     0.0097 C.ar    
   2 C2             0.0021    -0.0041     0.0020 C.ar    
   3 N3            -1.1977    -0.7205     0.0092 N.pl3   
   4 C4            -2.4770    -0.0067     0.0247 C.3     
   5 C5            -2.9286     0.2457    -1.3907 C.ar    
   6 C6            -3.7191    -0.6840    -2.0401 C.ar    
   7 C7             1.1705     2.0902     0.0021 C.ar    
   8 C8             2.3782     1.4147    -0.0135 C.ar    
   9 C9             2.3999     0.0311    -0.0211 C.ar    
  10 C10            1.2157    -0.6795    -0.0132 C.ar    
  11 C11           -2.5572     1.4095    -2.0376 C.ar    
  12 C12           -2.9715     1.6410    -3.3359 C.ar    
  13 C13           -3.7569     0.7085    -3.9875 C.ar    
  14 C14           -4.1334    -0.4525    -3.3384 C.ar    
  15 C15           -1.1763    -2.1853     0.0011 C.3     
  16 C16           -1.1556    -2.7030     1.4407 C.3     
  17 C17           -1.1332    -4.2328     1.4323 C.3     
  18 N18           -1.1134    -4.7298     2.8145 N.3     
  19 C19           -1.3298    -6.1817     2.8548 C.3     
  20 C20           -1.4480    -6.6410     4.3098 C.3     
  21 C21           -0.1644    -6.2764     5.0609 C.3     
  22 C22            0.0635    -4.7655     4.9625 C.3     
  23 C23            0.1379    -4.3606     3.4886 C.3     
  24 C24           -0.2983    -6.6724     6.5087 C.ar    
  25 O25            0.9428    -6.9654     4.4766 O.3     
  26 C26            0.8224    -7.0346     7.2325 C.ar    
  27 C27            0.7001    -7.3979     8.5604 C.ar    
  28 C28           -0.5441    -7.3989     9.1654 C.ar    
  29 C29           -1.6654    -7.0362     8.4405 C.ar    
  30 C30           -1.5411    -6.6677     7.1142 C.ar    
  31 Cl31          -0.6985    -7.8555    10.8331 Cl      
  32 Cl32           3.8686     2.3047    -0.0241 Cl      
  33 H33           -0.9590     1.9125     0.0170 H       
  34 H34           -3.2232    -0.6096     0.5422 H       
  35 H35           -2.3559     0.9448     0.5426 H       
  36 H36           -4.0127    -1.5913    -1.5333 H       
  37 H37            1.1565     3.1701     0.0080 H       
  38 H38            3.3438    -0.4936    -0.0333 H       
  39 H39            1.2332    -1.7593    -0.0192 H       
  40 H40           -1.9435     2.1380    -1.5285 H       
  41 H41           -2.6818     2.5506    -3.8411 H       
  42 H42           -4.0809     0.8896    -5.0017 H       
  43 H43           -4.7470    -1.1810    -3.8475 H       
  44 H44           -2.0655    -2.5589    -0.5066 H       
  45 H45           -0.2858    -2.5327    -0.5228 H       
  46 H46           -0.2664    -2.3294     1.9484 H       
  47 H47           -2.0461    -2.3555     1.9646 H       
  48 H48           -2.0225    -4.6064     0.9246 H       
  49 H49           -0.2428    -4.5802     0.9084 H       
  50 H50           -2.2478    -6.4270     2.3208 H       
  51 H51           -0.4883    -6.6876     2.3815 H       
  52 H52           -2.2977    -6.1459     4.7798 H       
  53 H53           -1.5930    -7.7209     4.3399 H       
  54 H54           -0.7624    -4.2409     5.4428 H       
  55 H55            0.9984    -4.5054     5.4590 H       
  56 H56            0.9725    -4.8750     3.0123 H       
  57 H57            0.2858    -3.2832     3.4149 H       
  58 H58            1.7906    -6.7808     4.9036 H       
  59 H59            1.7936    -7.0342     6.7601 H       
  60 H60            1.5757    -7.6812     9.1257 H       
  61 H61           -2.6369    -7.0368     8.9122 H       
  62 H62           -2.4163    -6.3846     6.5482 H       
@<TRIPOS>BOND
   1    1    2 ar
   2    1    7 ar
   3    1   33 1
   4    2    3 1
   5    2   10 ar
   6    3    4 1
   7    3   15 1
   8    4    5 1
   9    4   34 1
  10    4   35 1
  11    5    6 ar
  12    5   11 ar
  13    6   14 ar
  14    6   36 1
  15    7    8 ar
  16    7   37 1
  17    8    9 ar
  18    8   32 1
  19    9   10 ar
  20    9   38 1
  21   10   39 1
  22   11   12 ar
  23   11   40 1
  24   12   13 ar
  25   12   41 1
  26   13   14 ar
  27   13   42 1
  28   14   43 1
  29   15   16 1
  30   15   44 1
  31   15   45 1
  32   16   17 1
  33   16   46 1
  34   16   47 1
  35   17   18 1
  36   17   48 1
  37   17   49 1
  38   18   19 1
  39   18   23 1
  40   19   20 1
  41   19   50 1
  42   19   51 1
  43   20   21 1
  44   20   52 1
  45   20   53 1
  46   21   22 1
  47   21   24 1
  48   21   25 1
  49   22   23 1
  50   22   54 1
  51   22   55 1
  52   23   56 1
  53   23   57 1
  54   24   26 ar
  55   24   30 ar
  56   25   58 1
  57   26   27 ar
  58   26   59 1
  59   27   28 ar
  60   27   60 1
  61   28   29 ar
  62   28   31 1
  63   29   30 ar
  64   29   61 1
  65   30   62 1

#	End of record

