#	Name: ASD01811765
#	Creating user name:	WinNT
#	Creation time:	15. 06. 2019 19:27

#	Modifying user name:	WinNT
#	Modification time:	15. 06. 2019 19:27

#	Program:	/corina/corina34_cracker 3.40 0067  02.08.2006

@<TRIPOS>MOLECULE
ASD01811765
  57   60    0    0    0
SMALL
NO_CHARGES


@<TRIPOS>ATOM
   1 C1            -0.0630     1.2572    -0.4732 C.2     
   2 N2             0.0098    -0.0355    -0.1036 N.am    
   3 C3             1.2044    -0.6630     0.0119 C.2     
   4 C4             2.3687    -0.0119    -0.2400 C.2     
   5 C5             2.3521     1.3283    -0.6258 C.2     
   6 C6             1.1267     1.9801    -0.7476 C.2     
   7 C7            -1.2230    -0.7751     0.1785 C.3     
   8 C8             1.2420    -2.1108     0.4282 C.3     
   9 O9            -1.1478     1.8033    -0.5765 O.2     
  10 C10            1.0674     3.3927    -1.1531 C.2     
  11 N11           -0.1244     3.9775    -1.3859 N.am    
  12 O12            2.0940     4.0332    -1.2783 O.2     
  13 C13           -0.1798     5.3500    -1.8952 C.3     
  14 C14            3.6818    -0.7384    -0.1018 C.3     
  15 C15            4.2650    -0.4672     1.2610 C.ar    
  16 C16            5.0022     0.6821     1.4798 C.ar    
  17 C17            4.0571    -1.3653     2.2917 C.ar    
  18 C18            4.5900    -1.1192     3.5420 C.ar    
  19 C19            5.3351     0.0312     3.7633 C.ar    
  20 C20            5.5380     0.9334     2.7277 C.ar    
  21 C21           -1.6000     7.3910    -2.1122 C.3     
  22 C22           -1.5187     5.9862    -1.5093 C.3     
  23 C23           -0.0552     5.3355    -3.4219 C.3     
  24 C24           -0.1930     6.7654    -3.9510 C.3     
  25 O25           -1.4461     7.3088    -3.5306 O.3     
  26 O26           -1.6143     6.0712    -0.0860 O.3     
  27 N27            5.8772     0.2838     5.0312 N.pl3   
  28 C28            6.6182     1.3598     5.3799 C.2     
  29 C29            6.9462     1.2279     6.6861 C.2     
  30 C30            6.3881     0.0324     7.1519 C.2     
  31 N31            5.7424    -0.5310     6.1627 N.2     
  32 H32            3.2746     1.8526    -0.8271 H       
  33 H33           -2.0812    -0.1183     0.0364 H       
  34 H34           -1.2998    -1.6253    -0.4992 H       
  35 H35           -1.2051    -1.1318     1.2084 H       
  36 H36            0.2332    -2.4459     0.6691 H       
  37 H37            1.6398    -2.7135    -0.3883 H       
  38 H38            1.8803    -2.2203     1.3050 H       
  39 H39           -0.9454     3.4897    -1.2162 H       
  40 H40            0.6379     5.9307    -1.4682 H       
  41 H41            3.5186    -1.8096    -0.2206 H       
  42 H42            4.3728    -0.3890    -0.8689 H       
  43 H43            5.1594     1.3837     0.6739 H       
  44 H44            3.4772    -2.2598     2.1190 H       
  45 H45            4.4270    -1.8208     4.3467 H       
  46 H46            6.1143     1.8309     2.8978 H       
  47 H47           -2.5684     7.8322    -1.8767 H       
  48 H48           -0.8066     8.0118    -1.6959 H       
  49 H49           -2.3361     5.3766    -1.8945 H       
  50 H50            0.9185     4.9349    -3.7041 H       
  51 H51           -0.8430     4.7128    -3.8457 H       
  52 H52            0.6188     7.3780    -3.5587 H       
  53 H53           -0.1479     6.7560    -5.0400 H       
  54 H54           -2.4369     6.4696     0.2298 H       
  55 H55            6.8978     2.1777     4.7324 H       
  56 H56            7.5354     1.9225     7.2665 H       
  57 H57            6.4718    -0.3562     8.1561 H       
@<TRIPOS>BOND
   1    1    2 am
   2    1    6 1
   3    1    9 2
   4    2    3 1
   5    2    7 1
   6    3    4 2
   7    3    8 1
   8    4    5 1
   9    4   14 1
  10    5    6 2
  11    5   32 1
  12    6   10 1
  13    7   33 1
  14    7   34 1
  15    7   35 1
  16    8   36 1
  17    8   37 1
  18    8   38 1
  19   10   11 am
  20   10   12 2
  21   11   13 1
  22   11   39 1
  23   13   23 1
  24   13   22 1
  25   13   40 1
  26   14   15 1
  27   14   41 1
  28   14   42 1
  29   15   17 ar
  30   15   16 ar
  31   16   20 ar
  32   16   43 1
  33   17   18 ar
  34   17   44 1
  35   18   19 ar
  36   18   45 1
  37   19   20 ar
  38   19   27 1
  39   20   46 1
  40   21   22 1
  41   21   25 1
  42   21   47 1
  43   21   48 1
  44   22   26 1
  45   22   49 1
  46   23   24 1
  47   23   50 1
  48   23   51 1
  49   24   25 1
  50   24   52 1
  51   24   53 1
  52   26   54 1
  53   27   28 1
  54   27   31 1
  55   28   29 2
  56   28   55 1
  57   29   30 1
  58   29   56 1
  59   30   31 2
  60   30   57 1

#	End of record

