#	Name: ASD01208518
#	Creating user name:	WinNT
#	Creation time:	15. 06. 2019 19:09

#	Modifying user name:	WinNT
#	Modification time:	15. 06. 2019 19:09

#	Program:	/corina/corina34_cracker 3.40 0067  02.08.2006

@<TRIPOS>MOLECULE
ASD01208518
  17   17    0    0    0
SMALL
NO_CHARGES


@<TRIPOS>ATOM
   1 C1            -0.0167     1.3781     0.0096 C.ar    
   2 C2             0.0021    -0.0041     0.0020 C.ar    
   3 C3             1.2210    -0.6634    -0.0132 C.ar    
   4 C4             2.3832     0.0968    -0.0203 C.ar    
   5 C5             2.2848     1.4775    -0.0119 C.ar    
   6 N6             1.1063     2.0690     0.0026 N.ar    
   7 S7            -1.5605     2.2273     0.0215 S.o2    
   8 O8            -1.2743     3.4833    -0.5782 O.2     
   9 O9            -2.4666     1.3156    -0.5844 O.2     
  10 C10           -1.9488     2.4359     1.7812 C.3     
  11 F11            3.5936    -0.5031    -0.0347 F       
  12 H12           -0.9218    -0.5633     0.0082 H       
  13 H13            1.2660    -1.7425    -0.0191 H       
  14 H14            3.1832     2.0770    -0.0173 H       
  15 H15           -1.1611     3.0169     2.2607 H       
  16 H16           -2.8998     2.9586     1.8839 H       
  17 H17           -2.0189     1.4573     2.2562 H       
@<TRIPOS>BOND
   1    1    2 ar
   2    1    6 ar
   3    1    7 1
   4    2    3 ar
   5    2   12 1
   6    3    4 ar
   7    3   13 1
   8    4    5 ar
   9    4   11 1
  10    5    6 ar
  11    5   14 1
  12    7    8 2
  13    7    9 2
  14    7   10 1
  15   10   15 1
  16   10   16 1
  17   10   17 1

#	End of record

