#	Name: ASD01910439
#	Creating user name:	WinNT
#	Creation time:	15. 06. 2019 19:55

#	Modifying user name:	WinNT
#	Modification time:	15. 06. 2019 19:55

#	Program:	/corina/corina34_cracker 3.40 0067  02.08.2006

@<TRIPOS>MOLECULE
ASD01910439
  46   49    0    0    0
SMALL
NO_CHARGES


@<TRIPOS>ATOM
   1 C1             0.0263     1.3041    -0.0667 C.ar    
   2 C2             0.0589    -0.0811    -0.0771 C.ar    
   3 C3             1.2727    -0.7495    -0.0839 C.ar    
   4 C4             2.4544    -0.0376    -0.0798 C.ar    
   5 C5             2.4262     1.3556    -0.0694 C.ar    
   6 C6             1.2033     2.0238    -0.0631 C.ar    
   7 F7            -1.0961    -0.7820    -0.0803 F       
   8 C8             3.6947     2.1254    -0.0645 C.2     
   9 N9             3.8164     3.4722    -0.0544 N.2     
  10 C10            5.1045     3.7090    -0.0527 C.2     
  11 O11            5.7227     2.5238    -0.0616 O.3     
  12 N12            4.9044     1.6285    -0.0633 N.2     
  13 C13            5.7656     5.0632    -0.0431 C.3     
  14 C14            6.6379     5.1969     1.2072 C.3     
  15 C15            7.2838     6.5841     1.2347 C.3     
  16 C16            8.1774     6.7514     0.0017 C.3     
  17 N17            7.3784     6.4815    -1.2015 N.am    
  18 C18            6.6420     5.2132    -1.2906 C.3     
  19 C19            7.3221     7.3802    -2.2043 C.2     
  20 C20            7.9910     8.6908    -2.0608 C.ar    
  21 O21            6.7214     7.1132    -3.2267 O.2     
  22 C22            9.3527     8.7640    -1.7446 C.ar    
  23 C23            9.9312    10.0153    -1.6221 C.ar    
  24 C24            9.1531    11.1426    -1.8140 C.ar    
  25 N25            7.8712    11.0431    -2.1108 N.ar    
  26 C26            7.2769     9.8757    -2.2438 C.ar    
  27 C27            5.8099     9.8189    -2.5843 C.3     
  28 H28           -0.9219     1.8212    -0.0660 H       
  29 H29            1.2936    -1.8293    -0.0920 H       
  30 H30            3.4000    -0.5594    -0.0844 H       
  31 H31            1.1770     3.1034    -0.0553 H       
  32 H32            5.0019     5.8409    -0.0388 H       
  33 H33            6.0208     5.0661     2.0962 H       
  34 H34            7.4163     4.4342     1.1902 H       
  35 H35            6.5061     7.3478     1.2267 H       
  36 H36            7.8863     6.6871     2.1372 H       
  37 H37            8.5613     7.7708    -0.0358 H       
  38 H38            9.0080     6.0475     0.0542 H       
  39 H39            7.3474     4.3840    -1.3435 H       
  40 H40            6.0128     5.2178    -2.1807 H       
  41 H41            9.9368     7.8672    -1.5997 H       
  42 H42           10.9791    10.1106    -1.3788 H       
  43 H43            9.6020    12.1203    -1.7190 H       
  44 H44            5.6847     9.8888    -3.6648 H       
  45 H45            5.3910     8.8769    -2.2302 H       
  46 H46            5.2930    10.6497    -2.1041 H       
@<TRIPOS>BOND
   1    1    2 ar
   2    1    6 ar
   3    1   28 1
   4    2    3 ar
   5    2    7 1
   6    3    4 ar
   7    3   29 1
   8    4    5 ar
   9    4   30 1
  10    5    6 ar
  11    5    8 1
  12    6   31 1
  13    8    9 1
  14    8   12 2
  15    9   10 2
  16   10   11 1
  17   10   13 1
  18   11   12 1
  19   13   14 1
  20   13   18 1
  21   13   32 1
  22   14   15 1
  23   14   33 1
  24   14   34 1
  25   15   16 1
  26   15   35 1
  27   15   36 1
  28   16   17 1
  29   16   37 1
  30   16   38 1
  31   17   18 1
  32   17   19 am
  33   18   39 1
  34   18   40 1
  35   19   20 1
  36   19   21 2
  37   20   22 ar
  38   20   26 ar
  39   22   23 ar
  40   22   41 1
  41   23   24 ar
  42   23   42 1
  43   24   25 ar
  44   24   43 1
  45   25   26 ar
  46   26   27 1
  47   27   44 1
  48   27   45 1
  49   27   46 1

#	End of record

