#	Name: ASD07930388
#	Creating user name:	WinNT
#	Creation time:	15. 06. 2019 21:12

#	Modifying user name:	WinNT
#	Modification time:	15. 06. 2019 21:12

#	Program:	/corina/corina34_cracker 3.40 0067  02.08.2006

@<TRIPOS>MOLECULE
ASD07930388
  45   47    0    0    0
SMALL
NO_CHARGES


@<TRIPOS>ATOM
   1 N1             0.0006     1.2712     0.0037 N.2     
   2 N2            -1.1611    -0.7566     0.0076 N.pl3   
   3 C3            -1.3888    -1.7915    -1.0064 C.3     
   4 C4            -0.2711    -2.8399    -0.9192 C.3     
   5 S5             1.3268    -1.9884    -1.1091 S.o2    
   6 N6             1.2083    -0.7374    -0.0148 N.am    
   7 C7             0.0133    -0.0322    -0.0009 C.2     
   8 C8             2.3111    -0.3991     0.8883 C.3     
   9 C9            -1.3839    -1.1539    -2.3972 C.3     
  10 C10           -2.7200    -2.4534    -0.7598 C.ar    
  11 C11           -3.4610    -2.1183     0.3562 C.ar    
  12 C12           -4.6880    -2.7283     0.5827 C.ar    
  13 C13           -5.1669    -3.6740    -0.3139 C.ar    
  14 C14           -4.4225    -4.0064    -1.4290 C.ar    
  15 C15           -3.2020    -3.3932    -1.6557 C.ar    
  16 N16           -5.4405    -2.3904     1.7134 N.am    
  17 C17           -6.7863    -2.3665     1.6449 C.2     
  18 O18           -7.3441    -2.5428     0.5785 O.2     
  19 C19           -7.5821    -2.1268     2.8621 C.2     
  20 C20           -8.9399    -2.0810     2.9445 C.2     
  21 O21            2.3891    -2.7940    -0.6176 O.2     
  22 O22            1.4101    -1.3490    -2.3754 O.2     
  23 F23           -2.4754    -3.7197    -2.7469 F       
  24 N24           -7.0978    -1.9153     4.1160 N.2     
  25 C25           -8.1024    -1.7436     4.9220 C.2     
  26 O26           -9.2461    -1.8400     4.2294 O.3     
  27 C27           -7.9984    -1.4819     6.4024 C.3     
  28 H28            0.8358     1.7644    -0.0027 H       
  29 H29           -1.8367    -0.5788     0.6806 H       
  30 H30           -0.3092    -3.3379     0.0496 H       
  31 H31           -0.3931    -3.5741    -1.7155 H       
  32 H32            2.9602     0.3345     0.4103 H       
  33 H33            1.9095     0.0181     1.8118 H       
  34 H34            2.8840    -1.2983     1.1149 H       
  35 H35           -0.4199    -0.6773    -2.5751 H       
  36 H36           -1.5532    -1.9235    -3.1503 H       
  37 H37           -2.1753    -0.4067    -2.4571 H       
  38 H38           -3.0865    -1.3826     1.0525 H       
  39 H39           -6.1206    -4.1498    -0.1394 H       
  40 H40           -4.7945    -4.7423    -2.1265 H       
  41 H41           -4.9934    -2.1734     2.5465 H       
  42 H42           -9.6381    -2.2131     2.1312 H       
  43 H43           -7.9454    -0.4076     6.5787 H       
  44 H44           -8.8749    -1.8899     6.9059 H       
  45 H45           -7.0998    -1.9591     6.7935 H       
@<TRIPOS>BOND
   1    1    7 2
   2    1   28 1
   3    2    3 1
   4    2    7 1
   5    2   29 1
   6    3    4 1
   7    3    9 1
   8    3   10 1
   9    4    5 1
  10    4   30 1
  11    4   31 1
  12    5    6 am
  13    5   21 2
  14    5   22 2
  15    6    7 1
  16    6    8 1
  17    8   32 1
  18    8   33 1
  19    8   34 1
  20    9   35 1
  21    9   36 1
  22    9   37 1
  23   10   11 ar
  24   10   15 ar
  25   11   12 ar
  26   11   38 1
  27   12   13 ar
  28   12   16 1
  29   13   14 ar
  30   13   39 1
  31   14   15 ar
  32   14   40 1
  33   15   23 1
  34   16   17 am
  35   16   41 1
  36   17   18 2
  37   17   19 1
  38   19   24 1
  39   19   20 2
  40   20   26 1
  41   20   42 1
  42   24   25 2
  43   25   26 1
  44   25   27 1
  45   27   43 1
  46   27   44 1
  47   27   45 1

#	End of record

