#	Name: ASD02198771
#	Creating user name:	WinNT
#	Creation time:	15. 06. 2019 20:20

#	Modifying user name:	WinNT
#	Modification time:	15. 06. 2019 20:20

#	Program:	/corina/corina34_cracker 3.40 0067  02.08.2006

@<TRIPOS>MOLECULE
ASD02198771
  47   51    0    0    0
SMALL
NO_CHARGES


@<TRIPOS>ATOM
   1 F1             2.2539    -1.7076     2.4717 F       
   2 C2            -0.0433     1.5013    -0.1151 C.2     
   3 C3            -0.0729     0.1617     0.0973 C.2     
   4 N4             1.0718    -0.5399     0.2602 N.pl3   
   5 N5             2.2362    -0.0050     0.2262 N.2     
   6 C6             2.4077     1.2841     0.0276 C.2     
   7 C7             1.2217     2.1355    -0.1606 C.2     
   8 C8             0.9805    -1.9176     0.4770 C.ar    
   9 C9             1.5818    -2.4868     1.5963 C.ar    
  10 C10            1.4917    -3.8476     1.8114 C.ar    
  11 C11            0.7982    -4.6502     0.9069 C.ar    
  12 C12            0.1971    -4.0769    -0.2132 C.ar    
  13 C13            0.2844    -2.7173    -0.4222 C.ar    
  14 C14            3.7647     1.8663    -0.0055 C.2     
  15 N15            4.3064     2.6062    -1.0188 N.pl3   
  16 N16            5.6084     2.9579    -0.6415 N.2     
  17 C17            5.8525     2.4585     0.5439 C.2     
  18 C18            4.7207     1.7709     0.9820 C.2     
  19 C19            3.6732     2.9503    -2.2199 C.ar    
  20 C20            3.8067     4.2334    -2.7341 C.ar    
  21 C21            3.1815     4.5695    -3.9188 C.ar    
  22 C22            2.4232     3.6299    -4.5929 C.ar    
  23 C23            2.2879     2.3515    -4.0833 C.ar    
  24 C24            2.9153     2.0075    -2.9019 C.ar    
  25 O25            1.3246     3.3384    -0.3488 O.2     
  26 C26            0.7003    -6.1123     1.1353 C.ar    
  27 C27            0.0093    -6.9343     0.2400 C.ar    
  28 C28           -0.0574    -8.2893     0.4906 C.ar    
  29 N29            0.5191    -8.8100     1.5570 N.ar    
  30 C30            1.1804    -8.0699     2.4262 C.ar    
  31 C31            1.3012    -6.7070     2.2487 C.ar    
  32 H32           -0.9547     2.0649    -0.2497 H       
  33 H33           -1.0226    -0.3508     0.1373 H       
  34 H34            1.9582    -4.2899     2.6793 H       
  35 H35           -0.3402    -4.6976    -0.9149 H       
  36 H36           -0.1814    -2.2739    -1.2898 H       
  37 H37            6.7762     2.5646     1.0934 H       
  38 H38            4.6150     1.2519     1.9231 H       
  39 H39            4.3985     4.9677    -2.2079 H       
  40 H40            3.2846     5.5673    -4.3190 H       
  41 H41            1.9353     3.8951    -5.5192 H       
  42 H42            1.6948     1.6200    -4.6119 H       
  43 H43            2.8096     1.0089    -2.5046 H       
  44 H44           -0.4655    -6.5147    -0.6345 H       
  45 H45           -0.5888    -8.9324    -0.1952 H       
  46 H46            1.6371    -8.5377     3.2858 H       
  47 H47            1.8440    -6.1072     2.9643 H       
@<TRIPOS>BOND
   1    1    9 1
   2    2    3 2
   3    2    7 1
   4    2   32 1
   5    3    4 1
   6    3   33 1
   7    4    5 1
   8    4    8 1
   9    5    6 2
  10    6    7 1
  11    6   14 1
  12    7   25 2
  13    8    9 ar
  14    8   13 ar
  15    9   10 ar
  16   10   11 ar
  17   10   34 1
  18   11   12 ar
  19   11   26 1
  20   12   13 ar
  21   12   35 1
  22   13   36 1
  23   14   15 1
  24   14   18 2
  25   15   16 1
  26   15   19 1
  27   16   17 2
  28   17   18 1
  29   17   37 1
  30   18   38 1
  31   19   20 ar
  32   19   24 ar
  33   20   21 ar
  34   20   39 1
  35   21   22 ar
  36   21   40 1
  37   22   23 ar
  38   22   41 1
  39   23   24 ar
  40   23   42 1
  41   24   43 1
  42   26   27 ar
  43   26   31 ar
  44   27   28 ar
  45   27   44 1
  46   28   29 ar
  47   28   45 1
  48   29   30 ar
  49   30   31 ar
  50   30   46 1
  51   31   47 1

#	End of record

