#	Name: ASD01151001
#	Creating user name:	WinNT
#	Creation time:	15. 06. 2019 19:05

#	Modifying user name:	WinNT
#	Modification time:	15. 06. 2019 19:05

#	Program:	/corina/corina34_cracker 3.40 0067  02.08.2006

@<TRIPOS>MOLECULE
ASD01151001
  53   55    0    0    0
SMALL
NO_CHARGES


@<TRIPOS>ATOM
   1 N1             0.0130     1.3688    -0.0723 N.am    
   2 C2             0.0430    -0.0137    -0.1441 C.2     
   3 C3            -1.0532    -0.8395    -0.1068 C.2     
   4 N4            -0.7649    -2.1424    -0.1937 N.2     
   5 C5             0.4819    -2.4394    -0.2988 C.2     
   6 S6             1.4510    -0.9713    -0.3013 S.3     
   7 C7            -2.4225    -0.3360     0.0182 C.2     
   8 O8            -2.6259     0.8609     0.0940 O.2     
   9 O9            -3.4585    -1.1995     0.0492 O.3     
  10 C10           -4.7881    -0.6296     0.1746 C.3     
  11 C11           -5.8253    -1.7542     0.1925 C.3     
  12 C12            1.0313    -3.8383    -0.4095 C.3     
  13 C13            1.1140    -4.2386    -1.8838 C.3     
  14 C14            1.1622     2.0712    -0.1196 C.2     
  15 C15            1.1302     3.5425    -0.0432 C.2     
  16 O16            2.2256     1.4908    -0.2255 O.2     
  17 C17            2.2206     4.3891    -0.0791 C.2     
  18 N18            1.7554     5.6478     0.0179 N.pl3   
  19 N19            0.3603     5.5983     0.1159 N.2     
  20 C20           -0.0227     4.3517     0.0744 C.2     
  21 C21            3.6654     3.9788    -0.2034 C.3     
  22 C22            4.0162     3.7884    -1.6804 C.3     
  23 C23            5.5112     3.4925    -1.8154 C.3     
  24 C24            2.5359     6.8118     0.0203 C.ar    
  25 C25            2.1522     7.9084    -0.7401 C.ar    
  26 C26            2.9232     9.0542    -0.7352 C.ar    
  27 C27            4.0766     9.1100     0.0256 C.ar    
  28 C28            4.4617     8.0194     0.7835 C.ar    
  29 C29            3.6915     6.8729     0.7877 C.ar    
  30 H30           -0.8355     1.8319     0.0081 H       
  31 H31           -4.8534    -0.0603     1.1019 H       
  32 H32           -4.9819     0.0301    -0.6711 H       
  33 H33           -6.8234    -1.3264     0.2866 H       
  34 H34           -5.7600    -2.3234    -0.7348 H       
  35 H35           -5.6315    -2.4139     1.0382 H       
  36 H36            2.0268    -3.8738     0.0330 H       
  37 H37            0.3742    -4.5295     0.1184 H       
  38 H38            1.5113    -5.2504    -1.9639 H       
  39 H39            0.1185    -4.2031    -2.3263 H       
  40 H40            1.7711    -3.5474    -2.4117 H       
  41 H41           -1.0422     3.9993     0.1285 H       
  42 H42            4.3013     4.7541     0.2241 H       
  43 H43            3.8245     3.0425     0.3315 H       
  44 H44            3.4428     2.9546    -2.0854 H       
  45 H45            3.7744     4.6973    -2.2314 H       
  46 H46            5.7530     2.5837    -1.2644 H       
  47 H47            5.7612     3.3569    -2.8677 H       
  48 H48            6.0846     4.3264    -1.4104 H       
  49 H49            1.2518     7.8652    -1.3350 H       
  50 H50            2.6253     9.9075    -1.3265 H       
  51 H51            4.6781    10.0070     0.0275 H       
  52 H52            5.3634     8.0657     1.3762 H       
  53 H53            3.9927     6.0215     1.3799 H       
@<TRIPOS>BOND
   1    1    2 1
   2    1   14 am
   3    1   30 1
   4    2    3 2
   5    2    6 1
   6    3    4 1
   7    3    7 1
   8    4    5 2
   9    5    6 1
  10    5   12 1
  11    7    8 2
  12    7    9 1
  13    9   10 1
  14   10   11 1
  15   10   31 1
  16   10   32 1
  17   11   33 1
  18   11   34 1
  19   11   35 1
  20   12   13 1
  21   12   36 1
  22   12   37 1
  23   13   38 1
  24   13   39 1
  25   13   40 1
  26   14   15 1
  27   14   16 2
  28   15   17 2
  29   15   20 1
  30   17   18 1
  31   17   21 1
  32   18   19 1
  33   18   24 1
  34   19   20 2
  35   20   41 1
  36   21   22 1
  37   21   42 1
  38   21   43 1
  39   22   23 1
  40   22   44 1
  41   22   45 1
  42   23   46 1
  43   23   47 1
  44   23   48 1
  45   24   25 ar
  46   24   29 ar
  47   25   26 ar
  48   25   49 1
  49   26   27 ar
  50   26   50 1
  51   27   28 ar
  52   27   51 1
  53   28   29 ar
  54   28   52 1
  55   29   53 1

#	End of record

