#	Name: ASD00840734
#	Creating user name:	WinNT
#	Creation time:	15. 06. 2019 18:39

#	Modifying user name:	WinNT
#	Modification time:	15. 06. 2019 18:39

#	Program:	/corina/corina34_cracker 3.40 0067  02.08.2006

@<TRIPOS>MOLECULE
ASD00840734
  83   88    0    0    0
SMALL
NO_CHARGES


@<TRIPOS>ATOM
   1 F1             6.0703    -1.9371    -2.0353 F       
   2 N2             1.0651     1.4645    -0.7439 N.ar    
   3 C3             1.3276     0.1732    -0.8554 C.ar    
   4 C4             1.2494    -0.6631     0.2511 C.ar    
   5 C5             0.8924    -0.1274     1.4760 C.ar    
   6 C6             0.6249     1.2328     1.5511 C.ar    
   7 C7             0.7223     2.0043     0.4105 C.ar    
   8 C8             1.5488    -2.1342     0.1192 C.3     
   9 C9             1.2681    -2.8515     1.4224 C.2     
  10 C10            0.7282    -2.7470    -1.0175 C.3     
  11 C11           -0.7340    -2.4590    -0.7932 C.2     
  12 N12           -1.6584    -2.9786    -1.6250 N.am    
  13 O13           -1.0788    -1.7597     0.1357 O.2     
  14 C14           -3.0761    -2.6180    -1.4876 C.3     
  15 C15           -3.9028    -3.9026    -1.3738 C.3     
  16 C16           -3.5977    -4.8085    -2.5690 C.3     
  17 C17           -2.1146    -5.1861    -2.5595 C.3     
  18 C18           -1.2669    -3.9116    -2.6903 C.3     
  19 N19           -4.4135    -6.0269    -2.4804 N.3     
  20 C20           -4.2354    -6.8677    -3.6725 C.3     
  21 C21           -5.0377    -8.1604    -3.5062 C.3     
  22 N22           -6.4557    -7.8313    -3.3044 N.3     
  23 C23           -6.6338    -6.9905    -2.1124 C.3     
  24 C24           -5.8314    -5.6978    -2.2787 C.3     
  25 C25           -7.2715    -9.0497    -3.2159 C.3     
  26 O26            0.1965    -2.9302     1.9851 O.2     
  27 N27            2.4289    -3.3853     1.8383 N.am    
  28 C28            3.0261    -2.3552    -0.1117 C.ar    
  29 C29            3.4804    -3.1125     0.9607 C.ar    
  30 C30            3.8858    -1.9615    -1.1123 C.ar    
  31 C31            5.2229    -2.3215    -1.0559 C.ar    
  32 C32            5.6876    -3.0768     0.0088 C.ar    
  33 C33            4.8253    -3.4716     1.0124 C.ar    
  34 Cl34           7.3622    -3.5288     0.0814 Cl      
  35 C35            2.3021    -5.9530     2.8208 C.ar    
  36 C36            3.3535    -6.7608     2.4296 C.ar    
  37 C37            1.0227    -6.4712     2.8948 C.ar    
  38 C38            0.7947    -7.7973     2.5778 C.ar    
  39 C39            1.8460    -8.6050     2.1863 C.ar    
  40 C40            3.1254    -8.0868     2.1122 C.ar    
  41 H41            1.6678    -9.6410     1.9386 H       
  42 H42            4.3530    -6.3559     2.3717 H       
  43 O43            1.6760    -0.3399    -2.0621 O.3     
  44 C44            2.1647    -0.1709    -4.4229 C.3     
  45 C45            1.6308     0.5469    -3.1817 C.3     
  46 S46            2.5940    -4.2647     3.2318 S.o2    
  47 O47            3.9622    -4.1731     3.6044 O.2     
  48 O48            1.5281    -3.8693     4.0844 O.2     
  49 H49            0.8231    -0.7532     2.3535 H       
  50 H50            0.3433     1.6826     2.4918 H       
  51 H51            0.5156     3.0630     0.4636 H       
  52 H52            1.0424    -2.3137    -1.9670 H       
  53 H53            0.8869    -3.8251    -1.0399 H       
  54 H54           -3.2142    -2.0139    -0.5909 H       
  55 H55           -3.3962    -2.0539    -2.3636 H       
  56 H56           -3.6453    -4.4203    -0.4498 H       
  57 H57           -4.9639    -3.6531    -1.3680 H       
  58 H58           -3.8322    -4.2811    -3.4936 H       
  59 H59           -1.8739    -5.6917    -1.6243 H       
  60 H60           -1.9029    -5.8501    -3.3976 H       
  61 H61           -1.4407    -3.4556    -3.6649 H       
  62 H62           -0.2114    -4.1625    -2.5850 H       
  63 H63           -4.5894    -6.3307    -4.5525 H       
  64 H64           -3.1792    -7.1083    -3.7933 H       
  65 H65           -4.9304    -8.7728    -4.4015 H       
  66 H66           -4.6656    -8.7108    -2.6420 H       
  67 H67           -7.6900    -6.7499    -1.9915 H       
  68 H68           -6.2798    -7.5276    -1.2324 H       
  69 H69           -5.9388    -5.0854    -1.3834 H       
  70 H70           -6.2036    -5.1475    -3.1428 H       
  71 H71           -6.9303    -9.6552    -2.3762 H       
  72 H72           -8.3163    -8.7774    -3.0667 H       
  73 H73           -7.1732    -9.6207    -4.1392 H       
  74 H74            3.5186    -1.3732    -1.9402 H       
  75 H75            5.1944    -4.0602     1.8392 H       
  76 H76            0.2014    -5.8402     3.2007 H       
  77 H77           -0.2047    -8.2023     2.6364 H       
  78 H78            3.9468    -8.7179     1.8066 H       
  79 H79            3.1624    -0.5587    -4.2172 H       
  80 H80            1.5000    -0.9957    -4.6796 H       
  81 H81            2.2121     0.5304    -5.2559 H       
  82 H82            0.6010     0.8585    -3.3570 H       
  83 H83            2.2455     1.4233    -2.9762 H       
@<TRIPOS>BOND
   1    1   31 1
   2    2    3 ar
   3    2    7 ar
   4    3    4 ar
   5    3   43 1
   6    4    5 ar
   7    4    8 1
   8    5    6 ar
   9    5   49 1
  10    6    7 ar
  11    6   50 1
  12    7   51 1
  13    8    9 1
  14    8   10 1
  15    8   28 1
  16    9   26 2
  17    9   27 am
  18   10   11 1
  19   10   52 1
  20   10   53 1
  21   11   12 am
  22   11   13 2
  23   12   14 1
  24   12   18 1
  25   14   15 1
  26   14   54 1
  27   14   55 1
  28   15   16 1
  29   15   56 1
  30   15   57 1
  31   16   17 1
  32   16   19 1
  33   16   58 1
  34   17   18 1
  35   17   59 1
  36   17   60 1
  37   18   61 1
  38   18   62 1
  39   19   20 1
  40   19   24 1
  41   20   21 1
  42   20   63 1
  43   20   64 1
  44   21   22 1
  45   21   65 1
  46   21   66 1
  47   22   23 1
  48   22   25 1
  49   23   24 1
  50   23   67 1
  51   23   68 1
  52   24   69 1
  53   24   70 1
  54   25   71 1
  55   25   72 1
  56   25   73 1
  57   27   46 am
  58   27   29 1
  59   28   29 ar
  60   28   30 ar
  61   29   33 ar
  62   30   31 ar
  63   30   74 1
  64   31   32 ar
  65   32   33 ar
  66   32   34 1
  67   33   75 1
  68   35   36 ar
  69   35   37 ar
  70   35   46 1
  71   36   42 1
  72   36   40 ar
  73   37   38 ar
  74   37   76 1
  75   38   39 ar
  76   38   77 1
  77   39   40 ar
  78   39   41 1
  79   40   78 1
  80   43   45 1
  81   44   45 1
  82   44   79 1
  83   44   80 1
  84   44   81 1
  85   45   82 1
  86   45   83 1
  87   46   47 2
  88   46   48 2

#	End of record

