#	Name: ASD01883749
#	Creating user name:	WinNT
#	Creation time:	15. 06. 2019 19:47

#	Modifying user name:	WinNT
#	Modification time:	15. 06. 2019 19:47

#	Program:	/corina/corina34_cracker 3.40 0067  02.08.2006

@<TRIPOS>MOLECULE
ASD01883749
  55   59    0    0    0
SMALL
NO_CHARGES


@<TRIPOS>ATOM
   1 C1            -0.2422     1.0908    -0.2200 C.2     
   2 C2            -0.1481    -0.2864    -0.1347 C.2     
   3 C3            -1.3325    -1.0583    -0.0651 C.2     
   4 C4            -2.5355    -0.4548    -0.0819 C.2     
   5 N5            -2.6381     0.9054    -0.1660 N.pl3   
   6 C6            -1.5156     1.6904    -0.2294 C.2     
   7 C7            -3.7169     1.7480    -0.2001 C.2     
   8 C8            -3.2371     3.0082    -0.2881 C.2     
   9 N9            -1.9035     2.9570    -0.3039 N.2     
  10 C10           -5.1682     1.3452    -0.1495 C.3     
  11 C11            1.1783    -0.9467    -0.1170 C.ar    
  12 C12            1.5922    -1.6413     1.0124 C.ar    
  13 C13            2.8428    -2.2583     1.0165 C.ar    
  14 C14            3.6726    -2.1738    -0.1173 C.ar    
  15 C15            3.2368    -1.4721    -1.2384 C.ar    
  16 C16            2.0102    -0.8745    -1.2406 C.ar    
  17 C17           -5.7181     1.2397    -1.5733 C.3     
  18 F18           -4.9918     0.2780    -2.2837 F       
  19 F19           -7.0654     0.8658    -1.5263 F       
  20 F20           -5.6001     2.4789    -2.2118 F       
  21 Cl21           1.1907     2.0670    -0.3069 Cl      
  22 C22            3.5827    -3.0508     2.0022 C.2     
  23 C23            4.7547    -3.3824     1.4383 C.2     
  24 N24            4.8261    -2.8674     0.1726 N.pl3   
  25 C25            5.9615    -3.0299    -0.7388 C.3     
  26 C26            7.2166    -2.4299    -0.1020 C.3     
  27 C27            7.5134    -3.1486     1.2156 C.3     
  28 C28            7.7409    -4.6371     0.9446 C.3     
  29 C29            6.4857    -5.2372     0.3079 C.3     
  30 C30            6.1889    -4.5185    -1.0098 C.3     
  31 O31            8.8484    -4.7956     0.0556 O.3     
  32 C32            8.0377    -5.3558     2.2623 C.3     
  33 H33           -1.2708    -2.1345     0.0013 H       
  34 H34           -3.4324    -1.0540    -0.0287 H       
  35 H35           -3.8335     3.9074    -0.3346 H       
  36 H36           -5.2601     0.3798     0.3480 H       
  37 H37           -5.7341     2.0946     0.4040 H       
  38 H38            0.9515    -1.7025     1.8797 H       
  39 H39            3.8702    -1.4043    -2.1105 H       
  40 H40            1.6812    -0.3329    -2.1152 H       
  41 H41            3.2486    -3.3174     2.9940 H       
  42 H42            5.5272    -3.9689     1.9133 H       
  43 H43            5.7500    -2.5179    -1.6775 H       
  44 H44            8.0613    -2.5508    -0.7802 H       
  45 H45            7.0546    -1.3694     0.0910 H       
  46 H46            8.4076    -2.7211     1.6692 H       
  47 H47            6.6687    -3.0277     1.8938 H       
  48 H48            6.6478    -6.2976     0.1148 H       
  49 H49            5.6410    -5.1163     0.9860 H       
  50 H50            5.2947    -4.9460    -1.4634 H       
  51 H51            7.0337    -4.6394    -1.6879 H       
  52 H52            9.0504    -5.7162    -0.1608 H       
  53 H53            7.1930    -5.2349     2.9404 H       
  54 H54            8.1997    -6.4163     2.0692 H       
  55 H55            8.9319    -4.9283     2.7159 H       
@<TRIPOS>BOND
   1    1    2 2
   2    1   21 1
   3    1    6 1
   4    2    3 1
   5    2   11 1
   6    3    4 2
   7    3   33 1
   8    4    5 1
   9    4   34 1
  10    5    6 1
  11    5    7 1
  12    6    9 2
  13    7    8 2
  14    7   10 1
  15    8    9 1
  16    8   35 1
  17   10   17 1
  18   10   36 1
  19   10   37 1
  20   11   12 ar
  21   11   16 ar
  22   12   13 ar
  23   12   38 1
  24   13   14 ar
  25   13   22 1
  26   14   15 ar
  27   14   24 1
  28   15   16 ar
  29   15   39 1
  30   16   40 1
  31   17   18 1
  32   17   19 1
  33   17   20 1
  34   22   23 2
  35   22   41 1
  36   23   24 1
  37   23   42 1
  38   24   25 1
  39   25   26 1
  40   25   30 1
  41   25   43 1
  42   26   27 1
  43   26   44 1
  44   26   45 1
  45   27   28 1
  46   27   46 1
  47   27   47 1
  48   28   29 1
  49   28   31 1
  50   28   32 1
  51   29   30 1
  52   29   48 1
  53   29   49 1
  54   30   50 1
  55   30   51 1
  56   31   52 1
  57   32   53 1
  58   32   54 1
  59   32   55 1

#	End of record

