#	Name: ASD01208617
#	Creating user name:	WinNT
#	Creation time:	15. 06. 2019 19:10

#	Modifying user name:	WinNT
#	Modification time:	15. 06. 2019 19:10

#	Program:	/corina/corina34_cracker 3.40 0067  02.08.2006

@<TRIPOS>MOLECULE
ASD01208617
  80   82    0    0    0
SMALL
NO_CHARGES


@<TRIPOS>ATOM
   1 C1            -0.1126     7.4978    -3.3886 C.3     
   2 C2             0.4900     6.2352    -4.0080 C.3     
   3 O3            -3.4829     8.7056    -3.6352 O.3     
   4 C4            -3.5386     7.3624    -3.7646 C.2     
   5 N5            -2.3956     6.8182    -4.0649 N.2     
   6 C6            -1.3802     7.8857    -4.1526 C.3     
   7 C7            -2.0984     9.0723    -3.4653 C.3     
   8 N8            -6.0100     7.1013    -3.2654 N.pl3   
   9 C9            -4.7746     6.5880    -3.5824 C.2     
  10 C10           -4.8976     5.2204    -3.6996 C.2     
  11 C11           -6.2320     4.8968    -3.4491 C.2     
  12 C12           -6.9021     6.0695    -3.1834 C.2     
  13 C13           -8.3401     6.1917    -2.8637 C.ar    
  14 C14           -8.8971     7.4465    -2.6130 C.ar    
  15 C15          -10.2448     7.5564    -2.3144 C.ar    
  16 C16          -11.0412     6.4211    -2.2638 C.ar    
  17 C17          -10.4915     5.1718    -2.5123 C.ar    
  18 C18           -9.1456     5.0534    -2.8175 C.ar    
  19 O19          -11.2759     4.0631    -2.4615 O.3     
  20 Si20         -11.8144     3.5642    -3.9179 Si      
  21 C21          -12.7790     1.2608    -5.1329 C.3     
  22 C22          -12.6008     1.8839    -3.7469 C.3     
  23 C23          -11.7026     0.9848    -2.8951 C.3     
  24 C24          -14.0382     5.1569    -3.4382 C.3     
  25 C25          -13.0735     4.7763    -4.5631 C.3     
  26 C26          -12.3601     6.0315    -5.0696 C.3     
  27 C27           -9.4951     2.2739    -4.7352 C.3     
  28 C28          -10.3841     3.4622    -5.1073 C.3     
  29 C29          -10.9160     3.2757    -6.5297 C.3     
  30 O30          -10.7882     8.7779    -2.0701 O.3     
  31 C31          -10.5039    10.9990    -1.1610 C.3     
  32 C32           -9.8904     9.8883    -2.0159 C.3     
  33 C33           -9.6418    10.4127    -3.4316 C.3     
  34 O34          -11.6817    11.4960    -1.7995 O.3     
  35 C35          -12.3356    12.5428    -1.0793 C.3     
  36 O36            0.8349     8.5648    -3.4651 O.3     
  37 H37           -0.3616     7.3072    -2.3447 H       
  38 H38            1.3930     5.9589    -3.4636 H       
  39 H39           -0.2328     5.4214    -3.9496 H       
  40 H40            0.7390     6.4259    -5.0519 H       
  41 H41           -1.1501     8.1194    -5.1921 H       
  42 H42           -1.8771    10.0109    -3.9734 H       
  43 H43           -1.8357     9.1298    -2.4090 H       
  44 H44           -6.2134     8.0385    -3.1201 H       
  45 H45           -4.1064     4.5262    -3.9415 H       
  46 H46           -6.6611     3.9058    -3.4616 H       
  47 H47           -8.2778     8.3305    -2.6515 H       
  48 H48          -12.0917     6.5103    -2.0299 H       
  49 H49           -8.7194     4.0809    -3.0149 H       
  50 H50          -11.8060     0.9681    -5.5275 H       
  51 H51          -13.4194     0.3821    -5.0565 H       
  52 H52          -13.2385     1.9883    -5.8020 H       
  53 H53          -13.5739     1.9854    -3.2663 H       
  54 H54          -10.7609     0.8133    -3.4165 H       
  55 H55          -11.5055     1.4693    -1.9388 H       
  56 H56          -12.2015     0.0310    -2.7231 H       
  57 H57          -13.4807     5.6130    -2.6202 H       
  58 H58          -14.7748     5.8661    -3.8157 H       
  59 H59          -14.5464     4.2626    -3.0774 H       
  60 H60          -13.6310     4.3202    -5.3812 H       
  61 H61          -11.5728     5.7455    -5.7671 H       
  62 H62          -13.0772     6.6776    -5.5761 H       
  63 H63          -11.9221     6.5657    -4.2264 H       
  64 H64           -9.9829     1.3469    -5.0364 H       
  65 H65           -8.5367     2.3630    -5.2467 H       
  66 H66           -9.3323     2.2653    -3.6575 H       
  67 H67           -9.8018     4.3821    -5.0549 H       
  68 H68          -11.6893     4.0176    -6.7287 H       
  69 H69          -10.1004     3.4009    -7.2419 H       
  70 H70          -11.3372     2.2755    -6.6318 H       
  71 H71          -10.7629    10.6012    -0.1798 H       
  72 H72           -9.7836    11.8089    -1.0461 H       
  73 H73           -8.9455     9.5704    -1.5751 H       
  74 H74           -9.2047     9.6215    -4.0406 H       
  75 H75          -10.5866    10.7306    -3.8724 H       
  76 H76           -8.9570    11.2597    -3.3902 H       
  77 H77          -12.6326    12.1770    -0.0963 H       
  78 H78          -11.6533    13.3848    -0.9627 H       
  79 H79          -13.2197    12.8650    -1.6294 H       
  80 H80            1.6649     8.3877    -3.0015 H       
@<TRIPOS>BOND
   1    1    2 1
   2    1   36 1
   3    1    6 1
   4    1   37 1
   5    2   38 1
   6    2   39 1
   7    2   40 1
   8    3    4 1
   9    3    7 1
  10    4    5 2
  11    4    9 1
  12    5    6 1
  13    6    7 1
  14    6   41 1
  15    7   42 1
  16    7   43 1
  17    8    9 1
  18    8   12 1
  19    8   44 1
  20    9   10 2
  21   10   11 1
  22   10   45 1
  23   11   12 2
  24   11   46 1
  25   12   13 1
  26   13   14 ar
  27   13   18 ar
  28   14   15 ar
  29   14   47 1
  30   15   16 ar
  31   15   30 1
  32   16   17 ar
  33   16   48 1
  34   17   18 ar
  35   17   19 1
  36   18   49 1
  37   19   20 1
  38   20   22 1
  39   20   25 1
  40   20   28 1
  41   21   22 1
  42   21   50 1
  43   21   51 1
  44   21   52 1
  45   22   23 1
  46   22   53 1
  47   23   54 1
  48   23   55 1
  49   23   56 1
  50   24   25 1
  51   24   57 1
  52   24   58 1
  53   24   59 1
  54   25   26 1
  55   25   60 1
  56   26   61 1
  57   26   62 1
  58   26   63 1
  59   27   28 1
  60   27   64 1
  61   27   65 1
  62   27   66 1
  63   28   29 1
  64   28   67 1
  65   29   68 1
  66   29   69 1
  67   29   70 1
  68   30   32 1
  69   31   32 1
  70   31   34 1
  71   31   71 1
  72   31   72 1
  73   32   33 1
  74   32   73 1
  75   33   74 1
  76   33   75 1
  77   33   76 1
  78   34   35 1
  79   35   77 1
  80   35   78 1
  81   35   79 1
  82   36   80 1

#	End of record

