#	Name: ASD03730909
#	Creating user name:	WinNT
#	Creation time:	15. 06. 2019 20:44

#	Modifying user name:	WinNT
#	Modification time:	15. 06. 2019 20:44

#	Program:	/corina/corina34_cracker 3.40 0067  02.08.2006

@<TRIPOS>MOLECULE
ASD03730909
  75   82    0    0    0
SMALL
NO_CHARGES


@<TRIPOS>ATOM
   1 C1            -2.9140     0.1823    -2.4405 C.2     
   2 C2            -4.0405     1.0157    -2.9119 C.ar    
   3 C3            -4.5293     0.8640    -4.2106 C.ar    
   4 C4            -5.5808     1.6444    -4.6440 C.ar    
   5 C5            -6.1507     2.5764    -3.7947 C.ar    
   6 C6            -5.6711     2.7318    -2.5065 C.ar    
   7 C7            -4.6235     1.9535    -2.0586 C.ar    
   8 O8            -2.7018    -0.8991    -2.9534 O.2     
   9 N9            -2.1190     0.6240    -1.4458 N.am    
  10 C10           -6.1099     1.4820    -6.0458 C.3     
  11 O11          -10.6204    -1.0123    -1.0333 O.3     
  12 C12          -11.7266    -1.8264    -0.6012 C.3     
  13 O13          -12.6670    -1.7303    -1.6871 O.3     
  14 C14          -11.9160    -1.4840    -2.8007 C.ar    
  15 C15          -10.6580    -1.0416    -2.3980 C.ar    
  16 C16          -12.2085    -1.6045    -4.1474 C.ar    
  17 C17          -11.2534    -1.2845    -5.1077 C.ar    
  18 C18          -10.0031    -0.8357    -4.6933 C.ar    
  19 C19           -9.7064    -0.7204    -3.3513 C.ar    
  20 O20          -11.3297    -1.3478    -6.4680 O.3     
  21 C21           -9.2146    -0.5488    -5.9431 C.3     
  22 C22          -10.2872    -0.5349    -7.0406 C.3     
  23 N23           -7.1740     0.4751    -6.0525 N.am    
  24 C24           -8.4784     0.7575    -5.8631 C.2     
  25 C25           -8.1608    -1.5840    -6.2035 C.ar    
  26 C26           -8.1912    -2.9496    -6.3777 C.ar    
  27 C27           -7.0177    -3.6449    -6.6095 C.ar    
  28 C28           -5.8145    -2.9652    -6.6650 C.ar    
  29 C29           -5.7788    -1.5975    -6.4901 C.ar    
  30 C30           -6.9551    -0.8894    -6.2568 C.ar    
  31 O31           -8.9625     1.8521    -5.6669 O.2     
  32 C32           -1.0419    -0.2281    -0.9358 C.3     
  33 C33            0.2188     0.0330    -1.7190 C.ar    
  34 C34            1.1043     1.0077    -1.2987 C.ar    
  35 C35            2.2607     1.2472    -2.0172 C.ar    
  36 C36            2.5318     0.5116    -3.1558 C.ar    
  37 C37            1.6468    -0.4638    -3.5755 C.ar    
  38 C38            0.4925    -0.7062    -2.8546 C.ar    
  39 C39           -2.3319     1.9562    -0.8747 C.3     
  40 C40           -3.1040     1.8329     0.4136 C.ar    
  41 C41           -3.9995     2.8202     0.7799 C.ar    
  42 C42           -4.7077     2.7072     1.9616 C.ar    
  43 C43           -4.5207     1.6066     2.7769 C.ar    
  44 C44           -3.6259     0.6188     2.4101 C.ar    
  45 C45           -2.9209     0.7297     1.2262 C.ar    
  46 H46           -4.0849     0.1374    -4.8747 H       
  47 H47           -6.9734     3.1855    -4.1392 H       
  48 H48           -6.1203     3.4611    -1.8486 H       
  49 H49           -4.2526     2.0729    -1.0513 H       
  50 H50           -6.5083     2.4341    -6.3963 H       
  51 H51           -5.3023     1.1616    -6.7040 H       
  52 H52          -11.4094    -2.8595    -0.4595 H       
  53 H53          -12.1594    -1.4284     0.3166 H       
  54 H54          -13.1845    -1.9492    -4.4556 H       
  55 H55           -8.7294    -0.3783    -3.0431 H       
  56 H56           -9.9073    -0.9828    -7.9589 H       
  57 H57          -10.6427     0.4795    -7.2217 H       
  58 H58           -9.1319    -3.4783    -6.3338 H       
  59 H59           -7.0413    -4.7158    -6.7471 H       
  60 H60           -4.8985    -3.5080    -6.8458 H       
  61 H61           -4.8352    -1.0739    -6.5343 H       
  62 H62           -0.8688    -0.0038     0.1168 H       
  63 H63           -1.3256    -1.2751    -1.0423 H       
  64 H64            0.8924     1.5825    -0.4092 H       
  65 H65            2.9521     2.0093    -1.6893 H       
  66 H66            3.4350     0.6992    -3.7175 H       
  67 H67            1.8585    -1.0382    -4.4653 H       
  68 H68           -0.1971    -1.4708    -3.1805 H       
  69 H69           -1.3679     2.4251    -0.6772 H       
  70 H70           -2.8958     2.5676    -1.5792 H       
  71 H71           -4.1455     3.6801     0.1430 H       
  72 H72           -5.4067     3.4789     2.2482 H       
  73 H73           -5.0735     1.5186     3.7005 H       
  74 H74           -3.4796    -0.2409     3.0472 H       
  75 H75           -2.2245    -0.0438     0.9379 H       
@<TRIPOS>BOND
   1    1    2 1
   2    1    8 2
   3    1    9 am
   4    2    3 ar
   5    2    7 ar
   6    3    4 ar
   7    3   46 1
   8    4    5 ar
   9    4   10 1
  10    5    6 ar
  11    5   47 1
  12    6    7 ar
  13    6   48 1
  14    7   49 1
  15    9   32 1
  16    9   39 1
  17   10   23 1
  18   10   50 1
  19   10   51 1
  20   11   12 1
  21   11   15 1
  22   12   13 1
  23   12   52 1
  24   12   53 1
  25   13   14 1
  26   14   15 ar
  27   14   16 ar
  28   15   19 ar
  29   16   17 ar
  30   16   54 1
  31   17   18 ar
  32   17   20 1
  33   18   19 ar
  34   18   21 1
  35   19   55 1
  36   20   22 1
  37   21   22 1
  38   21   24 1
  39   21   25 1
  40   22   56 1
  41   22   57 1
  42   23   24 am
  43   23   30 1
  44   24   31 2
  45   25   26 ar
  46   25   30 ar
  47   26   27 ar
  48   26   58 1
  49   27   28 ar
  50   27   59 1
  51   28   29 ar
  52   28   60 1
  53   29   30 ar
  54   29   61 1
  55   32   33 1
  56   32   62 1
  57   32   63 1
  58   33   34 ar
  59   33   38 ar
  60   34   35 ar
  61   34   64 1
  62   35   36 ar
  63   35   65 1
  64   36   37 ar
  65   36   66 1
  66   37   38 ar
  67   37   67 1
  68   38   68 1
  69   39   40 1
  70   39   69 1
  71   39   70 1
  72   40   41 ar
  73   40   45 ar
  74   41   42 ar
  75   41   71 1
  76   42   43 ar
  77   42   72 1
  78   43   44 ar
  79   43   73 1
  80   44   45 ar
  81   44   74 1
  82   45   75 1

#	End of record

