#	Name: ASD00150006
#	Creating user name:	WinNT
#	Creation time:	15. 06. 2019 18:31

#	Modifying user name:	WinNT
#	Modification time:	15. 06. 2019 18:31

#	Program:	/corina/corina34_cracker 3.40 0067  02.08.2006

@<TRIPOS>MOLECULE
ASD00150006
 139  140    0    0    0
SMALL
NO_CHARGES


@<TRIPOS>ATOM
   1 O1             1.3747   -13.3656    -9.3186 O.2     
   2 O2             3.2282    -9.7296    -6.9982 O.2     
   3 O3            -0.4882    -7.4867    -5.4065 O.2     
   4 O4             0.9875    -3.1662    -4.6778 O.2     
   5 O5             5.1558   -15.8724   -10.2645 O.2     
   6 O6            -1.8269    -1.5154    -1.4021 O.2     
   7 O7             0.7019     2.1930    -1.8588 O.3     
   8 O8             3.9814   -18.3652   -13.9770 O.2     
   9 O9            -1.5969   -10.7535   -11.6175 O.3     
  10 O10            5.1681   -19.1047    -7.0373 O.3     
  11 O11            4.7125   -20.5978    -8.6015 O.2     
  12 O12            6.7729   -22.0740   -16.1649 O.3     
  13 O13            7.4894   -21.5258   -14.1476 O.2     
  14 N14            1.8719   -11.3332    -7.7132 N.am    
  15 N15            0.1115    -5.1737    -4.3253 N.am    
  16 N16            1.4365    -7.9008    -6.4293 N.am    
  17 N17            3.4722   -13.9200    -9.7823 N.am    
  18 N18           -0.7324    -1.7245    -3.3205 N.am    
  19 N19            3.9441   -17.0223   -11.7244 N.am    
  20 N20            4.7777    -3.7215    -2.4884 N.2     
  21 N21           -1.9529     1.1393    -1.3815 N.3     
  22 N22            5.7354   -19.6635   -13.5777 N.am    
  23 N23            4.3172    -4.2871    -0.2863 N.pl3   
  24 N24            5.1915    -2.1425    -0.8402 N.pl3   
  25 C25            3.0020   -12.1919    -8.0760 C.3     
  26 C26            3.5085   -12.9218    -6.8304 C.3     
  27 C27            4.7154   -13.7860    -7.2011 C.3     
  28 C28            1.1576    -5.8194    -5.1222 C.3     
  29 C29           -0.9593    -3.1716    -3.3437 C.3     
  30 C30            0.9351    -9.1733    -6.9542 C.3     
  31 C31           -2.3268    -3.4635    -3.9648 C.3     
  32 C32           -3.4269    -2.8957    -3.0657 C.3     
  33 C33            2.3825    -6.0777    -4.2426 C.3     
  34 C34            2.5568   -13.2008    -9.1031 C.2     
  35 C35            2.0946   -10.0976    -7.2230 C.2     
  36 C36            0.1706    -8.9224    -8.2556 C.3     
  37 C37            0.6419    -7.1283    -5.6622 C.2     
  38 C38            0.1168    -3.8357    -4.1635 C.2     
  39 C39            3.0386   -14.9430   -10.7371 C.3     
  40 C40            5.8830   -12.8844    -7.6068 C.3     
  41 C41            5.1227   -14.6368    -5.9964 C.3     
  42 C42            2.9804    -4.7421    -3.7958 C.3     
  43 C43            2.7608   -14.2902   -12.0927 C.3     
  44 C44           -4.7854    -3.0768    -3.7458 C.3     
  45 C45           -3.4241    -3.6360    -1.7268 C.3     
  46 C46           -1.0578    -8.0990    -7.9658 C.ar    
  47 C47            4.1226   -15.9784   -10.8909 C.2     
  48 C48            4.2053    -5.0004    -2.9162 C.3     
  49 C49            4.9980   -18.0289   -11.8739 C.3     
  50 C50           -1.2096    -0.9838    -2.3006 C.2     
  51 C51            1.5949   -13.3440   -11.9652 C.ar    
  52 C52           -0.9762     0.5048    -2.2767 C.3     
  53 C53            4.8623   -19.0775   -10.7680 C.3     
  54 C54           -0.9911    -6.7190    -8.0098 C.ar    
  55 C55           -2.2528    -8.7238    -7.6614 C.ar    
  56 C56            4.8675   -18.6971   -13.2183 C.2     
  57 C57            1.8137   -12.0200   -11.6322 C.ar    
  58 C58            0.3086   -13.8000   -12.1871 C.ar    
  59 C59            5.1184   -18.4219    -9.4094 C.3     
  60 C60            0.4395     0.7910    -1.7718 C.3     
  61 C61           -2.1179    -5.9637    -7.7439 C.ar    
  62 C62           -3.3796    -7.9685    -7.3956 C.ar    
  63 C63           -3.3115    -6.5884    -7.4344 C.ar    
  64 C64            0.7466   -11.1506   -11.5151 C.ar    
  65 C65           -0.7619   -12.9346   -12.0712 C.ar    
  66 C66           -0.5455   -11.6069   -11.7320 C.ar    
  67 C67            4.7624    -3.3898    -1.2280 C.2     
  68 C68            4.9847   -19.4547    -8.3201 C.2     
  69 C69            5.6085   -20.3131   -14.8847 C.3     
  70 C70            6.6926   -21.3485   -15.0384 C.2     
  71 H71            3.8040   -11.5812    -8.4906 H       
  72 H72            3.8022   -12.1920    -6.0759 H       
  73 H73            2.7158   -13.5558    -6.4333 H       
  74 H74            4.4532   -14.4380    -8.0343 H       
  75 H75            1.4363    -5.1689    -5.9513 H       
  76 H76           -0.9322    -3.5601    -2.3257 H       
  77 H77            0.2680    -9.6303    -6.2233 H       
  78 H78           -2.3857    -2.9985    -4.9488 H       
  79 H79           -2.4584    -4.5410    -4.0636 H       
  80 H80           -3.2448    -1.8347    -2.8947 H       
  81 H81            0.9634   -11.6538    -7.8257 H       
  82 H82            2.0856    -6.6541    -3.3665 H       
  83 H83            3.1262    -6.6368    -4.8105 H       
  84 H84            0.8110    -8.3857    -8.9555 H       
  85 H85           -0.1259    -9.8760    -8.6924 H       
  86 H86           -0.5849    -5.7093    -3.9140 H       
  87 H87            2.1297   -15.4202   -10.3706 H       
  88 H88            2.3403    -7.6142    -6.6338 H       
  89 H89            4.2909   -15.2791    -5.7073 H       
  90 H90            6.7300   -13.5005    -7.9087 H       
  91 H91            5.5798   -12.2502    -8.4399 H       
  92 H92            6.1710   -12.2601    -6.7610 H       
  93 H93            5.9825   -15.2525    -6.2605 H       
  94 H94            5.3849   -13.9848    -5.1632 H       
  95 H95            4.4181   -13.7604    -9.6388 H       
  96 H96            3.2773    -4.1656    -4.6720 H       
  97 H97            2.2367    -4.1829    -3.2280 H       
  98 H98           -0.2386    -1.2994    -4.0391 H       
  99 H99            3.6428   -13.7383   -12.4177 H       
 100 H100           2.5244   -15.0615   -12.8258 H       
 101 H101          -2.4562    -3.5070    -1.2423 H       
 102 H102          -4.2078    -3.2315    -1.0863 H       
 103 H103          -3.6062    -4.6970    -1.8979 H       
 104 H104          -4.9675    -4.1377    -3.9169 H       
 105 H105          -5.5691    -2.6722    -3.1053 H       
 106 H106          -4.7874    -2.5493    -4.6997 H       
 107 H107           4.9490    -5.5595    -3.4840 H       
 108 H108           3.9084    -5.5768    -2.0400 H       
 109 H109           5.9732   -17.5476   -11.8005 H       
 110 H110           3.1179   -17.1072   -12.2254 H       
 111 H111          -1.0911     0.9068    -3.2833 H       
 112 H112           3.8560   -19.4959   -10.7855 H       
 113 H113           5.5895   -19.8730   -10.9304 H       
 114 H114          -0.0585    -6.2309    -8.2516 H       
 115 H115          -2.3061    -9.8021    -7.6317 H       
 116 H116           2.8197   -11.6654   -11.4631 H       
 117 H117           0.1406   -14.8336   -12.4515 H       
 118 H118           6.1247   -18.0035    -9.3919 H       
 119 H119           4.3912   -17.6264    -9.2471 H       
 120 H120           1.1601     0.2478    -2.3832 H       
 121 H121           0.5273     0.4686    -0.7343 H       
 122 H122          -2.0655    -4.8855    -7.7776 H       
 123 H123          -4.3132    -8.4567    -7.1582 H       
 124 H124          -4.1918    -5.9983    -7.2264 H       
 125 H125          -1.8665     0.7831    -0.4414 H       
 126 H126          -1.8590     2.1438    -1.3977 H       
 127 H127           0.9180   -10.1166   -11.2546 H       
 128 H128          -1.7665   -13.2912   -12.2450 H       
 129 H129           6.4441   -19.9290   -12.9709 H       
 130 H130           4.6333   -20.7944   -14.9580 H       
 131 H131           5.7052   -19.5661   -15.6725 H       
 132 H132           1.5838     2.4477    -1.5545 H       
 133 H133           3.9375    -5.1349    -0.5656 H       
 134 H134           4.3828    -4.0724     0.6574 H       
 135 H135           5.5056    -1.5094    -1.5046 H       
 136 H136           5.1801    -1.8956     0.0978 H       
 137 H137          -1.8293   -10.3030   -12.4409 H       
 138 H138           5.0718   -19.8018    -6.3740 H       
 139 H139           7.4851   -22.7260   -16.2174 H       
@<TRIPOS>BOND
   1    1   34 2
   2    2   35 2
   3    3   37 2
   4    4   38 2
   5    5   47 2
   6    6   50 2
   7    7   60 1
   8    7  132 1
   9    8   56 2
  10    9   66 1
  11    9  137 1
  12   10   68 1
  13   10  138 1
  14   11   68 2
  15   12   70 1
  16   12  139 1
  17   13   70 2
  18   14   35 am
  19   14   81 1
  20   14   25 1
  21   15   38 am
  22   15   86 1
  23   15   28 1
  24   16   37 am
  25   16   88 1
  26   16   30 1
  27   17   34 am
  28   17   95 1
  29   17   39 1
  30   18   50 am
  31   18   98 1
  32   18   29 1
  33   19   47 am
  34   19  110 1
  35   19   49 1
  36   20   48 1
  37   20   67 2
  38   21  125 1
  39   21  126 1
  40   21   52 1
  41   22   56 am
  42   22   69 1
  43   22  129 1
  44   23   67 1
  45   23  133 1
  46   23  134 1
  47   24   67 1
  48   24  135 1
  49   24  136 1
  50   25   26 1
  51   25   34 1
  52   25   71 1
  53   26   27 1
  54   26   72 1
  55   26   73 1
  56   27   40 1
  57   27   41 1
  58   27   74 1
  59   28   33 1
  60   28   37 1
  61   28   75 1
  62   29   31 1
  63   29   38 1
  64   29   76 1
  65   30   35 1
  66   30   36 1
  67   30   77 1
  68   31   32 1
  69   31   78 1
  70   31   79 1
  71   32   44 1
  72   32   45 1
  73   32   80 1
  74   33   42 1
  75   33   82 1
  76   33   83 1
  77   36   46 1
  78   36   84 1
  79   36   85 1
  80   39   43 1
  81   39   47 1
  82   39   87 1
  83   40   90 1
  84   40   91 1
  85   40   92 1
  86   41   89 1
  87   41   93 1
  88   41   94 1
  89   42   48 1
  90   42   96 1
  91   42   97 1
  92   43   51 1
  93   43   99 1
  94   43  100 1
  95   44  104 1
  96   44  105 1
  97   44  106 1
  98   45  101 1
  99   45  102 1
 100   45  103 1
 101   46   54 ar
 102   46   55 ar
 103   48  107 1
 104   48  108 1
 105   49   53 1
 106   49   56 1
 107   49  109 1
 108   50   52 1
 109   51   57 ar
 110   51   58 ar
 111   52   60 1
 112   52  111 1
 113   53   59 1
 114   53  112 1
 115   53  113 1
 116   54   61 ar
 117   54  114 1
 118   55   62 ar
 119   55  115 1
 120   57   64 ar
 121   57  116 1
 122   58   65 ar
 123   58  117 1
 124   59   68 1
 125   59  118 1
 126   59  119 1
 127   60  120 1
 128   60  121 1
 129   61   63 ar
 130   61  122 1
 131   62   63 ar
 132   62  123 1
 133   63  124 1
 134   64   66 ar
 135   64  127 1
 136   65   66 ar
 137   65  128 1
 138   69   70 1
 139   69  130 1
 140   69  131 1

#	End of record

