#	Name: ASD01883847
#	Creating user name:	WinNT
#	Creation time:	15. 06. 2019 19:47

#	Modifying user name:	WinNT
#	Modification time:	15. 06. 2019 19:47

#	Program:	/corina/corina34_cracker 3.40 0067  02.08.2006

@<TRIPOS>MOLECULE
ASD01883847
  48   52    0    0    0
SMALL
NO_CHARGES


@<TRIPOS>ATOM
   1 O1            -0.0163     1.3537     0.0095 O.3     
   2 C2             0.0132     0.0116     0.2141 C.2     
   3 C3            -0.4157    -1.9093     1.5734 C.2     
   4 C4            -0.4562    -0.5158     1.3845 C.2     
   5 C5             0.5227    -0.8465    -0.7819 C.2     
   6 C6             0.5523    -2.1793    -0.5816 C.2     
   7 N7            -0.5345    -3.9270     2.2527 N.2     
   8 N8            -0.7826    -2.7041     2.5668 N.2     
   9 N9             0.0909    -2.7166     0.5846 N.pl3   
  10 C10           -0.0043    -3.9909     1.0595 C.2     
  11 C11            0.4239    -5.2442     0.3405 C.3     
  12 C12           -0.7472    -5.7858    -0.4818 C.3     
  13 C13           -0.4797    -6.9943    -1.3812 C.3     
  14 C14           -1.3016    -7.1601    -0.1014 C.3     
  15 Cl15          -1.0936     0.5208     2.6225 Cl      
  16 C16            1.2425     2.0218    -0.0953 C.3     
  17 C17            1.0156     3.5083    -0.1941 C.ar    
  18 C18            0.9647     4.2749     0.9523 C.ar    
  19 C19            0.7553     5.6495     0.8595 C.ar    
  20 C20            0.5983     6.2422    -0.3916 C.ar    
  21 C21            0.6509     5.4658    -1.5317 C.ar    
  22 C22            0.8643     4.1028    -1.4340 C.ar    
  23 C23            0.6992     6.4789     2.0887 C.ar    
  24 C24            0.4897     7.8533     1.9959 C.ar    
  25 C25            0.4380     8.6199     3.1424 C.ar    
  26 C26            0.5941     8.0262     4.3820 C.ar    
  27 C27            0.8027     6.6623     4.4799 C.ar    
  28 C28            0.8500     5.8853     3.3402 C.ar    
  29 H29            0.8908    -0.4341    -1.7098 H       
  30 H30            0.9444    -2.8275    -1.3512 H       
  31 H31            1.2584    -5.0157    -0.3224 H       
  32 H32            0.7333    -5.9934     1.0693 H       
  33 H33           -1.4553    -5.0386    -0.8402 H       
  34 H34           -1.0121    -7.0424    -2.3311 H       
  35 H35            0.5306    -7.4035    -1.3870 H       
  36 H36           -0.8321    -7.6784     0.7347 H       
  37 H37           -2.3748    -7.3173    -0.2094 H       
  38 H38            1.8441     1.8039     0.7872 H       
  39 H39            1.7653     1.6741    -0.9863 H       
  40 H40            1.0867     3.8104     1.9196 H       
  41 H41            0.4353     7.3070    -0.4692 H       
  42 H42            0.5289     5.9241    -2.5020 H       
  43 H43            0.9050     3.4992    -2.3287 H       
  44 H44            0.3685     8.3180     1.0285 H       
  45 H45            0.2757     9.6853     3.0716 H       
  46 H46            0.5532     8.6299     5.2766 H       
  47 H47            0.9243     6.2040     5.4502 H       
  48 H48            1.0082     4.8198     3.4181 H       
@<TRIPOS>BOND
   1    1    2 1
   2    1   16 1
   3    2    5 1
   4    2    4 2
   5    3    4 1
   6    3    9 1
   7    3    8 2
   8    4   15 1
   9    5    6 2
  10    5   29 1
  11    6    9 1
  12    6   30 1
  13    7    8 1
  14    7   10 2
  15    9   10 1
  16   10   11 1
  17   11   12 1
  18   11   31 1
  19   11   32 1
  20   12   13 1
  21   12   14 1
  22   12   33 1
  23   13   14 1
  24   13   34 1
  25   13   35 1
  26   14   36 1
  27   14   37 1
  28   16   17 1
  29   16   38 1
  30   16   39 1
  31   17   18 ar
  32   17   22 ar
  33   18   19 ar
  34   18   40 1
  35   19   20 ar
  36   19   23 1
  37   20   21 ar
  38   20   41 1
  39   21   22 ar
  40   21   42 1
  41   22   43 1
  42   23   24 ar
  43   23   28 ar
  44   24   25 ar
  45   24   44 1
  46   25   26 ar
  47   25   45 1
  48   26   27 ar
  49   26   46 1
  50   27   28 ar
  51   27   47 1
  52   28   48 1

#	End of record

