#	Name: ASD08150361
#	Creating user name:	WinNT
#	Creation time:	15. 06. 2019 21:15

#	Modifying user name:	WinNT
#	Modification time:	15. 06. 2019 21:15

#	Program:	/corina/corina34_cracker 3.40 0067  02.08.2006

@<TRIPOS>MOLECULE
ASD08150361
  49   53    0    0    0
SMALL
NO_CHARGES


@<TRIPOS>ATOM
   1 C1             1.0508    -0.2094     1.0485 C.3     
   2 N2             1.5679    -4.3438    -1.5627 N.am    
   3 C3             2.6704    -4.3715    -2.3364 C.2     
   4 C4             2.6636    -5.0305    -3.5825 C.2     
   5 C5             1.5385    -5.6501    -4.0215 C.2     
   6 C6             0.3769    -5.6234    -3.2099 C.ar    
   7 C7            -0.8159    -6.2506    -3.6178 C.ar    
   8 N8            -1.8861    -6.2243    -2.8671 N.ar    
   9 C9            -1.9125    -5.6061    -1.6766 C.ar    
  10 C10           -0.7573    -4.9490    -1.1862 C.ar    
  11 C11            0.4171    -4.9582    -1.9749 C.ar    
  12 C12           -0.7957    -4.3063     0.0551 C.ar    
  13 C13           -1.9674    -4.3196     0.7941 C.ar    
  14 C14           -3.1065    -4.9723     0.3025 C.ar    
  15 C15           -3.0845    -5.6022    -0.9026 C.ar    
  16 O16            3.6876    -3.8188    -1.9538 O.2     
  17 C17           -2.0168    -3.6404     2.1119 C.ar    
  18 C18            1.6017    -3.6870    -0.3263 C.ar    
  19 C19            1.9157    -4.3930     0.8279 C.ar    
  20 C20            1.9485    -3.7435     2.0459 C.ar    
  21 C21            1.6684    -2.3889     2.1173 C.ar    
  22 C22            1.3551    -1.6832     0.9678 C.ar    
  23 C23            1.3269    -2.3279    -0.2533 C.ar    
  24 F24            1.7001    -1.7555     3.3102 F       
  25 C25           -1.3291    -2.4476     2.3176 C.ar    
  26 N26           -1.3705    -1.8409     3.4870 N.ar    
  27 C27           -2.0594    -2.3334     4.5033 C.ar    
  28 C28           -2.7720    -3.5201     4.3745 C.ar    
  29 C29           -2.7600    -4.1864     3.1644 C.ar    
  30 O30           -2.0703    -1.6717     5.6875 O.3     
  31 C31           -1.3191    -0.4582     5.7595 C.3     
  32 H32            1.9729     0.3591     0.9275 H       
  33 H33            0.3509     0.0609     0.2578 H       
  34 H34            0.6085     0.0177     2.0185 H       
  35 H35            3.5564    -5.0421    -4.1901 H       
  36 H36            1.5286    -6.1559    -4.9757 H       
  37 H37           -0.8476    -6.7624    -4.5683 H       
  38 H38            0.0816    -3.8038     0.4350 H       
  39 H39           -4.0134    -4.9754     0.8889 H       
  40 H40           -3.9714    -6.0999    -1.2661 H       
  41 H41            2.1338    -5.4493     0.7727 H       
  42 H42            2.1926    -4.2921     2.9435 H       
  43 H43            1.0871    -1.7761    -1.1503 H       
  44 H44           -0.7557    -2.0151     1.5110 H       
  45 H45           -3.3316    -3.9146     5.2097 H       
  46 H46           -3.3048    -5.1100     3.0360 H       
  47 H47           -0.2700    -0.6674     5.5506 H       
  48 H48           -1.7017     0.2501     5.0246 H       
  49 H49           -1.4127    -0.0316     6.7582 H       
@<TRIPOS>BOND
   1    1   22 1
   2    1   32 1
   3    1   33 1
   4    1   34 1
   5    2    3 am
   6    2   11 1
   7    2   18 1
   8    3    4 1
   9    3   16 2
  10    4    5 2
  11    4   35 1
  12    5    6 1
  13    5   36 1
  14    6    7 ar
  15    6   11 ar
  16    7    8 ar
  17    7   37 1
  18    8    9 ar
  19    9   10 ar
  20    9   15 ar
  21   10   11 ar
  22   10   12 ar
  23   12   13 ar
  24   12   38 1
  25   13   14 ar
  26   13   17 1
  27   14   15 ar
  28   14   39 1
  29   15   40 1
  30   17   25 ar
  31   17   29 ar
  32   18   19 ar
  33   18   23 ar
  34   19   20 ar
  35   19   41 1
  36   20   21 ar
  37   20   42 1
  38   21   22 ar
  39   21   24 1
  40   22   23 ar
  41   23   43 1
  42   25   26 ar
  43   25   44 1
  44   26   27 ar
  45   27   28 ar
  46   27   30 1
  47   28   29 ar
  48   28   45 1
  49   29   46 1
  50   30   31 1
  51   31   47 1
  52   31   48 1
  53   31   49 1

#	End of record

