#	Name: ASD02030809
#	Creating user name:	WinNT
#	Creation time:	15. 06. 2019 20:16

#	Modifying user name:	WinNT
#	Modification time:	15. 06. 2019 20:16

#	Program:	/corina/corina34_cracker 3.40 0067  02.08.2006

@<TRIPOS>MOLECULE
ASD02030809
  37   38    0    0    0
SMALL
NO_CHARGES


@<TRIPOS>ATOM
   1 C1            -0.0187     1.5258     0.0104 C.3     
   2 C2             0.0021    -0.0041     0.0020 C.3     
   3 O3            -1.3386    -0.4987     0.0122 O.3     
   4 C4            -1.4985    -1.8495     0.0064 C.ar    
   5 C5            -0.3877    -2.6782    -0.0028 C.ar    
   6 C6            -0.5421    -4.0548    -0.0087 C.ar    
   7 Cl7            0.8577    -5.0815    -0.0209 Cl      
   8 C8            -1.8047    -4.6139    -0.0045 C.ar    
   9 Cl9           -1.9904    -6.3399    -0.0107 Cl      
  10 C10           -2.9338    -3.7884     0.0053 C.ar    
  11 C11           -4.2834    -4.3800     0.0104 C.2     
  12 N12           -4.4266    -5.6703     0.0057 N.2     
  13 N13           -5.7097    -6.2327     0.0105 N.am    
  14 C14           -5.8584    -7.5722     0.0057 C.2     
  15 O15           -4.8788    -8.2927    -0.0028 O.2     
  16 C16           -7.2115    -8.1653     0.0108 C.ar    
  17 C17           -8.3383    -7.3412     0.0147 C.ar    
  18 C18           -9.5989    -7.9015     0.0189 C.ar    
  19 C19           -9.7486    -9.2771     0.0193 C.ar    
  20 C20           -8.6370   -10.1005     0.0154 C.ar    
  21 C21           -7.3693    -9.5536     0.0058 C.ar    
  22 Br22          -5.8508   -10.6804    -0.0075 Br      
  23 C23           -2.7754    -2.3975     0.0157 C.ar    
  24 O24           -3.8660    -1.5865     0.0300 O.3     
  25 H25            1.0039     1.9031     0.0027 H       
  26 H26           -0.5459     1.8868    -0.8726 H       
  27 H27           -0.5289     1.8773     0.9072 H       
  28 H28            0.5123    -0.3556    -0.8948 H       
  29 H29            0.5293    -0.3651     0.8851 H       
  30 H30            0.6032    -2.2486    -0.0058 H       
  31 H31           -5.1534    -3.7401     0.0180 H       
  32 H32           -6.4911    -5.6580     0.0173 H       
  33 H33           -8.2234    -6.2674     0.0148 H       
  34 H34          -10.4712    -7.2648     0.0223 H       
  35 H35          -10.7380    -9.7100     0.0230 H       
  36 H36           -8.7611   -11.1734     0.0157 H       
  37 H37           -4.1899    -1.3473    -0.8492 H       
@<TRIPOS>BOND
   1    1    2 1
   2    1   25 1
   3    1   26 1
   4    1   27 1
   5    2    3 1
   6    2   28 1
   7    2   29 1
   8    3    4 1
   9    4   23 ar
  10    4    5 ar
  11    5    6 ar
  12    5   30 1
  13    6    7 1
  14    6    8 ar
  15    8    9 1
  16    8   10 ar
  17   10   11 1
  18   10   23 ar
  19   11   12 2
  20   11   31 1
  21   12   13 1
  22   13   14 am
  23   13   32 1
  24   14   15 2
  25   14   16 1
  26   16   21 ar
  27   16   17 ar
  28   17   18 ar
  29   17   33 1
  30   18   19 ar
  31   18   34 1
  32   19   20 ar
  33   19   35 1
  34   20   21 ar
  35   20   36 1
  36   21   22 1
  37   23   24 1
  38   24   37 1

#	End of record

