#	Name: ASD02198071
#	Creating user name:	WinNT
#	Creation time:	15. 06. 2019 20:18

#	Modifying user name:	WinNT
#	Modification time:	15. 06. 2019 20:18

#	Program:	/corina/corina34_cracker 3.40 0067  02.08.2006

@<TRIPOS>MOLECULE
ASD02198071
  44   45    0    0    0
SMALL
NO_CHARGES


@<TRIPOS>ATOM
   1 C1            -0.0166     1.3754     0.0096 C.2     
   2 C2             0.0021    -0.0041     0.0020 C.2     
   3 C3            -1.1878    -0.8007     0.0087 C.1     
   4 S4             1.5674     2.0057    -0.0021 S.3     
   5 C5             2.2773     0.3993    -0.0175 C.2     
   6 C6             1.2821    -0.5521    -0.0131 C.2     
   7 C7             3.6563     0.1257    -0.0331 C.2     
   8 C8             4.6330     1.2405    -0.0370 C.ar    
   9 O9             4.0487    -1.0286    -0.0434 O.2     
  10 N10            1.5289    -1.9150    -0.0228 N.pl3   
  11 N11           -1.1592     2.1392     0.0194 N.pl3   
  12 N12           -2.1318    -1.4327     0.0139 N.1     
  13 C13            5.9981     0.9628    -0.0524 C.ar    
  14 C14            6.8990     2.0155    -0.0558 C.ar    
  15 C15            6.4035     3.3103    -0.0437 C.ar    
  16 C16            5.0334     3.5130    -0.0286 C.ar    
  17 N17            4.1997     2.4952    -0.0311 N.ar    
  18 C18           -1.0631     3.6010     0.0268 C.3     
  19 C19           -2.3371     4.1990    -0.5733 C.3     
  20 C20           -0.8996     4.0865     1.4441 C.2     
  21 O21           -0.8667     3.2928     2.3546 O.2     
  22 O22           -0.7904     5.4006     1.6951 O.3     
  23 C23           -0.6354     5.7959     3.0836 C.3     
  24 C24           -2.4382     3.8076    -2.0489 C.3     
  25 S25           -3.9487     4.5166    -2.7604 S.3     
  26 C26           -3.8921     3.9522    -4.4834 C.3     
  27 H27            2.4419    -2.2425    -0.0333 H       
  28 H28            0.7888    -2.5420    -0.0191 H       
  29 H29           -2.0293     1.7104     0.0213 H       
  30 H30            6.3492    -0.0585    -0.0612 H       
  31 H31            7.9632     1.8316    -0.0673 H       
  32 H32            7.0793     4.1527    -0.0456 H       
  33 H33            4.6440     4.5204    -0.0191 H       
  34 H34           -0.2021     3.9115    -0.5652 H       
  35 H35           -3.2055     3.8179    -0.0359 H       
  36 H36           -2.3043     5.2851    -0.4869 H       
  37 H37           -1.4999     5.4592     3.6559 H       
  38 H38            0.2687     5.3437     3.4914 H       
  39 H39           -0.5587     6.8814     3.1460 H       
  40 H40           -1.5698     4.1888    -2.5862 H       
  41 H41           -2.4710     2.7215    -2.1353 H       
  42 H42           -4.7664     4.3252    -5.0169 H       
  43 H43           -2.9873     4.3297    -4.9599 H       
  44 H44           -3.8885     2.8625    -4.5089 H       
@<TRIPOS>BOND
   1    1    2 2
   2    1    4 1
   3    1   11 1
   4    2    3 1
   5    2    6 1
   6    3   12 3
   7    4    5 1
   8    5    6 2
   9    5    7 1
  10    6   10 1
  11    7    8 1
  12    7    9 2
  13    8   13 ar
  14    8   17 ar
  15   10   27 1
  16   10   28 1
  17   11   18 1
  18   11   29 1
  19   13   14 ar
  20   13   30 1
  21   14   15 ar
  22   14   31 1
  23   15   16 ar
  24   15   32 1
  25   16   17 ar
  26   16   33 1
  27   18   19 1
  28   18   20 1
  29   18   34 1
  30   19   24 1
  31   19   35 1
  32   19   36 1
  33   20   21 2
  34   20   22 1
  35   22   23 1
  36   23   37 1
  37   23   38 1
  38   23   39 1
  39   24   25 1
  40   24   40 1
  41   24   41 1
  42   25   26 1
  43   26   42 1
  44   26   43 1
  45   26   44 1

#	End of record

