#	Name: ASD01190067
#	Creating user name:	WinNT
#	Creation time:	15. 06. 2019 19:07

#	Modifying user name:	WinNT
#	Modification time:	15. 06. 2019 19:07

#	Program:	/corina/corina34_cracker 3.40 0067  02.08.2006

@<TRIPOS>MOLECULE
ASD01190067
  33   36    0    0    0
SMALL
NO_CHARGES


@<TRIPOS>ATOM
   1 N1             0.0175    -1.1399    -0.0042 N.1     
   2 C2             0.0021    -0.0041     0.0020 C.1     
   3 C3            -0.0173     1.4278     0.0099 C.ar    
   4 C4            -1.2371     2.1108     0.0310 C.ar    
   5 C5            -1.2544     3.4866     0.0391 C.ar    
   6 C6            -0.0549     4.2004     0.0261 C.ar    
   7 C7             1.1634     3.5196     0.0050 C.ar    
   8 C8             1.1835     2.1438     0.0023 C.ar    
   9 C9            -0.0750     5.6818     0.0343 C.2     
  10 C10            1.0117     6.4941     0.0179 C.2     
  11 N11            0.5488     7.8022     0.0334 N.pl3   
  12 C12            1.0904     9.0801     0.0307 C.2     
  13 C13            2.5979     9.3136     0.0082 C.3     
  14 C14            2.8698    10.7495    -0.4417 C.3     
  15 C15            2.0477    11.7190     0.4129 C.3     
  16 C16            0.5661    11.5595     0.0500 C.3     
  17 C17            0.2276    10.0930     0.0498 C.2     
  18 S18           -1.3918     9.3880     0.0757 S.3     
  19 C19           -0.8067     7.7177     0.0578 C.2     
  20 N20           -1.1768     6.4593     0.0534 N.2     
  21 H21           -2.1653     1.5588     0.0407 H       
  22 H22           -2.1965     4.0145     0.0551 H       
  23 H23            2.0908     4.0730    -0.0054 H       
  24 H24            2.1264     1.6173    -0.0099 H       
  25 H25            2.0451     6.1807    -0.0029 H       
  26 H26            3.0060     9.1606     1.0072 H       
  27 H27            3.0647     8.6179    -0.6892 H       
  28 H28            3.9304    10.9719    -0.3246 H       
  29 H29            2.5893    10.8611    -1.4890 H       
  30 H30            2.1924    11.4890     1.4684 H       
  31 H31            2.3651    12.7424     0.2125 H       
  32 H32           -0.0488    12.0770     0.7864 H       
  33 H33            0.3849    11.9771    -0.9404 H       
@<TRIPOS>BOND
   1    1    2 3
   2    2    3 1
   3    3    8 ar
   4    3    4 ar
   5    4    5 ar
   6    4   21 1
   7    5    6 ar
   8    5   22 1
   9    6    7 ar
  10    6    9 1
  11    7    8 ar
  12    7   23 1
  13    8   24 1
  14    9   20 1
  15    9   10 2
  16   10   11 1
  17   10   25 1
  18   11   19 1
  19   11   12 1
  20   12   17 2
  21   12   13 1
  22   13   14 1
  23   13   26 1
  24   13   27 1
  25   14   15 1
  26   14   28 1
  27   14   29 1
  28   15   16 1
  29   15   30 1
  30   15   31 1
  31   16   17 1
  32   16   32 1
  33   16   33 1
  34   17   18 1
  35   18   19 1
  36   19   20 2

#	End of record

