#	Name: ASD09080011
#	Creating user name:	WinNT
#	Creation time:	15. 06. 2019 21:20

#	Modifying user name:	WinNT
#	Modification time:	15. 06. 2019 21:20

#	Program:	/corina/corina34_cracker 3.40 0067  02.08.2006

@<TRIPOS>MOLECULE
ASD09080011
  88   92    0    0    0
SMALL
NO_CHARGES


@<TRIPOS>ATOM
   1 C1            -1.9273    -1.2299    -2.0451 C.ar    
   2 C2            -2.4560    -2.3076    -2.7341 C.ar    
   3 C3            -3.8228    -2.4072    -2.9290 C.ar    
   4 C4            -4.6661    -1.4303    -2.4362 C.ar    
   5 C5            -4.1388    -0.3438    -1.7416 C.ar    
   6 C6            -2.7628    -0.2508    -1.5434 C.ar    
   7 Cl7           -0.2121    -1.1121    -1.8048 Cl      
   8 Cl8           -4.4783    -3.7617    -3.7947 Cl      
   9 C9            -5.0401     0.7086    -1.2105 C.ar    
  10 C10           -4.5262     1.7383    -0.4249 C.ar    
  11 C11           -5.3690     2.7148     0.0660 C.ar    
  12 C12           -6.7216     2.6724    -0.2202 C.ar    
  13 C13           -7.2372     1.6523    -0.9992 C.ar    
  14 C14           -6.4025     0.6740    -1.5004 C.ar    
  15 C15           -7.6370     3.7412     0.3191 C.3     
  16 C16           -7.6339     4.9415    -0.6296 C.3     
  17 C17           -8.6755     5.9614    -0.1650 C.3     
  18 C18           -8.9404     7.0227    -1.2620 C.3     
  19 O19          -10.2851     7.4580    -0.9769 O.3     
  20 O20           -9.9791     5.3462    -0.0300 O.3     
  21 C21          -10.9142     6.4232    -0.2094 C.3     
  22 C22          -11.3297     6.9759     1.1554 C.3     
  23 C23          -12.1506     5.9122    -0.9516 C.3     
  24 N24           -5.3009     5.0690    -1.4676 N.am    
  25 C25           -9.3611     8.4964    -5.1539 C.ar    
  26 C26           -8.8801     9.7141    -5.5975 C.ar    
  27 C27           -7.5191     9.9083    -5.7424 C.ar    
  28 C28           -6.6392     8.8848    -5.4438 C.ar    
  29 C29           -7.1202     7.6672    -5.0002 C.ar    
  30 C30           -8.4812     7.4729    -4.8553 C.ar    
  31 C31           -6.1610     6.5514    -4.6746 C.3     
  32 O32           -6.1825     6.2963    -3.2454 O.3     
  33 C33           -5.2671     5.4340    -2.7646 C.2     
  34 O34           -4.4104     4.9847    -3.5000 O.2     
  35 N35           -6.3071     5.5627    -0.6270 N.am    
  36 C36           -0.7764     8.3133     1.5893 C.ar    
  37 C37           -0.5580     9.5409     0.9923 C.ar    
  38 C38           -1.6262    10.2770     0.5148 C.ar    
  39 C39           -2.9127     9.7855     0.6341 C.ar    
  40 C40           -3.1311     8.5580     1.2311 C.ar    
  41 C41           -2.0629     7.8219     1.7086 C.ar    
  42 C42           -4.5336     8.0222     1.3612 C.3     
  43 O43           -4.8097     7.1162     0.2607 O.3     
  44 C44           -6.0545     6.6090     0.1840 C.2     
  45 O45           -6.9502     7.0947     0.8460 O.2     
  46 C46           -7.9715     8.1703    -1.1378 C.2     
  47 O47           -8.3721     9.2689    -0.8339 O.2     
  48 O48           -6.6635     7.9719    -1.3649 O.3     
  49 C49           -4.4816     8.8068    -2.0521 C.3     
  50 C50           -5.8106     9.1470    -1.3747 C.3     
  51 H51           -1.8000    -3.0732    -3.1213 H       
  52 H52           -5.7323    -1.5085    -2.5893 H       
  53 H53           -2.3494     0.5896    -1.0056 H       
  54 H54           -3.4703     1.7720    -0.2003 H       
  55 H55           -4.9717     3.5134     0.6750 H       
  56 H56           -8.2942     1.6237    -1.2193 H       
  57 H57           -6.8061    -0.1219    -2.1088 H       
  58 H58           -8.6492     3.3453     0.4009 H       
  59 H59           -7.2889     4.0550     1.3032 H       
  60 H60           -7.8770     4.6079    -1.6385 H       
  61 H61           -8.3674     6.4332     0.7681 H       
  62 H62           -8.8828     6.5741    -2.2538 H       
  63 H63          -10.4492     7.3450     1.6814 H       
  64 H64          -12.0386     7.7922     1.0164 H       
  65 H65          -11.7974     6.1844     1.7409 H       
  66 H66          -12.6204     5.1180    -0.3713 H       
  67 H67          -12.8577     6.7307    -1.0862 H       
  68 H68          -11.8547     5.5237    -1.9261 H       
  69 H69           -4.6286     4.4646    -1.1162 H       
  70 H70          -10.4241     8.3461    -5.0364 H       
  71 H71           -9.5676    10.5135    -5.8312 H       
  72 H72           -7.1434    10.8594    -6.0897 H       
  73 H73           -5.5760     9.0364    -5.5577 H       
  74 H74           -8.8570     6.5217    -4.5084 H       
  75 H75           -6.4581     5.6492    -5.2093 H       
  76 H76           -5.1539     6.8382    -4.9774 H       
  77 H77            0.0585     7.7362     1.9584 H       
  78 H78            0.4471     9.9250     0.8994 H       
  79 H79           -1.4557    11.2363     0.0490 H       
  80 H80           -3.7473    10.3609     0.2616 H       
  81 H81           -2.2335     6.8627     2.1747 H       
  82 H82           -4.6320     7.4872     2.3057 H       
  83 H83           -5.2424     8.8499     1.3370 H       
  84 H84           -3.8979     8.1560    -1.4010 H       
  85 H85           -4.6749     8.2974    -2.9962 H       
  86 H86           -3.9251     9.7246    -2.2419 H       
  87 H87           -6.3035     9.9492    -1.9239 H       
  88 H88           -5.6242     9.4692    -0.3502 H       
@<TRIPOS>BOND
   1    1    2 ar
   2    1    7 1
   3    1    6 ar
   4    2    3 ar
   5    2   51 1
   6    3    4 ar
   7    3    8 1
   8    4    5 ar
   9    4   52 1
  10    5    6 ar
  11    5    9 1
  12    6   53 1
  13    9   10 ar
  14    9   14 ar
  15   10   11 ar
  16   10   54 1
  17   11   12 ar
  18   11   55 1
  19   12   13 ar
  20   12   15 1
  21   13   14 ar
  22   13   56 1
  23   14   57 1
  24   15   16 1
  25   15   58 1
  26   15   59 1
  27   16   35 1
  28   16   17 1
  29   16   60 1
  30   17   18 1
  31   17   20 1
  32   17   61 1
  33   18   19 1
  34   18   46 1
  35   18   62 1
  36   19   21 1
  37   20   21 1
  38   21   22 1
  39   21   23 1
  40   22   63 1
  41   22   64 1
  42   22   65 1
  43   23   66 1
  44   23   67 1
  45   23   68 1
  46   24   33 am
  47   24   35 1
  48   24   69 1
  49   25   26 ar
  50   25   30 ar
  51   25   70 1
  52   26   27 ar
  53   26   71 1
  54   27   28 ar
  55   27   72 1
  56   28   29 ar
  57   28   73 1
  58   29   30 ar
  59   29   31 1
  60   30   74 1
  61   31   32 1
  62   31   75 1
  63   31   76 1
  64   32   33 1
  65   33   34 2
  66   35   44 am
  67   36   37 ar
  68   36   41 ar
  69   36   77 1
  70   37   38 ar
  71   37   78 1
  72   38   39 ar
  73   38   79 1
  74   39   40 ar
  75   39   80 1
  76   40   41 ar
  77   40   42 1
  78   41   81 1
  79   42   43 1
  80   42   82 1
  81   42   83 1
  82   43   44 1
  83   44   45 2
  84   46   47 2
  85   46   48 1
  86   48   50 1
  87   49   50 1
  88   49   84 1
  89   49   85 1
  90   49   86 1
  91   50   87 1
  92   50   88 1

#	End of record

