#	Name: ASD03092563
#	Creating user name:	WinNT
#	Creation time:	15. 06. 2019 20:32

#	Modifying user name:	WinNT
#	Modification time:	15. 06. 2019 20:32

#	Program:	/corina/corina34_cracker 3.40 0067  02.08.2006

@<TRIPOS>MOLECULE
ASD03092563
  32   34    0    0    0
SMALL
NO_CHARGES


@<TRIPOS>ATOM
   1 O1            -0.0143     1.2047     0.0087 O.3     
   2 N2             0.0021    -0.0041     0.0020 N.2     
   3 C3             1.2152    -0.4747    -0.0121 C.2     
   4 C4             2.0809     0.6416    -0.0144 C.2     
   5 C5             1.2318     1.7144    -0.0005 C.2     
   6 C6             1.6061     3.1413     0.0029 C.2     
   7 O7             2.7788     3.4622    -0.0070 O.2     
   8 N8             0.6481     4.0892     0.0168 N.am    
   9 C9             1.6179    -1.9268    -0.0230 C.3     
  10 C10            1.0198     5.5063     0.0202 C.3     
  11 N11           -3.6307     8.6666     0.3542 N.pl3   
  12 C12           -3.7571     8.7545     1.7138 C.2     
  13 C13           -2.7624     8.0788     2.3105 C.2     
  14 C14           -1.9311     7.5119     1.2459 C.ar    
  15 C15           -0.7761     6.7273     1.2301 C.ar    
  16 C16           -0.2270     6.3526     0.0365 C.ar    
  17 C17           -0.8082     6.7456    -1.1615 C.ar    
  18 C18           -1.9474     7.5200    -1.1690 C.ar    
  19 C19           -2.5235     7.9131     0.0348 C.ar    
  20 H20            3.1608     0.6469    -0.0243 H       
  21 H21           -0.2875     3.8332     0.0247 H       
  22 H22            1.7054    -2.2719    -1.0532 H       
  23 H23            2.5774    -2.0416     0.4813 H       
  24 H24            0.8622    -2.5173     0.4950 H       
  25 H25            1.6176     5.7230     0.9055 H       
  26 H26            1.6003     5.7317    -0.8744 H       
  27 H27           -4.2337     9.0714    -0.2888 H       
  28 H28           -4.5408     9.2887     2.2304 H       
  29 H29           -2.6049     7.9732     3.3737 H       
  30 H30           -0.3180     6.4186     2.1581 H       
  31 H31           -0.3624     6.4414    -2.0970 H       
  32 H32           -2.3918     7.8209    -2.1062 H       
@<TRIPOS>BOND
   1    1    2 1
   2    1    5 1
   3    2    3 2
   4    3    4 1
   5    3    9 1
   6    4    5 2
   7    4   20 1
   8    5    6 1
   9    6    7 2
  10    6    8 am
  11    8   10 1
  12    8   21 1
  13    9   22 1
  14    9   23 1
  15    9   24 1
  16   10   16 1
  17   10   25 1
  18   10   26 1
  19   11   12 1
  20   11   19 1
  21   11   27 1
  22   12   13 2
  23   12   28 1
  24   13   14 1
  25   13   29 1
  26   14   15 ar
  27   14   19 ar
  28   15   16 ar
  29   15   30 1
  30   16   17 ar
  31   17   18 ar
  32   17   31 1
  33   18   19 ar
  34   18   32 1

#	End of record

