#	Name: ASD01812601
#	Creating user name:	WinNT
#	Creation time:	15. 06. 2019 19:28

#	Modifying user name:	WinNT
#	Modification time:	15. 06. 2019 19:28

#	Program:	/corina/corina34_cracker 3.40 0067  02.08.2006

@<TRIPOS>MOLECULE
ASD01812601
  45   49    0    0    0
SMALL
NO_CHARGES


@<TRIPOS>ATOM
   1 C1            -0.0178     1.4608     0.0101 C.3     
   2 N2             0.0021    -0.0041     0.0020 N.pl3   
   3 C3             0.0085    -0.8045    -1.0979 C.2     
   4 N4             0.0269    -2.0557    -0.7410 N.2     
   5 C5             0.0336    -2.1447     0.6135 C.ar    
   6 C6             0.0515    -3.2210     1.5062 C.ar    
   7 C7             0.0530    -2.9930     2.8508 C.ar    
   8 C8             0.0368    -1.6871     3.3502 C.ar    
   9 C9             0.0194    -0.6051     2.4773 C.ar    
  10 C10            0.0238    -0.8288     1.1098 C.ar    
  11 C11            0.0377    -1.4555     4.8154 C.ar    
  12 C12            0.0158    -0.1559     5.3174 C.ar    
  13 C13            0.0162     0.0553     6.6837 C.ar    
  14 F14           -0.0050     1.3149     7.1716 F       
  15 C15            0.0380    -1.0227     7.5531 C.ar    
  16 C16            0.0374    -0.7874     9.0417 C.3     
  17 N17           -1.3438    -0.7363     9.5274 N.am    
  18 C18           -2.1733     0.4703     9.6192 C.3     
  19 C19           -3.5065     0.0273    10.1718 C.ar    
  20 N20           -4.6160     0.6700    10.4597 N.ar    
  21 C21           -5.6741     0.0462    10.9446 C.ar    
  22 C22           -5.6573    -1.3181    11.1711 C.ar    
  23 C23           -4.5115    -2.0403    10.8837 C.ar    
  24 C24           -3.4078    -1.3516    10.3710 C.ar    
  25 C25           -2.0622    -1.7883     9.9573 C.2     
  26 O26           -1.6593    -2.9342    10.0006 O.2     
  27 C27            0.0598    -2.3163     7.0586 C.ar    
  28 F28            0.0810    -3.3641     7.9112 F       
  29 C29            0.0547    -2.5370     5.6938 C.ar    
  30 H30            1.0048     1.8381     0.0023 H       
  31 H31           -0.5450     1.8219    -0.8730 H       
  32 H32           -0.5280     1.8123     0.9069 H       
  33 H33           -0.0008    -0.4526    -2.1189 H       
  34 H34            0.0638    -4.2335     1.1306 H       
  35 H35            0.0665    -3.8281     3.5356 H       
  36 H36            0.0066     0.4038     2.8627 H       
  37 H37           -0.0012     0.6853     4.6402 H       
  38 H38            0.5673    -1.6003     9.5382 H       
  39 H39            0.5347     0.1576     9.2603 H       
  40 H40           -1.7106     1.1925    10.2918 H       
  41 H41           -2.3053     0.9099     8.6305 H       
  42 H42           -6.5672     0.6107    11.1683 H       
  43 H43           -6.5297    -1.8154    11.5688 H       
  44 H44           -4.4711    -3.1064    11.0514 H       
  45 H45            0.0673    -3.5461     5.3091 H       
@<TRIPOS>BOND
   1    1    2 1
   2    1   30 1
   3    1   31 1
   4    1   32 1
   5    2   10 1
   6    2    3 1
   7    3    4 2
   8    3   33 1
   9    4    5 1
  10    5   10 ar
  11    5    6 ar
  12    6    7 ar
  13    6   34 1
  14    7    8 ar
  15    7   35 1
  16    8    9 ar
  17    8   11 1
  18    9   10 ar
  19    9   36 1
  20   11   29 ar
  21   11   12 ar
  22   12   13 ar
  23   12   37 1
  24   13   14 1
  25   13   15 ar
  26   15   16 1
  27   15   27 ar
  28   16   17 1
  29   16   38 1
  30   16   39 1
  31   17   25 am
  32   17   18 1
  33   18   19 1
  34   18   40 1
  35   18   41 1
  36   19   24 ar
  37   19   20 ar
  38   20   21 ar
  39   21   22 ar
  40   21   42 1
  41   22   23 ar
  42   22   43 1
  43   23   24 ar
  44   23   44 1
  45   24   25 1
  46   25   26 2
  47   27   28 1
  48   27   29 ar
  49   29   45 1

#	End of record

