#	Name: ASD01881302
#	Creating user name:	WinNT
#	Creation time:	15. 06. 2019 19:42

#	Modifying user name:	WinNT
#	Modification time:	15. 06. 2019 19:42

#	Program:	/corina/corina34_cracker 3.40 0067  02.08.2006

@<TRIPOS>MOLECULE
ASD01881302
  58   60    0    0    0
SMALL
NO_CHARGES


@<TRIPOS>ATOM
   1 C1             0.4121    -0.6093    -0.6754 C.2     
   2 N2             0.7772    -1.9015    -0.6172 N.am    
   3 C3             2.2337    -1.9739    -0.4545 C.3     
   4 C4             2.7246    -0.5480    -0.4195 C.ar    
   5 C5             3.9698     0.0138    -0.2894 C.ar    
   6 C6             4.1101     1.4000    -0.2931 C.ar    
   7 C7             2.9881     2.2134    -0.4288 C.ar    
   8 C8             1.7382     1.6538    -0.5595 C.ar    
   9 C9             1.5925     0.2627    -0.5563 C.ar    
  10 O10           -0.7304    -0.2162    -0.8122 O.2     
  11 N11            5.3709     1.9713    -0.1609 N.pl3   
  12 C12            5.5187     3.4288    -0.1649 C.3     
  13 C13            7.4718     4.1693     1.2199 C.ar    
  14 C14            6.9742     3.7866    -0.0080 C.ar    
  15 C15            7.8369     3.7348    -1.1024 C.ar    
  16 C16            9.1753     4.0751    -0.9053 C.ar    
  17 C17            9.5933     4.4473     0.3547 C.ar    
  18 N18            8.7453     4.4838     1.3658 N.ar    
  19 N19            7.3748     3.3532    -2.3585 N.3     
  20 C20            7.4927     4.4571    -3.3205 C.3     
  21 C21            8.0817     2.1585    -2.8389 C.3     
  22 C22            7.2938     1.5275    -3.9886 C.3     
  23 O23            7.3110     2.4054    -5.1160 O.3     
  24 C24            6.5993     1.9080    -6.2510 C.3     
  25 C25           -0.1298    -3.0488    -0.7022 C.3     
  26 C26           -0.2859    -3.4682    -2.1653 C.3     
  27 C27           -1.2331    -4.6665    -2.2541 C.3     
  28 C28           -1.3892    -5.0859    -3.7172 C.3     
  29 H29            2.4818    -2.4787     0.4791 H       
  30 H30            2.6790    -2.5030    -1.2971 H       
  31 H31            4.8397    -0.6175    -0.1838 H       
  32 H32            3.0996     3.2876    -0.4311 H       
  33 H33            0.8702     2.2879    -0.6642 H       
  34 H34            6.1526     1.4048    -0.0661 H       
  35 H35            5.1456     3.8293    -1.1075 H       
  36 H36            4.9489     3.8540     0.6614 H       
  37 H37            6.8100     4.2166     2.0721 H       
  38 H38            9.8744     4.0470    -1.7280 H       
  39 H39           10.6277     4.7120     0.5167 H       
  40 H40            8.5461     4.6566    -3.5173 H       
  41 H41            6.9948     4.1832    -4.2507 H       
  42 H42            7.0248     5.3507    -2.9074 H       
  43 H43            9.0743     2.4403    -3.1902 H       
  44 H44            8.1750     1.4396    -2.0248 H       
  45 H45            7.7495     0.5759    -4.2622 H       
  46 H46            6.2636     1.3600    -3.6743 H       
  47 H47            7.0406     0.9642    -6.5715 H       
  48 H48            5.5548     1.7484    -5.9835 H       
  49 H49            6.6598     2.6319    -7.0637 H       
  50 H50            0.2804    -3.8795    -0.1279 H       
  51 H51           -1.1035    -2.7730    -0.2974 H       
  52 H52           -0.6961    -2.6375    -2.7396 H       
  53 H53            0.6878    -3.7440    -2.5701 H       
  54 H54           -0.8229    -5.4972    -1.6798 H       
  55 H55           -2.2068    -4.3907    -1.8493 H       
  56 H56           -1.7994    -4.2552    -4.2915 H       
  57 H57           -0.4155    -5.3617    -4.1220 H       
  58 H58           -2.0640    -5.9395    -3.7804 H       
@<TRIPOS>BOND
   1    1    2 am
   2    1    9 1
   3    1   10 2
   4    2    3 1
   5    2   25 1
   6    3    4 1
   7    3   29 1
   8    3   30 1
   9    4    5 ar
  10    4    9 ar
  11    5    6 ar
  12    5   31 1
  13    6    7 ar
  14    6   11 1
  15    7    8 ar
  16    7   32 1
  17    8    9 ar
  18    8   33 1
  19   11   12 1
  20   11   34 1
  21   12   14 1
  22   12   35 1
  23   12   36 1
  24   13   14 ar
  25   13   18 ar
  26   13   37 1
  27   14   15 ar
  28   15   16 ar
  29   15   19 1
  30   16   17 ar
  31   16   38 1
  32   17   18 ar
  33   17   39 1
  34   19   20 1
  35   19   21 1
  36   20   40 1
  37   20   41 1
  38   20   42 1
  39   21   22 1
  40   21   43 1
  41   21   44 1
  42   22   23 1
  43   22   45 1
  44   22   46 1
  45   23   24 1
  46   24   47 1
  47   24   48 1
  48   24   49 1
  49   25   26 1
  50   25   50 1
  51   25   51 1
  52   26   27 1
  53   26   52 1
  54   26   53 1
  55   27   28 1
  56   27   54 1
  57   27   55 1
  58   28   56 1
  59   28   57 1
  60   28   58 1

#	End of record

