#	Name: ASD02408070
#	Creating user name:	WinNT
#	Creation time:	15. 06. 2019 20:21

#	Modifying user name:	WinNT
#	Modification time:	15. 06. 2019 20:21

#	Program:	/corina/corina34_cracker 3.40 0067  02.08.2006

@<TRIPOS>MOLECULE
ASD02408070
  46   48    0    0    0
SMALL
NO_CHARGES


@<TRIPOS>ATOM
   1 C1             0.5497     0.6133    -0.0827 C.ar    
   2 C2             0.8214    -0.7216    -0.3165 C.ar    
   3 C3             1.6721     1.6186    -0.0636 C.3     
   4 C4             1.8812     2.1645    -1.4526 C.2     
   5 N5             2.8454     3.0838    -1.6527 N.am    
   6 N6             1.1255     1.7270    -2.4229 N.2     
   7 C7             1.2664     2.1757    -3.6768 C.2     
   8 C8             2.2496     3.1394    -3.9553 C.2     
   9 C9             3.0604     3.5938    -2.8836 C.2     
  10 N10            0.4585     1.6984    -4.6796 N.pl3   
  11 C11           -0.9713     1.4601    -4.4395 C.3     
  12 O12            3.9285     4.4290    -3.0694 O.2     
  13 C13           -0.2084    -1.6439    -0.3340 C.ar    
  14 C14           -1.5096    -1.2312    -0.1172 C.ar    
  15 C15           -1.7813     0.1039     0.1176 C.ar    
  16 C16           -0.7526     1.0270     0.1280 C.ar    
  17 C17            0.0877    -3.0992    -0.5899 C.3     
  18 C18           -1.3059     0.0208    -4.8436 C.3     
  19 C19           -0.8635    -0.2148    -6.2896 C.3     
  20 C20            0.6507    -0.0218    -6.3995 C.3     
  21 C21            1.0063     1.4223    -6.0146 C.3     
  22 C22           -1.2274    -1.6407    -6.7081 C.3     
  23 C23            2.4317     3.6444    -5.2829 C.1     
  24 N24            2.5761     4.0450    -6.3361 N.1     
  25 H25            1.8381    -1.0441    -0.4860 H       
  26 H26            1.4177     2.4344     0.6129 H       
  27 H27            2.5872     1.1350     0.2782 H       
  28 H28            3.3889     3.3817    -0.9065 H       
  29 H29           -1.1931     1.6037    -3.3820 H       
  30 H30           -1.5627     2.1541    -5.0366 H       
  31 H31           -2.3141    -1.9516    -0.1315 H       
  32 H32           -2.7980     0.4265     0.2867 H       
  33 H33           -0.9648     2.0700     0.3114 H       
  34 H34            0.2791    -3.6031     0.3574 H       
  35 H35           -0.7673    -3.5629    -1.0819 H       
  36 H36            0.9656    -3.1841    -1.2305 H       
  37 H37           -0.7826    -0.6729    -4.1855 H       
  38 H38           -2.3808    -0.1396    -4.7612 H       
  39 H39           -1.3686     0.4956    -6.9441 H       
  40 H40            1.1556    -0.7150    -5.7268 H       
  41 H41            0.9683    -0.2125    -7.4246 H       
  42 H42            0.5757     2.1108    -6.7417 H       
  43 H43            2.0899     1.5390    -5.9950 H       
  44 H44           -2.3059    -1.7780    -6.6310 H       
  45 H45           -0.9124    -1.8087    -7.7380 H       
  46 H46           -0.7230    -2.3514    -6.0534 H       
@<TRIPOS>BOND
   1    1    2 ar
   2    1    3 1
   3    1   16 ar
   4    2   13 ar
   5    2   25 1
   6    3    4 1
   7    3   26 1
   8    3   27 1
   9    4    5 1
  10    4    6 2
  11    5    9 am
  12    5   28 1
  13    6    7 1
  14    7    8 2
  15    7   10 1
  16    8    9 1
  17    8   23 1
  18    9   12 2
  19   10   11 1
  20   10   21 1
  21   11   18 1
  22   11   29 1
  23   11   30 1
  24   13   14 ar
  25   13   17 1
  26   14   15 ar
  27   14   31 1
  28   15   16 ar
  29   15   32 1
  30   16   33 1
  31   17   34 1
  32   17   35 1
  33   17   36 1
  34   18   19 1
  35   18   37 1
  36   18   38 1
  37   19   20 1
  38   19   22 1
  39   19   39 1
  40   20   21 1
  41   20   40 1
  42   20   41 1
  43   21   42 1
  44   21   43 1
  45   22   44 1
  46   22   45 1
  47   22   46 1
  48   23   24 3

#	End of record

