#	Name: ASD01881433
#	Creating user name:	WinNT
#	Creation time:	15. 06. 2019 19:42

#	Modifying user name:	WinNT
#	Modification time:	15. 06. 2019 19:42

#	Program:	/corina/corina34_cracker 3.40 0067  02.08.2006

@<TRIPOS>MOLECULE
ASD01881433
  60   61    0    0    0
SMALL
NO_CHARGES


@<TRIPOS>ATOM
   1 C1            -0.0179     1.4715     0.0101 C.2     
   2 C2             0.0021    -0.0041     0.0020 C.ar    
   3 C3             1.2211    -0.6901    -0.0133 C.ar    
   4 C4             1.2336    -2.0727    -0.0209 C.ar    
   5 C5             0.0454    -2.7783    -0.0134 C.ar    
   6 C6            -1.1691    -2.1051     0.0014 C.ar    
   7 C7            -1.1958    -0.7218     0.0154 C.ar    
   8 O8             1.0258     2.0932     0.0035 O.2     
   9 O9            -1.1938     2.1292     0.0193 O.3     
  10 F10            2.3843    -0.0028    -0.0211 F       
  11 O11           -2.3338    -2.8064     0.0078 O.3     
  12 C12           -2.2328    -4.2318    -0.0013 C.3     
  13 C13           -3.6355    -4.8426     0.0077 C.3     
  14 C14           -3.5274    -6.3687    -0.0020 C.3     
  15 C15           -4.9302    -6.9795     0.0071 C.3     
  16 O16           -4.8292    -8.4049    -0.0020 O.3     
  17 C17           -5.9914    -9.1047     0.0044 C.ar    
  18 C18           -5.9618   -10.4922    -0.0039 C.ar    
  19 C19           -7.1460   -11.2081     0.0031 C.ar    
  20 C20           -8.3735   -10.5209     0.0185 C.ar    
  21 C21           -8.3837    -9.1196     0.0266 C.ar    
  22 C22           -7.2077    -8.4274     0.0250 C.ar    
  23 C23           -4.6415   -11.2184    -0.0209 C.3     
  24 O24           -7.1235   -12.5640    -0.0054 O.3     
  25 C25           -9.6345   -11.2663     0.0255 C.2     
  26 C26          -10.9472   -10.5263     0.0420 C.3     
  27 C27          -12.0998   -11.5325     0.0465 C.3     
  28 C28          -11.9983   -12.4188     1.2895 C.3     
  29 O29           -9.6221   -12.4796     0.0180 O.2     
  30 C30          -13.4325   -10.7812     0.0632 C.3     
  31 C31          -12.0212   -12.4036    -1.2088 C.3     
  32 H32            2.1746    -2.6026    -0.0331 H       
  33 H33            0.0614    -3.8581    -0.0194 H       
  34 H34           -2.1404    -0.1986     0.0317 H       
  35 H35           -1.1562     3.0955     0.0244 H       
  36 H36           -1.7025    -4.5528    -0.8980 H       
  37 H37           -1.6866    -4.5630     0.8819 H       
  38 H38           -4.1658    -4.5216     0.9044 H       
  39 H39           -4.1817    -4.5114    -0.8755 H       
  40 H40           -2.9972    -6.6897    -0.8986 H       
  41 H41           -2.9812    -6.6999     0.8812 H       
  42 H42           -5.4604    -6.6585     0.9037 H       
  43 H43           -5.4764    -6.6483    -0.8762 H       
  44 H44           -9.3232    -8.5870     0.0385 H       
  45 H45           -7.2206    -7.3475     0.0358 H       
  46 H46           -4.3131   -11.3994     1.0026 H       
  47 H47           -4.7570   -12.1704    -0.5391 H       
  48 H48           -3.8992   -10.6108    -0.5385 H       
  49 H49           -7.1085   -12.9626     0.8755 H       
  50 H50          -11.0032    -9.9057     0.9363 H       
  51 H51          -11.0195    -9.8949    -0.8435 H       
  52 H52          -12.0543   -11.7982     2.1838 H       
  53 H53          -12.8195   -13.1356     1.2927 H       
  54 H54          -11.0489   -12.9540     1.2775 H       
  55 H55          -13.5048   -10.1497    -0.8223 H       
  56 H56          -14.2537   -11.4980     0.0664 H       
  57 H57          -13.4885   -10.1605     0.9576 H       
  58 H58          -11.0717   -12.9389    -1.2208 H       
  59 H59          -12.8424   -13.1204    -1.2057 H       
  60 H60          -12.0935   -11.7722    -2.0944 H       
@<TRIPOS>BOND
   1    1    2 1
   2    1    8 2
   3    1    9 1
   4    2    3 ar
   5    2    7 ar
   6    3    4 ar
   7    3   10 1
   8    4    5 ar
   9    4   32 1
  10    5    6 ar
  11    5   33 1
  12    6    7 ar
  13    6   11 1
  14    7   34 1
  15    9   35 1
  16   11   12 1
  17   12   13 1
  18   12   36 1
  19   12   37 1
  20   13   14 1
  21   13   38 1
  22   13   39 1
  23   14   15 1
  24   14   40 1
  25   14   41 1
  26   15   16 1
  27   15   42 1
  28   15   43 1
  29   16   17 1
  30   17   18 ar
  31   17   22 ar
  32   18   19 ar
  33   18   23 1
  34   19   20 ar
  35   19   24 1
  36   20   21 ar
  37   20   25 1
  38   21   22 ar
  39   21   44 1
  40   22   45 1
  41   23   46 1
  42   23   47 1
  43   23   48 1
  44   24   49 1
  45   25   26 1
  46   25   29 2
  47   26   27 1
  48   26   50 1
  49   26   51 1
  50   27   28 1
  51   27   30 1
  52   27   31 1
  53   28   52 1
  54   28   53 1
  55   28   54 1
  56   30   55 1
  57   30   56 1
  58   30   57 1
  59   31   58 1
  60   31   59 1
  61   31   60 1

#	End of record

