#	Name: ASD05790027
#	Creating user name:	WinNT
#	Creation time:	15. 06. 2019 21:03

#	Modifying user name:	WinNT
#	Modification time:	15. 06. 2019 21:03

#	Program:	/corina/corina34_cracker 3.40 0067  02.08.2006

@<TRIPOS>MOLECULE
ASD05790027
  51   54    0    0    0
SMALL
NO_CHARGES


@<TRIPOS>ATOM
   1 C1            -0.4884     1.6599     0.3461 C.3     
   2 C2            -1.0559     0.3003     0.7589 C.3     
   3 C3            -0.3105    -0.2097     1.9939 C.3     
   4 C4             1.1771    -0.3558     1.6675 C.3     
   5 C5             1.7446     1.0037     1.2547 C.3     
   6 C6             0.9992     1.5138     0.0197 C.3     
   7 C7            -1.2226     2.1622    -0.8704 C.2     
   8 O8            -2.1121     1.4982    -1.3590 O.2     
   9 N9            -0.8907     3.3494    -1.4153 N.am    
  10 C10           -1.4928     3.7644    -2.6058 C.ar    
  11 C11           -1.7647     5.1122    -2.8125 C.ar    
  12 C12           -2.3584     5.5247    -3.9853 C.ar    
  13 C13           -2.6867     4.5875    -4.9673 C.ar    
  14 C14           -2.4117     3.2346    -4.7566 C.ar    
  15 C15           -1.8135     2.8293    -3.5836 C.ar    
  16 O16           -3.6368     6.2946    -6.5435 O.3     
  17 C17           -3.3238     5.0263    -6.2259 C.2     
  18 N18           -3.6762     4.2424    -7.2164 N.2     
  19 C19           -4.2237     4.9994    -8.1901 C.2     
  20 C20           -4.1991     6.2886    -7.7677 C.2     
  21 C21           -4.7056     7.4885    -8.5258 C.3     
  22 F22           -6.0521     7.7036    -8.2127 F       
  23 F23           -3.9579     8.6156    -8.1684 F       
  24 F24           -4.5771     7.2602    -9.9000 F       
  25 C25           -4.7556     4.5109    -9.4864 C.ar    
  26 C26           -4.1458     3.4376   -10.1327 C.ar    
  27 C27           -4.6450     2.9871   -11.3380 C.ar    
  28 C28           -5.7487     3.5990   -11.9044 C.ar    
  29 C29           -6.3577     4.6652   -11.2674 C.ar    
  30 C30           -5.8703     5.1202   -10.0590 C.ar    
  31 H31           -0.6129     2.3692     1.1643 H       
  32 H32           -2.1157     0.4044     0.9914 H       
  33 H33           -0.9314    -0.4090    -0.0593 H       
  34 H34           -0.4350     0.4996     2.8121 H       
  35 H35           -0.7148    -1.1783     2.2880 H       
  36 H36            1.7081    -0.7192     2.5474 H       
  37 H37            1.3016    -1.0651     0.8493 H       
  38 H38            1.6201     1.7131     2.0729 H       
  39 H39            2.8044     0.8997     1.0222 H       
  40 H40            1.1237     0.8044    -0.7985 H       
  41 H41            1.4035     2.4823    -0.2744 H       
  42 H42           -0.2338     3.9157    -0.9809 H       
  43 H43           -1.5106     5.8364    -2.0527 H       
  44 H44           -2.5700     6.5717    -4.1450 H       
  45 H45           -2.6647     2.5073    -5.5139 H       
  46 H46           -1.5969     1.7837    -3.4218 H       
  47 H47           -3.2838     2.9593    -9.6915 H       
  48 H48           -4.1729     2.1555   -11.8400 H       
  49 H49           -6.1361     3.2433   -12.8477 H       
  50 H50           -7.2187     5.1398   -11.7145 H       
  51 H51           -6.3493     5.9498    -9.5603 H       
@<TRIPOS>BOND
   1    1    2 1
   2    1    6 1
   3    1    7 1
   4    1   31 1
   5    2    3 1
   6    2   32 1
   7    2   33 1
   8    3    4 1
   9    3   34 1
  10    3   35 1
  11    4    5 1
  12    4   36 1
  13    4   37 1
  14    5    6 1
  15    5   38 1
  16    5   39 1
  17    6   40 1
  18    6   41 1
  19    7    8 2
  20    7    9 am
  21    9   10 1
  22    9   42 1
  23   10   11 ar
  24   10   15 ar
  25   11   12 ar
  26   11   43 1
  27   12   13 ar
  28   12   44 1
  29   13   14 ar
  30   13   17 1
  31   14   15 ar
  32   14   45 1
  33   15   46 1
  34   16   17 1
  35   16   20 1
  36   17   18 2
  37   18   19 1
  38   19   20 2
  39   19   25 1
  40   20   21 1
  41   21   22 1
  42   21   23 1
  43   21   24 1
  44   25   26 ar
  45   25   30 ar
  46   26   27 ar
  47   26   47 1
  48   27   28 ar
  49   27   48 1
  50   28   29 ar
  51   28   49 1
  52   29   30 ar
  53   29   50 1
  54   30   51 1

#	End of record

