#	Name: ASD01840095
#	Creating user name:	WinNT
#	Creation time:	15. 06. 2019 19:37

#	Modifying user name:	WinNT
#	Modification time:	15. 06. 2019 19:37

#	Program:	/corina/corina34_cracker 3.40 0067  02.08.2006

@<TRIPOS>MOLECULE
ASD01840095
  49   52    0    0    0
SMALL
NO_CHARGES


@<TRIPOS>ATOM
   1 C1            -0.0310     1.3096     0.0138 C.ar    
   2 N2             0.2585     0.4641     0.9917 N.ar    
   3 C3             1.3939    -0.2107     0.9987 C.ar    
   4 N4             2.2894    -0.0827     0.0472 N.ar    
   5 C5             0.9021     1.4858    -1.0398 C.ar    
   6 C6             0.8440     2.3316    -2.2171 C.2     
   7 C7             2.0875     0.7476    -0.9836 C.ar    
   8 S8             3.0835     1.1238    -2.3819 S.3     
   9 C9             1.8975     2.2543    -3.0067 C.2     
  10 C10           -0.3296     3.2288    -2.5150 C.3     
  11 C11            2.0613     3.0378    -4.2835 C.3     
  12 N12           -1.2267     2.0051     0.0171 N.3     
  13 C13           -2.3677     1.0909    -0.1206 C.3     
  14 C14           -3.6585     1.9012    -0.2592 C.3     
  15 C15           -3.8355     2.7855     0.9783 C.3     
  16 C16           -2.6118     3.6939     1.1261 C.3     
  17 C17           -1.3513     2.8316     1.2245 C.3     
  18 C18           -5.0736     3.6301     0.8207 C.2     
  19 O19           -5.3928     4.0398    -0.2753 O.2     
  20 N20           -5.8262     3.9302     1.8978 N.am    
  21 C21           -6.3334     2.5085     3.8237 C.3     
  22 C22           -5.3679     3.5412     3.2324 C.3     
  23 C23           -7.0903     4.6468     1.7209 C.3     
  24 C24           -8.2540     3.7413     2.1383 C.3     
  25 S25           -8.0074     3.2289     3.8644 S.3     
  26 H26            1.5924    -0.8901     1.8145 H       
  27 H27           -0.2061     4.1754    -1.9889 H       
  28 H28           -0.3826     3.4136    -3.5879 H       
  29 H29           -1.2491     2.7463    -2.1836 H       
  30 H30            2.5498     3.9878    -4.0668 H       
  31 H31            2.6709     2.4673    -4.9843 H       
  32 H32            1.0816     3.2251    -4.7231 H       
  33 H33           -2.2313     0.4708    -1.0066 H       
  34 H34           -2.4315     0.4542     0.7618 H       
  35 H35           -3.6009     2.5280    -1.1491 H       
  36 H36           -4.5068     1.2224    -0.3457 H       
  37 H37           -3.9321     2.1575     1.8639 H       
  38 H38           -2.5378     4.3489     0.2580 H       
  39 H39           -2.7124     4.2958     2.0293 H       
  40 H40           -1.4200     2.1868     2.1006 H       
  41 H41           -0.4768     3.4758     1.3155 H       
  42 H42           -6.3369     1.6135     3.2016 H       
  43 H43           -6.0189     2.2515     4.8352 H       
  44 H44           -4.3704     3.1074     3.1619 H       
  45 H45           -5.3370     4.4201     3.8764 H       
  46 H46           -7.0886     5.5444     2.3392 H       
  47 H47           -7.2055     4.9271     0.6739 H       
  48 H48           -9.1925     4.2886     2.0502 H       
  49 H49           -8.2804     2.8610     1.4961 H       
@<TRIPOS>BOND
   1    1    2 ar
   2    1    5 ar
   3    1   12 1
   4    2    3 ar
   5    3    4 ar
   6    3   26 1
   7    4    7 ar
   8    5    7 ar
   9    5    6 1
  10    6    9 2
  11    6   10 1
  12    7    8 1
  13    8    9 1
  14    9   11 1
  15   10   27 1
  16   10   28 1
  17   10   29 1
  18   11   30 1
  19   11   31 1
  20   11   32 1
  21   12   13 1
  22   12   17 1
  23   13   14 1
  24   13   33 1
  25   13   34 1
  26   14   15 1
  27   14   35 1
  28   14   36 1
  29   15   16 1
  30   15   18 1
  31   15   37 1
  32   16   17 1
  33   16   38 1
  34   16   39 1
  35   17   40 1
  36   17   41 1
  37   18   19 2
  38   18   20 am
  39   20   23 1
  40   20   22 1
  41   21   22 1
  42   21   25 1
  43   21   42 1
  44   21   43 1
  45   22   44 1
  46   22   45 1
  47   23   24 1
  48   23   46 1
  49   23   47 1
  50   24   25 1
  51   24   48 1
  52   24   49 1

#	End of record

