#	Name: ASD08178343
#	Creating user name:	WinNT
#	Creation time:	15. 06. 2019 21:18

#	Modifying user name:	WinNT
#	Modification time:	15. 06. 2019 21:18

#	Program:	/corina/corina34_cracker 3.40 0067  02.08.2006

@<TRIPOS>MOLECULE
ASD08178343
  80   83    0    0    0
SMALL
NO_CHARGES


@<TRIPOS>ATOM
   1 N1            -0.0168     1.3902     0.0097 N.am    
   2 C2            -0.2173     0.0103     0.0231 C.ar    
   3 C3             0.8683    -0.8557    -0.0926 C.ar    
   4 N4            -1.4399    -0.4832     0.1513 N.ar    
   5 N5            -1.6667    -1.7463     0.1686 N.ar    
   6 C6            -0.7002    -2.6368     0.0602 C.ar    
   7 C7             0.6159    -2.2190    -0.0733 C.ar    
   8 C8            -1.0247    -4.1082     0.0874 C.3     
   9 C9            -1.8115    -4.4335     1.3586 C.3     
  10 C10           -2.1410    -5.9273     1.3862 C.3     
  11 C11           -2.9278    -6.2527     2.6574 C.3     
  12 C12           -3.2523    -7.7241     2.6845 C.2     
  13 N13           -2.5213    -8.6581     3.2049 N.2     
  14 N14           -2.9690    -9.8359     3.1257 N.2     
  15 C15           -4.1130   -10.0077     2.5350 C.2     
  16 S16           -4.6995    -8.4828     2.0200 S.3     
  17 N17           -4.7575   -11.2270     2.3553 N.am    
  18 C18           -4.1929   -12.3617     2.8139 C.2     
  19 C19           -4.8913   -13.6828     2.6192 C.3     
  20 O20           -3.1229   -12.3195     3.3832 O.2     
  21 C21           -4.0568   -14.7853     3.2184 C.ar    
  22 C22           -4.2367   -15.1478     4.5402 C.ar    
  23 C23           -3.4711   -16.1590     5.0899 C.ar    
  24 C24           -2.5260   -16.8081     4.3177 C.ar    
  25 C25           -2.3467   -16.4462     2.9957 C.ar    
  26 C26           -3.1153   -15.4379     2.4448 C.ar    
  27 C27           -1.0750     2.2250     0.0167 C.2     
  28 C28           -0.8601     3.7130     0.1198 C.3     
  29 O29           -2.2000     1.7786    -0.0599 O.2     
  30 C30           -2.1935     4.4152     0.1067 C.ar    
  31 C31           -2.8566     4.6619     1.2945 C.ar    
  32 C32           -2.7508     4.8175    -1.0924 C.ar    
  33 C33           -3.9741     5.4616    -1.1045 C.ar    
  34 C34           -4.6398     5.7029     0.0824 C.ar    
  35 C35           -4.0795     5.3059     1.2824 C.ar    
  36 C36           -4.8054     5.5690     2.5766 C.3     
  37 C37           -5.7005     4.3998     2.8971 C.2     
  38 N38           -6.4520     4.4133     4.0159 N.am    
  39 O39           -5.7447     3.4467     2.1484 O.2     
  40 C40           -7.3222     3.2767     4.3275 C.3     
  41 C41           -6.4761     2.0094     4.4658 C.3     
  42 C42           -8.0591     3.5438     5.6414 C.3     
  43 C43           -8.3401     3.0898     3.2007 C.3     
  44 H44            0.8842     1.7494    -0.0006 H       
  45 H45            1.8745    -0.4770    -0.1944 H       
  46 H46            1.4199    -2.9345    -0.1636 H       
  47 H47           -1.6240    -4.3643    -0.7864 H       
  48 H48           -0.0997    -4.6845     0.0751 H       
  49 H49           -1.2123    -4.1774     2.2323 H       
  50 H50           -2.7366    -3.8571     1.3708 H       
  51 H51           -2.7402    -6.1835     0.5124 H       
  52 H52           -1.2159    -6.5037     1.3739 H       
  53 H53           -2.3286    -5.9966     3.5311 H       
  54 H54           -3.8529    -5.6763     2.6696 H       
  55 H55           -5.6133   -11.2607     1.9000 H       
  56 H56           -5.8640   -13.6554     3.1104 H       
  57 H57           -5.0274   -13.8683     1.5537 H       
  58 H58           -4.9751   -14.6406     5.1435 H       
  59 H59           -3.6112   -16.4417     6.1228 H       
  60 H60           -1.9274   -17.5977     4.7474 H       
  61 H61           -1.6081   -16.9531     2.3925 H       
  62 H62           -2.9752   -15.1552     1.4119 H       
  63 H63           -0.3385     3.9413     1.0493 H       
  64 H64           -0.2620     4.0532    -0.7255 H       
  65 H65           -2.4192     4.3512     2.2317 H       
  66 H66           -2.2306     4.6289    -2.0199 H       
  67 H67           -4.4093     5.7766    -2.0415 H       
  68 H68           -5.5952     6.2064     0.0730 H       
  69 H69           -4.0801     5.7021     3.3793 H       
  70 H70           -5.4081     6.4718     2.4780 H       
  71 H71           -6.4166     5.1755     4.6147 H       
  72 H72           -5.7508     2.1426     5.2686 H       
  73 H73           -7.1235     1.1638     4.6977 H       
  74 H74           -5.9510     1.8191     3.5297 H       
  75 H75           -8.6619     4.4466     5.5429 H       
  76 H76           -8.7066     2.6981     5.8733 H       
  77 H77           -7.3339     3.6770     6.4442 H       
  78 H78           -7.8151     2.8995     2.2646 H       
  79 H79           -8.9876     2.2441     3.4325 H       
  80 H80           -8.9429     3.9926     3.1022 H       
@<TRIPOS>BOND
   1    1    2 1
   2    1   27 am
   3    1   44 1
   4    2    3 ar
   5    2    4 ar
   6    3    7 ar
   7    3   45 1
   8    4    5 ar
   9    5    6 ar
  10    6    7 ar
  11    6    8 1
  12    7   46 1
  13    8    9 1
  14    8   47 1
  15    8   48 1
  16    9   10 1
  17    9   49 1
  18    9   50 1
  19   10   11 1
  20   10   51 1
  21   10   52 1
  22   11   12 1
  23   11   53 1
  24   11   54 1
  25   12   13 2
  26   12   16 1
  27   13   14 1
  28   14   15 2
  29   15   16 1
  30   15   17 1
  31   17   18 am
  32   17   55 1
  33   18   19 1
  34   18   20 2
  35   19   21 1
  36   19   56 1
  37   19   57 1
  38   21   22 ar
  39   21   26 ar
  40   22   23 ar
  41   22   58 1
  42   23   24 ar
  43   23   59 1
  44   24   25 ar
  45   24   60 1
  46   25   26 ar
  47   25   61 1
  48   26   62 1
  49   27   28 1
  50   27   29 2
  51   28   30 1
  52   28   63 1
  53   28   64 1
  54   30   31 ar
  55   30   32 ar
  56   31   35 ar
  57   31   65 1
  58   32   33 ar
  59   32   66 1
  60   33   34 ar
  61   33   67 1
  62   34   35 ar
  63   34   68 1
  64   35   36 1
  65   36   37 1
  66   36   69 1
  67   36   70 1
  68   37   38 am
  69   37   39 2
  70   38   40 1
  71   38   71 1
  72   40   41 1
  73   40   42 1
  74   40   43 1
  75   41   72 1
  76   41   73 1
  77   41   74 1
  78   42   75 1
  79   42   76 1
  80   42   77 1
  81   43   78 1
  82   43   79 1
  83   43   80 1

#	End of record

