#	Name: ASD04840108
#	Creating user name:	WinNT
#	Creation time:	15. 06. 2019 20:52

#	Modifying user name:	WinNT
#	Modification time:	15. 06. 2019 20:52

#	Program:	/corina/corina34_cracker 3.40 0067  02.08.2006

@<TRIPOS>MOLECULE
ASD04840108
  49   52    0    0    0
SMALL
NO_CHARGES


@<TRIPOS>ATOM
   1 C1            -3.1349    -0.4703     1.6032 C.ar    
   2 C2            -4.1092     0.2586     2.2644 C.ar    
   3 F3            -4.9012    -0.3442     3.1779 F       
   4 C4            -4.2706     1.6057     1.9889 C.ar    
   5 C5            -3.4595     2.2215     1.0544 C.ar    
   6 C6            -2.4873     1.4929     0.3951 C.ar    
   7 C7            -2.3251     0.1475     0.6694 C.ar    
   8 C8            -1.2645    -0.6454    -0.0499 C.3     
   9 C9            -1.8120    -1.1268    -1.3950 C.3     
  10 P10           -0.4865    -1.9628    -2.3265 P.3     
  11 O11            0.6712    -0.9018    -2.6816 O.3     
  12 O12            0.0806    -3.0552    -1.5046 O.2     
  13 O13           -1.0906    -2.5737    -3.6881 O.3     
  14 N14           -2.9142    -2.0643    -1.1663 N.pl3   
  15 C15           -4.0800    -1.9535    -1.9017 C.ar    
  16 N16           -4.2115    -1.0038    -2.8155 N.ar    
  17 C17           -5.3194    -0.8861    -3.5252 C.ar    
  18 N18           -6.3414    -1.6948    -3.3669 N.ar    
  19 C19           -6.3053    -2.6866    -2.4679 C.ar    
  20 S20           -7.4982    -3.9046    -2.0409 S.3     
  21 C21           -5.1536    -2.8599    -1.6934 C.ar    
  22 C22           -5.2763    -3.9714    -0.7746 C.2     
  23 C23           -6.4424    -4.6149    -0.8345 C.2     
  24 C24           -6.7972    -5.7800     0.0037 C.ar    
  25 C25           -5.8889    -6.2699     0.9433 C.ar    
  26 C26           -6.2262    -7.3575     1.7223 C.ar    
  27 C27           -7.4615    -7.9625     1.5733 C.ar    
  28 C28           -7.8231    -9.1500     2.4277 C.3     
  29 C29           -8.3665    -7.4817     0.6437 C.ar    
  30 C30           -8.0440    -6.3910    -0.1372 C.ar    
  31 H31           -3.0051    -1.5202     1.8206 H       
  32 H32           -5.0304     2.1751     2.5036 H       
  33 H33           -3.5855     3.2723     0.8391 H       
  34 H34           -1.8540     1.9749    -0.3349 H       
  35 H35           -0.3910    -0.0153    -0.2176 H       
  36 H36           -0.9808    -1.5060     0.5559 H       
  37 H37           -2.1744    -0.2723    -1.9666 H       
  38 H38            1.1365    -0.5539    -1.9085 H       
  39 H39           -1.7948    -3.2219    -3.5500 H       
  40 H40           -2.8263    -2.7628    -0.4991 H       
  41 H41           -5.3869    -0.0978    -4.2604 H       
  42 H42           -4.4863    -4.2573    -0.0959 H       
  43 H43           -4.9240    -5.7990     1.0600 H       
  44 H44           -5.5242    -7.7376     2.4497 H       
  45 H45           -8.3046    -8.8060     3.3430 H       
  46 H46           -8.5068    -9.7977     1.8789 H       
  47 H47           -6.9195    -9.7054     2.6790 H       
  48 H48           -9.3291    -7.9584     0.5323 H       
  49 H49           -8.7531    -6.0136    -0.8591 H       
@<TRIPOS>BOND
   1    1    7 ar
   2    1    2 ar
   3    1   31 1
   4    2    4 ar
   5    2    3 1
   6    4    5 ar
   7    4   32 1
   8    5   33 1
   9    5    6 ar
  10    6   34 1
  11    6    7 ar
  12    7    8 1
  13    8   35 1
  14    8   36 1
  15    8    9 1
  16    9   37 1
  17    9   10 1
  18    9   14 1
  19   10   11 1
  20   10   12 2
  21   10   13 1
  22   11   38 1
  23   13   39 1
  24   14   40 1
  25   14   15 1
  26   15   16 ar
  27   15   21 ar
  28   16   17 ar
  29   17   41 1
  30   17   18 ar
  31   18   19 ar
  32   19   21 ar
  33   19   20 1
  34   20   23 1
  35   21   22 1
  36   22   42 1
  37   22   23 2
  38   23   24 1
  39   24   30 ar
  40   24   25 ar
  41   25   26 ar
  42   25   43 1
  43   26   27 ar
  44   26   44 1
  45   27   29 ar
  46   27   28 1
  47   28   45 1
  48   28   46 1
  49   28   47 1
  50   29   48 1
  51   29   30 ar
  52   30   49 1

#	End of record

