#	Name: ASD01810425
#	Creating user name:	WinNT
#	Creation time:	15. 06. 2019 19:24

#	Modifying user name:	WinNT
#	Modification time:	15. 06. 2019 19:24

#	Program:	/corina/corina34_cracker 3.40 0067  02.08.2006

@<TRIPOS>MOLECULE
ASD01810425
  43   46    0    0    0
SMALL
NO_CHARGES


@<TRIPOS>ATOM
   1 C1            -0.0158     1.3163     0.0093 C.ar    
   2 N2             0.0021    -0.0041     0.0020 N.ar    
   3 C3             2.3524    -0.0504    -0.0203 C.ar    
   4 C4             2.3683     1.3553    -0.0133 C.ar    
   5 C5             1.1564     2.0452     0.0020 C.ar    
   6 N6             3.5330    -0.7575    -0.0344 N.pl3   
   7 C7             4.7329    -0.1625    -0.0417 C.2     
   8 C8             4.8762     1.2111    -0.0360 C.2     
   9 C9             3.6677     2.0519    -0.0220 C.2     
  10 O10            3.7382     3.2680    -0.0168 O.2     
  11 C11            6.2127     1.8233    -0.0438 C.2     
  12 C12            3.4749    -2.2214    -0.0413 C.3     
  13 C13            3.4423    -2.7161    -1.4644 C.ar    
  14 O14            7.2036     1.1193    -0.0554 O.2     
  15 O15            6.3394     3.1653    -0.0381 O.3     
  16 C16            4.6258    -2.9898    -2.1260 C.ar    
  17 C17            4.6018    -3.4431    -3.4294 C.ar    
  18 C18            3.3824    -3.6249    -4.0787 C.ar    
  19 C19            2.1933    -3.3476    -3.4075 C.ar    
  20 C20            2.2288    -2.9002    -2.1023 C.ar    
  21 C21            3.3503    -4.1116    -5.4802 C.ar    
  22 C22            2.1310    -4.2934    -6.1295 C.ar    
  23 C23            2.1070    -4.7463    -7.4331 C.ar    
  24 C24            3.2905    -5.0201    -8.0947 C.ar    
  25 C25            4.5037    -4.8419    -7.4547 C.ar    
  26 C26            4.5396    -4.3830    -6.1535 C.ar    
  27 C27            1.1192    -0.6990    -0.0124 C.ar    
  28 H28           -0.9634     1.8346     0.0166 H       
  29 H29            1.1355     3.1250     0.0077 H       
  30 H30            5.6198    -0.7787    -0.0520 H       
  31 H31            4.3543    -2.6223     0.4627 H       
  32 H32            2.5758    -2.5518     0.4789 H       
  33 H33            7.2384     3.5214    -0.0437 H       
  34 H34            5.5703    -2.8482    -1.6219 H       
  35 H35            5.5264    -3.6562    -3.9452 H       
  36 H36            1.2455    -3.4868    -3.9061 H       
  37 H37            1.3078    -2.6849    -1.5810 H       
  38 H38            1.2063    -4.0806    -5.6136 H       
  39 H39            1.1624    -4.8876    -7.9373 H       
  40 H40            3.2671    -5.3747    -9.1145 H       
  41 H41            5.4248    -5.0575    -7.9759 H       
  42 H42            5.4875    -4.2439    -5.6549 H       
  43 H43            1.0802    -1.7783    -0.0178 H       
@<TRIPOS>BOND
   1    1    2 ar
   2    1    5 ar
   3    1   28 1
   4    2   27 ar
   5    3    4 ar
   6    3    6 1
   7    3   27 ar
   8    4    5 ar
   9    4    9 1
  10    5   29 1
  11    6    7 1
  12    6   12 1
  13    7    8 2
  14    7   30 1
  15    8    9 1
  16    8   11 1
  17    9   10 2
  18   11   14 2
  19   11   15 1
  20   12   13 1
  21   12   31 1
  22   12   32 1
  23   13   16 ar
  24   13   20 ar
  25   15   33 1
  26   16   17 ar
  27   16   34 1
  28   17   18 ar
  29   17   35 1
  30   18   19 ar
  31   18   21 1
  32   19   20 ar
  33   19   36 1
  34   20   37 1
  35   21   22 ar
  36   21   26 ar
  37   22   23 ar
  38   22   38 1
  39   23   24 ar
  40   23   39 1
  41   24   25 ar
  42   24   40 1
  43   25   26 ar
  44   25   41 1
  45   26   42 1
  46   27   43 1

#	End of record

