#	Name: ASD01150747
#	Creating user name:	WinNT
#	Creation time:	15. 06. 2019 19:04

#	Modifying user name:	WinNT
#	Modification time:	15. 06. 2019 19:04

#	Program:	/corina/corina34_cracker 3.40 0067  02.08.2006

@<TRIPOS>MOLECULE
ASD01150747
  38   41    0    0    0
SMALL
NO_CHARGES


@<TRIPOS>ATOM
   1 C1            -0.0036     1.4274     0.0441 C.2     
   2 C2            -0.5016     1.0187    -1.3183 C.3     
   3 F3            -1.6203     0.1906    -1.1768 F       
   4 F4            -0.8548     2.1593    -2.0472 F       
   5 F5             0.5082     0.3266    -1.9956 F       
   6 N6             3.5621     2.3092     0.4818 N.ar    
   7 C7             2.4610     1.6136     0.3693 C.ar    
   8 C8             1.2144     2.2336     0.1678 C.ar    
   9 C9             1.1506     3.6375     0.0859 C.ar    
  10 C10            2.3606     4.3602     0.2120 C.ar    
  11 C11            2.3774     5.7603     0.1415 C.ar    
  12 C12            3.5581     6.4351     0.2642 C.ar    
  13 C13            4.7617     5.7374     0.4611 C.ar    
  14 C14            4.7706     4.3623     0.5349 C.ar    
  15 C15            3.5697     3.6478     0.4121 C.ar    
  16 O16            5.7768     6.6454     0.5482 O.3     
  17 C17            5.1423     7.9087     0.8184 C.3     
  18 O18            3.8349     7.7721     0.2319 O.3     
  19 C19           -0.1362     4.3328    -0.1252 C.ar    
  20 C20           -1.1355     4.2698     0.8483 C.ar    
  21 C21           -2.3340     4.9216     0.6450 C.ar    
  22 C22           -2.5474     5.6367    -0.5203 C.ar    
  23 C23           -1.5616     5.7033    -1.4891 C.ar    
  24 C24           -0.3563     5.0607    -1.2965 C.ar    
  25 C25            2.5287     0.1107     0.4576 C.3     
  26 F26            5.0417     8.1224     2.1973 F       
  27 F27            5.8471     8.9522     0.2089 F       
  28 O28           -0.6135     1.0933     1.0383 O.2     
  29 H29            1.4570     6.3047    -0.0100 H       
  30 H30            5.7007     3.8348     0.6866 H       
  31 H31           -0.9703     3.7118     1.7581 H       
  32 H32           -3.1078     4.8734     1.3969 H       
  33 H33           -3.4878     6.1448    -0.6746 H       
  34 H34           -1.7348     6.2629    -2.3965 H       
  35 H35            0.4138     5.1169    -2.0516 H       
  36 H36            2.4860    -0.1941     1.5032 H       
  37 H37            1.6870    -0.3233    -0.0822 H       
  38 H38            3.4622    -0.2375     0.0155 H       
@<TRIPOS>BOND
   1    1    2 1
   2    1    8 1
   3    1   28 2
   4    2    3 1
   5    2    4 1
   6    2    5 1
   7    6    7 ar
   8    6   15 ar
   9    7    8 ar
  10    7   25 1
  11    8    9 ar
  12    9   10 ar
  13    9   19 1
  14   10   11 ar
  15   10   15 ar
  16   11   12 ar
  17   11   29 1
  18   12   13 ar
  19   12   18 1
  20   13   14 ar
  21   13   16 1
  22   14   15 ar
  23   14   30 1
  24   16   17 1
  25   17   18 1
  26   17   26 1
  27   17   27 1
  28   19   20 ar
  29   19   24 ar
  30   20   21 ar
  31   20   31 1
  32   21   22 ar
  33   21   32 1
  34   22   23 ar
  35   22   33 1
  36   23   24 ar
  37   23   34 1
  38   24   35 1
  39   25   36 1
  40   25   37 1
  41   25   38 1

#	End of record

