#	Name: ASD01200238
#	Creating user name:	WinNT
#	Creation time:	15. 06. 2019 19:08

#	Modifying user name:	WinNT
#	Modification time:	15. 06. 2019 19:08

#	Program:	/corina/corina34_cracker 3.40 0067  02.08.2006

@<TRIPOS>MOLECULE
ASD01200238
  47   49    0    0    0
SMALL
NO_CHARGES


@<TRIPOS>ATOM
   1 S1            -0.0211     1.7049     0.0114 S.3     
   2 C2             0.0021    -0.0041     0.0020 C.2     
   3 N3             1.2270    -0.4438    -0.0120 N.2     
   4 C4             2.1845     0.4474    -0.0164 C.2     
   5 C5             1.7404     1.7416    -0.0052 C.2     
   6 C6             2.5772     2.9397    -0.0072 C.2     
   7 O7             3.7893     2.8351    -0.0197 O.2     
   8 O8             2.0056     4.1619     0.0049 O.3     
   9 C9            -0.9947    -2.1494     0.0004 C.2     
  10 C10           -2.2213    -3.0249     0.0079 C.3     
  11 C11           -3.0677    -2.7274    -1.2315 C.3     
  12 O12            0.1089    -2.6520    -0.0132 O.2     
  13 N13           -1.1242    -0.8079     0.0089 N.am    
  14 C14           -1.8048    -4.4732    -0.0040 C.ar    
  15 C15           -2.1790    -5.3081     1.0323 C.ar    
  16 C16           -1.7975    -6.6374     1.0216 C.ar    
  17 C17           -1.0405    -7.1313    -0.0277 C.ar    
  18 C18           -0.6670    -6.2945    -1.0637 C.ar    
  19 C19           -1.0538    -4.9673    -1.0539 C.ar    
  20 Cl20          -0.5602    -8.7994    -0.0425 Cl      
  21 Cl21          -2.2666    -7.6862     2.3230 Cl      
  22 C22           -4.3720    -3.5242    -1.1615 C.3     
  23 C23           -5.2875    -3.1409    -2.3374 C.3     
  24 C24           -5.5185    -4.4290    -3.1542 C.3     
  25 C25           -5.2657    -5.5722    -2.1402 C.3     
  26 C26           -4.0785    -5.0319    -1.3048 C.3     
  27 C27            2.8840     5.2890     0.0021 C.3     
  28 H28            3.2321     0.1851    -0.0275 H       
  29 H29           -2.8067    -2.8225     0.9048 H       
  30 H30           -3.2945    -1.6619    -1.2694 H       
  31 H31           -2.5148    -3.0133    -2.1263 H       
  32 H32           -2.0069    -0.4059     0.0198 H       
  33 H33           -2.7691    -4.9223     1.8505 H       
  34 H34           -0.0767    -6.6790    -1.8823 H       
  35 H35           -0.7655    -4.3152    -1.8651 H       
  36 H36           -4.8777    -3.3298    -0.2157 H       
  37 H37           -6.2379    -2.7612    -1.9622 H       
  38 H38           -4.8027    -2.3872    -2.9578 H       
  39 H39           -6.5429    -4.4673    -3.5247 H       
  40 H40           -4.8104    -4.4887    -3.9807 H       
  41 H41           -6.1410    -5.7303    -1.5101 H       
  42 H42           -4.9884    -6.4917    -2.6558 H       
  43 H43           -3.1379    -5.1890    -1.8327 H       
  44 H44           -4.0521    -5.5101    -0.3257 H       
  45 H45            3.5214     5.2550     0.8857 H       
  46 H46            3.5038     5.2644    -0.8942 H       
  47 H47            2.2969     6.2073     0.0127 H       
@<TRIPOS>BOND
   1    1    2 1
   2    1    5 1
   3    2    3 2
   4    2   13 1
   5    3    4 1
   6    4    5 2
   7    4   28 1
   8    5    6 1
   9    6    7 2
  10    6    8 1
  11    8   27 1
  12    9   10 1
  13    9   12 2
  14    9   13 am
  15   10   11 1
  16   10   14 1
  17   10   29 1
  18   11   22 1
  19   11   30 1
  20   11   31 1
  21   13   32 1
  22   14   15 ar
  23   14   19 ar
  24   15   16 ar
  25   15   33 1
  26   16   17 ar
  27   16   21 1
  28   17   18 ar
  29   17   20 1
  30   18   19 ar
  31   18   34 1
  32   19   35 1
  33   22   23 1
  34   22   26 1
  35   22   36 1
  36   23   24 1
  37   23   37 1
  38   23   38 1
  39   24   25 1
  40   24   39 1
  41   24   40 1
  42   25   26 1
  43   25   41 1
  44   25   42 1
  45   26   43 1
  46   26   44 1
  47   27   45 1
  48   27   46 1
  49   27   47 1

#	End of record

