#	Name: ASD08720003
#	Creating user name:	WinNT
#	Creation time:	15. 06. 2019 21:19

#	Modifying user name:	WinNT
#	Modification time:	15. 06. 2019 21:19

#	Program:	/corina/corina34_cracker 3.40 0067  02.08.2006

@<TRIPOS>MOLECULE
ASD08720003
  37   39    0    0    0
SMALL
NO_CHARGES


@<TRIPOS>ATOM
   1 C1            -0.0166     1.3748     0.0096 C.ar    
   2 C2             0.0021    -0.0041     0.0020 C.ar    
   3 C3            -1.1945    -0.7079     0.0097 C.ar    
   4 C4            -2.4150    -0.0120     0.0251 C.ar    
   5 C5            -2.4097     1.3855     0.0325 C.ar    
   6 C6            -1.2229     2.0618     0.0306 C.ar    
   7 N7            -1.5208    -2.0494     0.0056 N.pl3   
   8 C8            -2.8785    -2.1356     0.0181 C.2     
   9 N9            -3.4020    -0.9445     0.0295 N.2     
  10 C10           -3.6619    -3.4230     0.0186 C.3     
  11 C11           -4.6225    -3.4349     1.2094 C.3     
  12 C12           -5.6638    -2.3276     1.0358 C.3     
  13 C13           -5.3167    -4.7706     1.2814 C.ar    
  14 C14           -5.1779    -5.5614     2.4063 C.ar    
  15 C15           -5.8150    -6.7876     2.4728 C.ar    
  16 C16           -6.5915    -7.2217     1.4120 C.ar    
  17 C17           -6.7294    -6.4288     0.2867 C.ar    
  18 C18           -6.0968    -5.2016     0.2243 C.ar    
  19 Cl19          -7.3913    -8.7603     1.4936 Cl      
  20 Cl20          -5.6405    -7.7815     3.8853 Cl      
  21 I21            1.7873     2.4401    -0.0019 I       
  22 C22           -6.5338    -2.2590     2.2644 C.2     
  23 O23           -6.3408    -3.0179     3.1845 O.2     
  24 O24           -7.5232    -1.3547     2.3366 O.3     
  25 H25            0.9431    -0.5339    -0.0102 H       
  26 H26           -3.3424     1.9298     0.0443 H       
  27 H27           -1.2231     3.1417     0.0367 H       
  28 H28           -0.8976    -2.7926    -0.0047 H       
  29 H29           -4.2306    -3.5026    -0.9078 H       
  30 H30           -2.9754    -4.2660     0.0971 H       
  31 H31           -4.0628    -3.2663     2.1295 H       
  32 H32           -5.1583    -1.3722     0.8948 H       
  33 H33           -6.2821    -2.5436     0.1644 H       
  34 H34           -4.5717    -5.2222     3.2333 H       
  35 H35           -7.3347    -6.7670    -0.5413 H       
  36 H36           -6.2049    -4.5827    -0.6541 H       
  37 H37           -8.0545    -1.3488     3.1445 H       
@<TRIPOS>BOND
   1    1    2 ar
   2    1   21 1
   3    1    6 ar
   4    2    3 ar
   5    2   25 1
   6    3    4 ar
   7    3    7 1
   8    4    5 ar
   9    4    9 1
  10    5    6 ar
  11    5   26 1
  12    6   27 1
  13    7    8 1
  14    7   28 1
  15    8    9 2
  16    8   10 1
  17   10   11 1
  18   10   29 1
  19   10   30 1
  20   11   12 1
  21   11   13 1
  22   11   31 1
  23   12   22 1
  24   12   32 1
  25   12   33 1
  26   13   14 ar
  27   13   18 ar
  28   14   15 ar
  29   14   34 1
  30   15   16 ar
  31   15   20 1
  32   16   17 ar
  33   16   19 1
  34   17   18 ar
  35   17   35 1
  36   18   36 1
  37   22   23 2
  38   22   24 1
  39   24   37 1

#	End of record

