#	Name: ASD01815524
#	Creating user name:	WinNT
#	Creation time:	15. 06. 2019 19:33

#	Modifying user name:	WinNT
#	Modification time:	15. 06. 2019 19:33

#	Program:	/corina/corina34_cracker 3.40 0067  02.08.2006

@<TRIPOS>MOLECULE
ASD01815524
  67   72    0    0    0
SMALL
NO_CHARGES


@<TRIPOS>ATOM
   1 C1            -0.0346     1.3576     0.2389 C.ar    
   2 C2            -0.0050    -0.0332     0.2326 C.ar    
   3 C3             1.1752    -0.7094     0.1431 C.ar    
   4 C4             2.3811     0.0029     0.0557 C.ar    
   5 C5             2.3470     1.4187     0.0623 C.ar    
   6 C6             1.1189     2.0814     0.1554 C.ar    
   7 C7             3.6176    -0.6695    -0.0385 C.ar    
   8 C8             4.7829     0.0156    -0.1235 C.ar    
   9 C9             4.8046     1.4190    -0.1211 C.ar    
  10 C10            3.6068     2.1510    -0.0291 C.ar    
  11 C11            6.0619     2.1721    -0.2137 C.2     
  12 N12            5.9817     3.5230    -0.2047 N.am    
  13 C13            4.7775     4.1406    -0.1125 C.2     
  14 N14            3.6516     3.4938    -0.0299 N.2     
  15 O15            7.1354     1.6029    -0.2951 O.2     
  16 C16            7.2048     4.3245    -0.2946 C.3     
  17 C17            7.3306     5.2044     0.9506 C.3     
  18 C18            8.6079     6.0414     0.8567 C.3     
  19 C19            8.5469     6.9270    -0.3895 C.3     
  20 C20            8.4210     6.0470    -1.6348 C.3     
  21 C21            7.1437     5.2100    -1.5409 C.3     
  22 O22            7.3876     4.3774     2.1146 O.3     
  23 C23            3.6424    -2.1763    -0.0442 C.3     
  24 N24            3.4194    -2.6748     1.3195 N.3     
  25 C25            3.0728    -4.1018     1.3080 C.3     
  26 C26            2.7066    -4.5505     2.7246 C.3     
  27 C27            3.8958    -4.3025     3.6567 C.3     
  28 C28            4.2672    -2.8177     3.6133 C.3     
  29 C29            4.5882    -2.4191     2.1710 C.3     
  30 C30            3.5206    -4.6867     5.0648 C.ar    
  31 F31            4.9873    -5.0700     3.2365 F       
  32 N32            2.5126    -4.0793     5.6594 N.ar    
  33 C33            2.1487    -4.3826     6.8903 C.ar    
  34 C34            2.8186    -5.3568     7.6056 C.ar    
  35 C35            3.8842    -6.0176     7.0133 C.ar    
  36 C36            4.2336    -5.6758     5.7160 C.ar    
  37 H37           -0.9826     1.8706     0.3062 H       
  38 H38           -0.9307    -0.5854     0.3001 H       
  39 H39            1.1822    -1.7894     0.1398 H       
  40 H40            1.0838     3.1608     0.1608 H       
  41 H41            5.7132    -0.5284    -0.1941 H       
  42 H42            4.7521     5.2203    -0.1075 H       
  43 H43            8.0686     3.6630    -0.3609 H       
  44 H44            6.4668     5.8659     1.0169 H       
  45 H45            8.6976     6.6684     1.7438 H       
  46 H46            9.4717     5.3800     0.7904 H       
  47 H47            7.6831     7.5885    -0.3233 H       
  48 H48            9.4568     7.5233    -0.4565 H       
  49 H49            8.3775     6.6779    -2.5226 H       
  50 H50            9.2848     5.3855    -1.7011 H       
  51 H51            7.0540     4.5831    -2.4280 H       
  52 H52            6.2799     5.8715    -1.4746 H       
  53 H53            7.4680     4.8694     2.9431 H       
  54 H54            2.8568    -2.5501    -0.7007 H       
  55 H55            4.6115    -2.5223    -0.4036 H       
  56 H56            2.2232    -4.2638     0.6447 H       
  57 H57            3.9260    -4.6799     0.9531 H       
  58 H58            1.8449    -3.9824     3.0749 H       
  59 H59            2.4645    -5.6133     2.7184 H       
  60 H60            3.4301    -2.2223     3.9776 H       
  61 H61            5.1401    -2.6424     4.2421 H       
  62 H62            5.4343    -3.0052     1.8120 H       
  63 H63            4.8393    -1.3591     2.1344 H       
  64 H64            1.3178    -3.8634     7.3445 H       
  65 H65            2.5163    -5.6002     8.6135 H       
  66 H66            4.4265    -6.7830     7.5484 H       
  67 H67            5.0579    -6.1701     5.2234 H       
@<TRIPOS>BOND
   1    1    2 ar
   2    1    6 ar
   3    1   37 1
   4    2    3 ar
   5    2   38 1
   6    3    4 ar
   7    3   39 1
   8    4    5 ar
   9    4    7 ar
  10    5    6 ar
  11    5   10 ar
  12    6   40 1
  13    7    8 ar
  14    7   23 1
  15    8    9 ar
  16    8   41 1
  17    9   10 ar
  18    9   11 1
  19   10   14 1
  20   11   12 am
  21   11   15 2
  22   12   13 1
  23   12   16 1
  24   13   14 2
  25   13   42 1
  26   16   17 1
  27   16   21 1
  28   16   43 1
  29   17   18 1
  30   17   22 1
  31   17   44 1
  32   18   19 1
  33   18   45 1
  34   18   46 1
  35   19   20 1
  36   19   47 1
  37   19   48 1
  38   20   21 1
  39   20   49 1
  40   20   50 1
  41   21   51 1
  42   21   52 1
  43   22   53 1
  44   23   24 1
  45   23   54 1
  46   23   55 1
  47   24   25 1
  48   24   29 1
  49   25   26 1
  50   25   56 1
  51   25   57 1
  52   26   27 1
  53   26   58 1
  54   26   59 1
  55   27   28 1
  56   27   30 1
  57   27   31 1
  58   28   29 1
  59   28   60 1
  60   28   61 1
  61   29   62 1
  62   29   63 1
  63   30   32 ar
  64   30   36 ar
  65   32   33 ar
  66   33   34 ar
  67   33   64 1
  68   34   35 ar
  69   34   65 1
  70   35   36 ar
  71   35   66 1
  72   36   67 1

#	End of record

