#	Name: ASD07930198
#	Creating user name:	WinNT
#	Creation time:	15. 06. 2019 21:11

#	Modifying user name:	WinNT
#	Modification time:	15. 06. 2019 21:11

#	Program:	/corina/corina34_cracker 3.40 0067  02.08.2006

@<TRIPOS>MOLECULE
ASD07930198
  58   62    0    0    0
SMALL
NO_CHARGES


@<TRIPOS>ATOM
   1 C1             0.2252     1.0980     0.8960 C.2     
   2 C2             0.0580    -0.3551     0.6726 C.2     
   3 N3             1.4861     1.6402     0.7913 N.am    
   4 N4             1.1364    -1.1619     0.8174 N.am    
   5 C5             2.4165    -0.5649     1.2241 C.3     
   6 C6             2.6066     0.7512     0.4555 C.3     
   7 C7            -0.8500     1.8777     1.1929 C.2     
   8 C8            -0.6964     3.2531     1.4070 C.2     
   9 C9             0.5481     3.8140     1.3170 C.2     
  10 C10            1.6884     2.9542     0.9904 C.2     
  11 O11           -1.0248    -0.8153     0.3659 O.2     
  12 O12            2.8093     3.4256     0.9002 O.2     
  13 C13            1.4297     5.7617     2.5370 C.2     
  14 N14            1.3692     7.0578     2.3969 N.2     
  15 C15            0.6391     7.3541     1.3111 C.2     
  16 C16            0.2284     6.1999     0.7525 C.2     
  17 N17            0.7275     5.1841     1.5269 N.pl3   
  18 C18            0.3313     8.7396     0.8045 C.3     
  19 C19            1.0289    -2.6023     0.5727 C.3     
  20 C20            0.8236    -2.8516    -0.9229 C.3     
  21 C21           -0.1618    -3.1645     1.3517 C.3     
  22 O22           -0.4783    -2.4039    -1.3060 O.3     
  23 C23           -4.8729    -2.2358    -3.6727 C.3     
  24 C24           -4.3326    -1.1964    -2.6822 C.3     
  25 C25           -3.1324    -1.8058    -1.9533 C.3     
  26 C26           -2.1942    -2.4310    -2.9542 C.ar    
  27 C27           -0.8877    -2.7039    -2.5667 C.ar    
  28 C28           -0.0008    -3.2809    -3.4622 C.ar    
  29 C29           -0.4167    -3.5863    -4.7443 C.ar    
  30 C30           -1.7131    -3.3161    -5.1322 C.ar    
  31 C31           -2.6079    -2.7351    -4.2381 C.ar    
  32 O32           -3.8721    -2.4768    -4.6628 O.3     
  33 F33           -2.4589    -0.8037    -1.2467 F       
  34 F34           -3.5789    -2.7849    -1.0592 F       
  35 H35            2.4032    -0.3647     2.2955 H       
  36 H36            3.2314    -1.2488     0.9865 H       
  37 H37            2.6119     0.5542    -0.6165 H       
  38 H38            3.5471     1.2169     0.7497 H       
  39 H39           -1.8310     1.4317     1.2636 H       
  40 H40           -1.5540     3.8664     1.6412 H       
  41 H41            1.9538     5.2361     3.3216 H       
  42 H42           -0.3778     6.0943    -0.1351 H       
  43 H43            1.1066     9.0510     0.1045 H       
  44 H44           -0.6343     8.7354     0.2989 H       
  45 H45            0.2991     9.4345     1.6436 H       
  46 H46            1.9436    -3.0958     0.9010 H       
  47 H47            1.5772    -2.3046    -1.4893 H       
  48 H48            0.9165    -3.9178    -1.1296 H       
  49 H49           -0.2417    -4.2362     1.1696 H       
  50 H50           -0.0155    -2.9869     2.4171 H       
  51 H51           -1.0765    -2.6710     1.0233 H       
  52 H52           -5.0984    -3.1628    -3.1455 H       
  53 H53           -5.7762    -1.8545    -4.1488 H       
  54 H54           -4.0196    -0.3026    -3.2218 H       
  55 H55           -5.1081    -0.9382    -1.9611 H       
  56 H56            1.0141    -3.4912    -3.1585 H       
  57 H57            0.2731    -4.0369    -5.4426 H       
  58 H58           -2.0350    -3.5562    -6.1348 H       
@<TRIPOS>BOND
   1    1    2 1
   2    1    3 1
   3    1    7 2
   4    2    4 am
   5    2   11 2
   6    3    6 1
   7    3   10 am
   8    4    5 1
   9    4   19 1
  10    5    6 1
  11    5   35 1
  12    5   36 1
  13    6   37 1
  14    6   38 1
  15    7    8 1
  16    7   39 1
  17    8    9 2
  18    8   40 1
  19    9   10 1
  20    9   17 1
  21   10   12 2
  22   13   14 2
  23   13   17 1
  24   13   41 1
  25   14   15 1
  26   15   16 2
  27   15   18 1
  28   16   17 1
  29   16   42 1
  30   18   43 1
  31   18   44 1
  32   18   45 1
  33   19   20 1
  34   19   21 1
  35   19   46 1
  36   20   22 1
  37   20   47 1
  38   20   48 1
  39   21   49 1
  40   21   50 1
  41   21   51 1
  42   22   27 1
  43   23   24 1
  44   23   32 1
  45   23   52 1
  46   23   53 1
  47   24   25 1
  48   24   54 1
  49   24   55 1
  50   25   26 1
  51   25   33 1
  52   25   34 1
  53   26   27 ar
  54   26   31 ar
  55   27   28 ar
  56   28   29 ar
  57   28   56 1
  58   29   30 ar
  59   29   57 1
  60   30   31 ar
  61   30   58 1
  62   31   32 1

#	End of record

