#	Name: ASD01914146
#	Creating user name:	WinNT
#	Creation time:	15. 06. 2019 20:02

#	Modifying user name:	WinNT
#	Modification time:	15. 06. 2019 20:02

#	Program:	/corina/corina34_cracker 3.40 0067  02.08.2006

@<TRIPOS>MOLECULE
ASD01914146
  46   49    0    0    0
SMALL
NO_CHARGES


@<TRIPOS>ATOM
   1 C1             2.7980     0.0285     1.2604 C.ar    
   2 C2             2.2044    -1.2695     0.8513 C.2     
   3 N3             2.8588    -2.3082     0.2848 N.2     
   4 C4             1.9520    -3.2341     0.0954 C.2     
   5 O5             0.7911    -2.7451     0.5427 O.3     
   6 N6             0.9524    -1.6241     0.9767 N.2     
   7 C7             2.1753    -4.5947    -0.5129 C.3     
   8 C8             1.7916    -5.6762     0.4997 C.3     
   9 C9             0.3259    -5.5018     0.9041 C.3     
  10 C10           -0.5633    -5.6606    -0.3332 C.3     
  11 N11           -0.1069    -4.7219    -1.3672 N.am    
  12 C12            1.3070    -4.7432    -1.7662 C.3     
  13 C13           -2.0155    -5.3509     0.0358 C.3     
  14 C14           -0.9688    -3.8577    -1.9389 C.2     
  15 C15           -0.4723    -2.8334    -2.8804 C.ar    
  16 C16           -1.2757    -2.4076    -3.9403 C.ar    
  17 C17           -0.8074    -1.4516    -4.8159 C.ar    
  18 C18            0.4587    -0.9127    -4.6457 C.ar    
  19 C19            1.2607    -1.3322    -3.5953 C.ar    
  20 C20            0.7999    -2.2832    -2.7103 C.ar    
  21 O21           -2.1548    -3.9212    -1.6797 O.2     
  22 N22            4.0930     0.2465     1.0760 N.ar    
  23 C23            4.6585     1.3838     1.4243 C.ar    
  24 C24            3.9159     2.3992     1.9994 C.ar    
  25 C25            2.5575     2.2126     2.2101 C.ar    
  26 C26            1.9890     1.0089     1.8292 C.ar    
  27 F27            0.9129     0.0241    -5.5068 F       
  28 H28            3.2257    -4.7048    -0.7823 H       
  29 H29            1.9299    -6.6596     0.0505 H       
  30 H30            2.4248    -5.5881     1.3825 H       
  31 H31            0.0599    -6.2579     1.6428 H       
  32 H32            0.1818    -4.5092     1.3307 H       
  33 H33           -0.4891    -6.6815    -0.7079 H       
  34 H34            1.5065    -3.9172    -2.4489 H       
  35 H35            1.5337    -5.6892    -2.2578 H       
  36 H36           -2.1101    -4.2934     0.2825 H       
  37 H37           -2.6631    -5.5862    -0.8088 H       
  38 H38           -2.3079    -5.9524     0.8965 H       
  39 H39           -2.2619    -2.8269    -4.0740 H       
  40 H40           -1.4278    -1.1218    -5.6362 H       
  41 H41            2.2463    -0.9095    -3.4675 H       
  42 H42            1.4253    -2.6089    -1.8922 H       
  43 H43            5.7164     1.5253     1.2590 H       
  44 H44            4.3891     3.3281     2.2818 H       
  45 H45            1.9561     2.9903     2.6574 H       
  46 H46            0.9344     0.8298     1.9786 H       
@<TRIPOS>BOND
   1    1    2 1
   2    1   22 ar
   3    1   26 ar
   4    2    3 1
   5    2    6 2
   6    3    4 2
   7    4    5 1
   8    4    7 1
   9    5    6 1
  10    7    8 1
  11    7   12 1
  12    7   28 1
  13    8    9 1
  14    8   29 1
  15    8   30 1
  16    9   10 1
  17    9   31 1
  18    9   32 1
  19   10   11 1
  20   10   13 1
  21   10   33 1
  22   11   12 1
  23   11   14 am
  24   12   34 1
  25   12   35 1
  26   13   36 1
  27   13   37 1
  28   13   38 1
  29   14   15 1
  30   14   21 2
  31   15   16 ar
  32   15   20 ar
  33   16   17 ar
  34   16   39 1
  35   17   18 ar
  36   17   40 1
  37   18   19 ar
  38   18   27 1
  39   19   20 ar
  40   19   41 1
  41   20   42 1
  42   22   23 ar
  43   23   24 ar
  44   23   43 1
  45   24   25 ar
  46   24   44 1
  47   25   26 ar
  48   25   45 1
  49   26   46 1

#	End of record

