#	Name: ASD01912303
#	Creating user name:	WinNT
#	Creation time:	15. 06. 2019 19:59

#	Modifying user name:	WinNT
#	Modification time:	15. 06. 2019 19:59

#	Program:	/corina/corina34_cracker 3.40 0067  02.08.2006

@<TRIPOS>MOLECULE
ASD01912303
  45   48    0    0    0
SMALL
NO_CHARGES


@<TRIPOS>ATOM
   1 S1            -0.0219     1.7657     0.0118 S.3     
   2 C2             0.0021    -0.0041     0.0020 C.2     
   3 N3             1.3160    -0.3573    -0.0124 N.pl3   
   4 C4             2.2109     0.6882    -0.0157 C.2     
   5 C5             1.7435     1.9241    -0.0043 C.2     
   6 N6            -0.7441    -1.0840     0.0033 N.2     
   7 C7             0.0505    -2.1638    -0.0100 C.2     
   8 C8             1.3293    -1.7493    -0.0200 C.2     
   9 S9             2.7592    -2.7786    -0.0401 S.o2    
  10 O10            2.3492    -4.0244    -0.5871 O.2     
  11 O11            3.8094    -1.9958    -0.5910 O.2     
  12 N12            3.1731    -3.0735     1.5360 N.am    
  13 C13            2.6186    -4.2340     2.2449 C.3     
  14 C14            3.7768    -5.1067     2.7449 C.3     
  15 C15            4.7694    -4.2188     3.4626 C.2     
  16 C16            5.2950    -2.9974     2.7408 C.3     
  17 C17            4.1035    -2.1809     2.2390 C.3     
  18 C18            5.1707    -4.5052     4.7004 C.2     
  19 C19            6.1110    -3.6527     5.3635 C.1     
  20 C20            6.8818    -2.9538     5.9072 C.1     
  21 C21            7.8221    -2.1013     6.5703 C.ar    
  22 C22            8.2398    -2.4064     7.8690 C.ar    
  23 C23            9.1482    -1.5728     8.4950 C.ar    
  24 C24            9.6123    -0.4600     7.8058 C.ar    
  25 C25            9.1576    -0.2167     6.5226 C.ar    
  26 N26            8.2960    -1.0279     5.9443 N.ar    
  27 C27            9.6599     0.9903     5.7730 C.3     
  28 Cl28          -0.4815    -3.8163    -0.0130 Cl      
  29 H29            3.2747     0.5021    -0.0267 H       
  30 H30            2.3171     2.8392    -0.0051 H       
  31 H31            2.0244    -3.8942     3.0932 H       
  32 H32            1.9922    -4.8121     1.5656 H       
  33 H33            3.3966    -5.8625     3.4322 H       
  34 H34            4.2631    -5.5914     1.8983 H       
  35 H35            5.8923    -2.3952     3.4255 H       
  36 H36            5.9074    -3.3069     1.8938 H       
  37 H37            4.4547    -1.4076     1.5558 H       
  38 H38            3.5972    -1.7197     3.0870 H       
  39 H39            4.7868    -5.3802     5.2036 H       
  40 H40            7.8583    -3.2802     8.3762 H       
  41 H41            9.4892    -1.7824     9.4981 H       
  42 H42           10.3219     0.2100     8.2683 H       
  43 H43           10.5554     0.7229     5.2121 H       
  44 H44            8.8895     1.3367     5.0841 H       
  45 H45            9.8981     1.7844     6.4808 H       
@<TRIPOS>BOND
   1    1    2 1
   2    1    5 1
   3    2    3 1
   4    2    6 2
   5    3    4 1
   6    3    8 1
   7    4    5 2
   8    4   29 1
   9    5   30 1
  10    6    7 1
  11    7    8 2
  12    7   28 1
  13    8    9 1
  14    9   10 2
  15    9   11 2
  16    9   12 am
  17   12   13 1
  18   12   17 1
  19   13   14 1
  20   13   31 1
  21   13   32 1
  22   14   15 1
  23   14   33 1
  24   14   34 1
  25   15   16 1
  26   15   18 2
  27   16   17 1
  28   16   35 1
  29   16   36 1
  30   17   37 1
  31   17   38 1
  32   18   19 1
  33   18   39 1
  34   19   20 3
  35   20   21 1
  36   21   22 ar
  37   21   26 ar
  38   22   23 ar
  39   22   40 1
  40   23   24 ar
  41   23   41 1
  42   24   25 ar
  43   24   42 1
  44   25   26 ar
  45   25   27 1
  46   27   43 1
  47   27   44 1
  48   27   45 1

#	End of record

