#	Name: ASD01880885
#	Creating user name:	WinNT
#	Creation time:	15. 06. 2019 19:41

#	Modifying user name:	WinNT
#	Modification time:	15. 06. 2019 19:41

#	Program:	/corina/corina34_cracker 3.40 0067  02.08.2006

@<TRIPOS>MOLECULE
ASD01880885
  47   52    0    0    0
SMALL
NO_CHARGES


@<TRIPOS>ATOM
   1 C1            -0.0169     1.3931     0.0097 C.ar    
   2 C2             0.0021    -0.0041     0.0020 C.ar    
   3 C3             1.2139    -0.6908    -0.0128 C.ar    
   4 C4             2.4024     0.0194    -0.0203 C.ar    
   5 C5             2.3728     1.4247    -0.0130 C.ar    
   6 C6             1.1521     2.1001     0.0023 C.ar    
   7 N7             3.6289    -0.6375    -0.0346 N.pl3   
   8 C8             4.7931     0.0691    -0.0416 C.2     
   9 N9             4.8014     1.4565    -0.0353 N.am    
  10 C10            3.6500     2.1587    -0.0210 C.2     
  11 N11            3.9498    -2.0024    -0.0437 N.2     
  12 C12            5.2612    -2.1197    -0.0558 C.2     
  13 C13            5.8183    -0.8296    -0.0548 C.2     
  14 O14            3.6659     3.3753    -0.0155 O.2     
  15 C15           -1.2735    -0.7591     0.0101 C.ar    
  16 C16            6.0202    -3.3948    -0.0684 C.ar    
  17 C17           -2.4811    -0.0748     0.0254 C.ar    
  18 C18           -3.6746    -0.7873     0.0329 C.ar    
  19 C19           -3.6476    -2.1957     0.0251 C.ar    
  20 C20           -2.4169    -2.8680     0.0093 C.ar    
  21 C21           -1.2546    -2.1600    -0.0033 C.ar    
  22 C22            5.3423    -4.6121    -0.0685 C.ar    
  23 C23            7.4134    -3.3790    -0.0859 C.ar    
  24 C24            8.1143    -4.5679    -0.0981 C.ar    
  25 C25            7.4363    -5.7736    -0.0928 C.ar    
  26 C26            6.0532    -5.7950    -0.0807 C.ar    
  27 C27            6.0810     2.1699    -0.0429 C.3     
  28 N28           -4.9970    -0.4209     0.0475 N.pl3   
  29 N29           -5.7710    -1.5877     0.0486 N.2     
  30 C30           -4.9941    -2.6319     0.0356 C.2     
  31 H31           -0.9612     1.9171     0.0170 H       
  32 H32            1.2264    -1.7707    -0.0180 H       
  33 H33            1.1313     3.1799     0.0083 H       
  34 H34            6.8718    -0.5921    -0.0636 H       
  35 H35           -2.4933     1.0051     0.0316 H       
  36 H36           -2.3916    -3.9476     0.0033 H       
  37 H37           -0.3095    -2.6826    -0.0158 H       
  38 H38            4.2625    -4.6300    -0.0587 H       
  39 H39            7.9438    -2.4383    -0.0904 H       
  40 H40            9.1942    -4.5569    -0.1120 H       
  41 H41            7.9887    -6.7015    -0.1027 H       
  42 H42            5.5288    -6.7392    -0.0767 H       
  43 H43            6.3895     2.3516    -1.0724 H       
  44 H44            5.9694     3.1218     0.4763 H       
  45 H45            6.8360     1.5672     0.4617 H       
  46 H46           -5.3364     0.4877     0.0559 H       
  47 H47           -5.3224    -3.6607     0.0326 H       
@<TRIPOS>BOND
   1    1    2 ar
   2    1    6 ar
   3    1   31 1
   4    2    3 ar
   5    2   15 1
   6    3    4 ar
   7    3   32 1
   8    4    5 ar
   9    4    7 1
  10    5    6 ar
  11    5   10 1
  12    6   33 1
  13    7    8 1
  14    7   11 1
  15    8    9 1
  16    8   13 2
  17    9   10 am
  18    9   27 1
  19   10   14 2
  20   11   12 2
  21   12   13 1
  22   12   16 1
  23   13   34 1
  24   15   17 ar
  25   15   21 ar
  26   16   22 ar
  27   16   23 ar
  28   17   18 ar
  29   17   35 1
  30   18   19 ar
  31   18   28 1
  32   19   20 ar
  33   19   30 1
  34   20   21 ar
  35   20   36 1
  36   21   37 1
  37   22   26 ar
  38   22   38 1
  39   23   24 ar
  40   23   39 1
  41   24   25 ar
  42   24   40 1
  43   25   26 ar
  44   25   41 1
  45   26   42 1
  46   27   43 1
  47   27   44 1
  48   27   45 1
  49   28   29 1
  50   28   46 1
  51   29   30 2
  52   30   47 1

#	End of record

