#	Name: ASD01510120
#	Creating user name:	WinNT
#	Creation time:	15. 06. 2019 19:21

#	Modifying user name:	WinNT
#	Modification time:	15. 06. 2019 19:21

#	Program:	/corina/corina34_cracker 3.40 0067  02.08.2006

@<TRIPOS>MOLECULE
ASD01510120
  61   64    0    0    0
SMALL
NO_CHARGES


@<TRIPOS>ATOM
   1 N1             6.0083     1.9225     1.9953 N.3     
   2 C2             5.7050     0.6159     1.3963 C.3     
   3 C3             4.7284    -0.1243     2.2734 C.2     
   4 O4             4.3248     0.3863     3.2969 O.2     
   5 N5             4.3035    -1.3538     1.9207 N.am    
   6 C6             3.4719    -2.0800     2.7803 C.ar    
   7 C7             2.5127    -1.4220     3.5400 C.ar    
   8 C8             1.6907    -2.1381     4.3895 C.ar    
   9 C9             1.8193    -3.5096     4.4864 C.ar    
  10 C10            2.7773    -4.1746     3.7289 C.ar    
  11 C11            3.6006    -3.4584     2.8704 C.ar    
  12 S12            2.9415    -5.9246     3.8533 S.3     
  13 C13            4.2208    -6.1186     5.0492 C.ar    
  14 C14            4.7446    -5.0194     5.7142 C.ar    
  15 N15            5.7059    -5.2027     6.6080 N.ar    
  16 C16            6.1684    -6.4146     6.8712 C.ar    
  17 N17            5.6957    -7.4902     6.2587 N.ar    
  18 C18            4.7295    -7.3863     5.3559 C.ar    
  19 O19            4.2488    -8.4901     4.7322 O.3     
  20 C20            4.8294    -9.7446     5.0944 C.3     
  21 C21            4.1740   -10.8482     4.3046 C.ar    
  22 C22            4.6933   -11.2239     3.0799 C.ar    
  23 C23            4.0921   -12.2361     2.3554 C.ar    
  24 C24            2.9719   -12.8729     2.8559 C.ar    
  25 C25            2.4532   -12.4978     4.0811 C.ar    
  26 C26            3.0569   -11.4885     4.8075 C.ar    
  27 N27            7.1753    -6.5625     7.8132 N.3     
  28 C28            7.5636    -5.2624     8.3776 C.3     
  29 C29            8.6175    -5.4763     9.4666 C.3     
  30 N30            9.7805    -6.1656     8.8906 N.3     
  31 C31            9.3922    -7.4657     8.3262 C.3     
  32 C32            8.3383    -7.2518     7.2371 C.3     
  33 C33           10.8471    -6.3223     9.8885 C.3     
  34 H34            6.3548     1.8168     2.9370 H       
  35 H35            6.6616     2.4386     1.4254 H       
  36 H36            5.2678     0.7617     0.4085 H       
  37 H37            6.6234     0.0360     1.3051 H       
  38 H38            4.5742    -1.7352     1.0709 H       
  39 H39            2.4096    -0.3494     3.4670 H       
  40 H40            0.9462    -1.6238     4.9791 H       
  41 H41            1.1756    -4.0662     5.1514 H       
  42 H42            4.3455    -3.9721     2.2808 H       
  43 H43            4.3739    -4.0266     5.5059 H       
  44 H44            5.8973    -9.7270     4.8769 H       
  45 H45            4.6783    -9.9209     6.1594 H       
  46 H46            5.5685   -10.7264     2.6888 H       
  47 H47            4.4974   -12.5292     1.3982 H       
  48 H48            2.5018   -13.6633     2.2896 H       
  49 H49            1.5778   -12.9951     4.4720 H       
  50 H50            2.6516   -11.1954     5.7647 H       
  51 H51            7.9773    -4.6329     7.5897 H       
  52 H52            6.6881    -4.7771     8.8090 H       
  53 H53            8.9281    -4.5111     9.8666 H       
  54 H54            8.1949    -6.0831    10.2674 H       
  55 H55           10.2677    -7.9509     7.8947 H       
  56 H56            8.9784    -8.0952     9.1140 H       
  57 H57            8.0276    -8.2170     6.8372 H       
  58 H58            8.7608    -6.6450     6.4363 H       
  59 H59           10.4749    -6.9077    10.7292 H       
  60 H60           11.6956    -6.8353     9.4358 H       
  61 H61           11.1621    -5.3401    10.2408 H       
@<TRIPOS>BOND
   1    1    2 1
   2    1   34 1
   3    1   35 1
   4    2    3 1
   5    2   36 1
   6    2   37 1
   7    3    4 2
   8    3    5 am
   9    5    6 1
  10    5   38 1
  11    6    7 ar
  12    6   11 ar
  13    7    8 ar
  14    7   39 1
  15    8    9 ar
  16    8   40 1
  17    9   10 ar
  18    9   41 1
  19   10   11 ar
  20   10   12 1
  21   11   42 1
  22   12   13 1
  23   13   14 ar
  24   13   18 ar
  25   14   15 ar
  26   14   43 1
  27   15   16 ar
  28   16   17 ar
  29   16   27 1
  30   17   18 ar
  31   18   19 1
  32   19   20 1
  33   20   21 1
  34   20   44 1
  35   20   45 1
  36   21   22 ar
  37   21   26 ar
  38   22   23 ar
  39   22   46 1
  40   23   24 ar
  41   23   47 1
  42   24   25 ar
  43   24   48 1
  44   25   26 ar
  45   25   49 1
  46   26   50 1
  47   27   28 1
  48   27   32 1
  49   28   29 1
  50   28   51 1
  51   28   52 1
  52   29   30 1
  53   29   53 1
  54   29   54 1
  55   30   31 1
  56   30   33 1
  57   31   32 1
  58   31   55 1
  59   31   56 1
  60   32   57 1
  61   32   58 1
  62   33   59 1
  63   33   60 1
  64   33   61 1

#	End of record

