#	Name: ASD01510025
#	Creating user name:	WinNT
#	Creation time:	15. 06. 2019 19:21

#	Modifying user name:	WinNT
#	Modification time:	15. 06. 2019 19:21

#	Program:	/corina/corina34_cracker 3.40 0067  02.08.2006

@<TRIPOS>MOLECULE
ASD01510025
  52   54    0    0    0
SMALL
NO_CHARGES


@<TRIPOS>ATOM
   1 C1            -2.2802    -2.7229     0.0179 C.2     
   2 C2            -1.1375    -2.0419     0.0081 C.2     
   3 C3             0.1459    -2.7594    -0.0115 C.2     
   4 O4             0.1626    -3.9754    -0.0188 O.2     
   5 N5             1.3036    -2.0695    -0.0215 N.am    
   6 C6             2.5155    -2.7442     0.0682 C.ar    
   7 N7             2.5414    -4.0602     0.2612 N.ar    
   8 C8             3.6926    -4.7111     0.3479 C.ar    
   9 N9             4.8561    -4.0849     0.2471 N.ar    
  10 C10            4.9070    -2.7694     0.0536 C.ar    
  11 C11            3.7171    -2.0529    -0.0483 C.ar    
  12 N12            6.1280    -2.1216    -0.0508 N.pl3   
  13 S13            3.6756    -6.4543     0.6045 S.3     
  14 C14            5.4077    -6.7755     0.6381 C.ar    
  15 C15            6.1196    -6.7314     1.8368 C.ar    
  16 O16            5.4882    -6.4400     3.0012 O.3     
  17 C17            6.2888    -6.4149     4.1847 C.3     
  18 N18            7.4250    -6.9794     1.8220 N.ar    
  19 C19            8.0490    -7.2652     0.6895 C.ar    
  20 N20            7.4070    -7.3162    -0.4676 N.ar    
  21 C21            6.1000    -7.0857    -0.5323 C.ar    
  22 O22            5.4502    -7.1400    -1.7216 O.3     
  23 C23            6.2336    -7.4522    -2.8752 C.3     
  24 N24            9.4119    -7.5174     0.7159 N.3     
  25 C25            9.9186    -7.8129    -0.6303 C.3     
  26 C26           11.4429    -7.9419    -0.5862 C.3     
  27 C27           11.8274    -9.0642     0.3819 C.3     
  28 C28           11.2466    -8.7560     1.7648 C.3     
  29 C29            9.7280    -8.6034     1.6525 C.3     
  30 H30           -2.2654    -3.8028     0.0115 H       
  31 H31           -3.2227    -2.1959     0.0368 H       
  32 H32           -1.1523    -0.9620     0.0145 H       
  33 H33            1.2911    -1.1021    -0.0913 H       
  34 H34            3.7271    -0.9845    -0.2054 H       
  35 H35            6.9528    -2.6276     0.0171 H       
  36 H36            6.1576    -1.1624    -0.1918 H       
  37 H37            6.7448    -7.3933     4.3357 H       
  38 H38            7.0701    -5.6623     4.0789 H       
  39 H39            5.6620    -6.1699     5.0422 H       
  40 H40            6.6935    -8.4321    -2.7478 H       
  41 H41            5.5932    -7.4633    -3.7572 H       
  42 H42            7.0116    -6.6992    -3.0007 H       
  43 H43            9.4850    -8.7482    -0.9844 H       
  44 H44            9.6419    -7.0052    -1.3079 H       
  45 H45           11.8172    -8.1767    -1.5826 H       
  46 H46           11.8779    -7.0024    -0.2454 H       
  47 H47           11.4252   -10.0107     0.0206 H       
  48 H48           12.9132    -9.1309     0.4495 H       
  49 H49           11.4808    -9.5724     2.4480 H       
  50 H50           11.6786    -7.8293     2.1425 H       
  51 H51            9.3130    -8.3697     2.6329 H       
  52 H52            9.2954    -9.5350     1.2877 H       
@<TRIPOS>BOND
   1    1    2 2
   2    1   30 1
   3    1   31 1
   4    2    3 1
   5    2   32 1
   6    3    4 2
   7    3    5 am
   8    5    6 1
   9    5   33 1
  10    6    7 ar
  11    6   11 ar
  12    7    8 ar
  13    8    9 ar
  14    8   13 1
  15    9   10 ar
  16   10   11 ar
  17   10   12 1
  18   11   34 1
  19   12   35 1
  20   12   36 1
  21   13   14 1
  22   14   15 ar
  23   14   21 ar
  24   15   16 1
  25   15   18 ar
  26   16   17 1
  27   17   37 1
  28   17   38 1
  29   17   39 1
  30   18   19 ar
  31   19   20 ar
  32   19   24 1
  33   20   21 ar
  34   21   22 1
  35   22   23 1
  36   23   40 1
  37   23   41 1
  38   23   42 1
  39   24   25 1
  40   24   29 1
  41   25   26 1
  42   25   43 1
  43   25   44 1
  44   26   27 1
  45   26   45 1
  46   26   46 1
  47   27   28 1
  48   27   47 1
  49   27   48 1
  50   28   29 1
  51   28   49 1
  52   28   50 1
  53   29   51 1
  54   29   52 1

#	End of record

