#	Name: ASD01141123
#	Creating user name:	WinNT
#	Creation time:	15. 06. 2019 19:01

#	Modifying user name:	WinNT
#	Modification time:	15. 06. 2019 19:01

#	Program:	/corina/corina34_cracker 3.40 0067  02.08.2006

@<TRIPOS>MOLECULE
ASD01141123
  56   59    0    0    0
SMALL
NO_CHARGES


@<TRIPOS>ATOM
   1 C1            -0.0714     3.0322    -0.4912 C.3     
   2 C2            -0.4051     1.5424    -0.5556 C.3     
   3 C3             0.1384     0.8248     0.6815 C.3     
   4 C4             1.6514     1.0310     0.7642 C.3     
   5 C5             1.9776     2.5190     0.8616 C.3     
   6 C6             1.4404     3.2346    -0.3767 C.3     
   7 C7             2.2272     0.2585     1.9478 C.3     
   8 C8             3.7480     0.4504     2.0066 C.3     
   9 C9             4.1741     1.3385     0.8384 C.3     
  10 C10            3.4983     2.7026     0.9684 C.3     
  11 C11            5.6555     1.4612     0.6977 C.3     
  12 C12            6.1805     2.8910     0.9481 C.3     
  13 C13            5.5476     3.8446    -0.0323 C.3     
  14 C14            4.0205     3.6904    -0.0586 C.3     
  15 C15            6.5621     0.6438     1.6292 C.3     
  16 C16            7.9587     1.2308     1.2599 C.3     
  17 C17            7.6976     2.6713     0.7519 C.3     
  18 S18            8.6207     3.8707     1.7479 S.3     
  19 C19            6.0037     3.3640     2.3890 C.3     
  20 C20            1.3457     3.1279     2.1173 C.3     
  21 H21            2.0894     0.6329    -0.1609 H       
  22 O22            0.1683     0.9717    -1.7329 O.3     
  23 C23           10.3487     3.4858     1.3522 C.3     
  24 H24           -0.4202     3.5106    -1.4142 H       
  25 H25           -0.5869     3.4940     0.3466 H       
  26 H26           -1.4903     1.4192    -0.5918 H       
  27 H27           -0.3542     1.1914     1.5757 H       
  28 H28           -0.0657    -0.2475     0.5844 H       
  29 H29            1.9238     2.8318    -1.2686 H       
  30 H30            1.6536     4.3023    -0.3027 H       
  31 H31            1.7762     0.5874     2.8798 H       
  32 H32            2.0133    -0.8078     1.8138 H       
  33 H33            4.0208     0.9225     2.9488 H       
  34 H34            4.2385    -0.5198     1.9246 H       
  35 H35            3.7971     0.8632    -0.0888 H       
  36 H36            3.6528     3.0987     1.9761 H       
  37 H37            5.9251     1.1771    -0.3456 H       
  38 H38            5.8059     4.8770     0.2389 H       
  39 H39            5.9491     3.6564    -1.0377 H       
  40 H40            3.7205     3.3624    -1.0631 H       
  41 H41            3.5624     4.6726     0.1164 H       
  42 H42            6.3301     0.7906     2.6732 H       
  43 H43            6.5216    -0.4149     1.3658 H       
  44 H44            8.5947     1.2525     2.1427 H       
  45 H45            8.4142     0.6313     0.4744 H       
  46 H46            7.9483     2.7624    -0.2989 H       
  47 H47            6.6729     2.8020     3.0405 H       
  48 H48            6.2402     4.4260     2.4543 H       
  49 H49            4.9720     3.2016     2.7007 H       
  50 H50            1.7344     2.6225     3.0013 H       
  51 H51            1.5897     4.1890     2.1687 H       
  52 H52            0.2634     3.0056     2.0752 H       
  53 H53           -0.1472     1.3688    -2.5563 H       
  54 H54           10.5645     2.4546     1.6318 H       
  55 H55           10.5137     3.6143     0.2824 H       
  56 H56           11.0062     4.1572     1.9045 H       
@<TRIPOS>BOND
   1    1    2 1
   2    1    6 1
   3    1   24 1
   4    1   25 1
   5    2    3 1
   6    2   22 1
   7    2   26 1
   8    3    4 1
   9    3   27 1
  10    3   28 1
  11    4    5 1
  12    4    7 1
  13    4   21 1
  14    5    6 1
  15    5   20 1
  16    5   10 1
  17    6   29 1
  18    6   30 1
  19    7    8 1
  20    7   31 1
  21    7   32 1
  22    8    9 1
  23    8   33 1
  24    8   34 1
  25    9   10 1
  26    9   11 1
  27    9   35 1
  28   10   14 1
  29   10   36 1
  30   11   12 1
  31   11   15 1
  32   11   37 1
  33   12   13 1
  34   12   19 1
  35   12   17 1
  36   13   14 1
  37   13   38 1
  38   13   39 1
  39   14   40 1
  40   14   41 1
  41   15   16 1
  42   15   42 1
  43   15   43 1
  44   16   17 1
  45   16   44 1
  46   16   45 1
  47   17   18 1
  48   17   46 1
  49   18   23 1
  50   19   47 1
  51   19   48 1
  52   19   49 1
  53   20   50 1
  54   20   51 1
  55   20   52 1
  56   22   53 1
  57   23   54 1
  58   23   55 1
  59   23   56 1

#	End of record

