#	Name: ASD01148747
#	Creating user name:	WinNT
#	Creation time:	15. 06. 2019 19:03

#	Modifying user name:	WinNT
#	Modification time:	15. 06. 2019 19:03

#	Program:	/corina/corina34_cracker 3.40 0067  02.08.2006

@<TRIPOS>MOLECULE
ASD01148747
  51   53    0    0    0
SMALL
NO_CHARGES


@<TRIPOS>ATOM
   1 N1             0.0898     0.3167     1.3808 N.pl3   
   2 C2             0.3506    -0.9276     0.9102 C.2     
   3 C3             1.6719    -0.9710     0.5197 C.2     
   4 C4             2.2222     0.3126     0.7716 C.2     
   5 C5             1.2322     1.0780     1.2975 C.2     
   6 C6             2.3789    -2.1303    -0.0510 C.2     
   7 O7             2.1454    -3.2496     0.3637 O.2     
   8 N8             3.2846    -1.9509    -1.0329 N.am    
   9 C9             3.6489    -0.5960    -1.4547 C.3     
  10 C10            3.9047    -3.1106    -1.6784 C.3     
  11 C11            3.0622    -3.5348    -2.8830 C.3     
  12 C12           -1.1473     0.7583     1.8683 C.ar    
  13 C13           -1.6615     0.2272     3.0437 C.ar    
  14 C14           -2.8813     0.6646     3.5217 C.ar    
  15 C15           -3.5904     1.6300     2.8308 C.ar    
  16 C16           -3.0809     2.1608     1.6600 C.ar    
  17 C17           -1.8588     1.7320     1.1802 C.ar    
  18 S18           -5.1467     2.1845     3.4433 S.o2    
  19 O19           -5.8563     2.7018     2.3262 O.2     
  20 O20           -5.6484     1.1412     4.2674 O.2     
  21 N21           -4.8498     3.4696     4.4446 N.am    
  22 C22           -0.6334    -2.0661     0.8282 C.3     
  23 C23            1.3602     2.4921     1.7109 C.ar    
  24 C24            0.4457     3.0451     2.6084 C.ar    
  25 C25            0.5705     4.3647     2.9906 C.ar    
  26 C26            1.6002     5.1403     2.4853 C.ar    
  27 C27            2.5103     4.5973     1.5942 C.ar    
  28 C28            2.3993     3.2772     1.2094 C.ar    
  29 Cl29           1.7505     6.8003     2.9706 Cl      
  30 H30            3.2391     0.6225     0.5809 H       
  31 H31            4.4275    -0.2081    -0.7979 H       
  32 H32            4.0179    -0.6216    -2.4800 H       
  33 H33            2.7724     0.0496    -1.3999 H       
  34 H34            4.9085    -2.8474    -2.0116 H       
  35 H35            3.9624    -3.9346    -0.9671 H       
  36 H36            3.5236    -4.3977    -3.3633 H       
  37 H37            2.0584    -3.7981    -2.5497 H       
  38 H38            3.0045    -2.7109    -3.5943 H       
  39 H39           -1.1085    -0.5273     3.5833 H       
  40 H40           -3.2818     0.2519     4.4359 H       
  41 H41           -3.6371     2.9146     1.1226 H       
  42 H42           -1.4591     2.1504     0.2683 H       
  43 H43           -5.5109     4.1729     4.5401 H       
  44 H44           -4.0147     3.5189     4.9357 H       
  45 H45           -1.1400    -2.0397    -0.1365 H       
  46 H46           -0.1035    -3.0127     0.9345 H       
  47 H47           -1.3683    -1.9694     1.6273 H       
  48 H48           -0.3583     2.4413     3.0026 H       
  49 H49           -0.1366     4.7937     3.6851 H       
  50 H50            3.3110     5.2072     1.2028 H       
  51 H51            3.1125     2.8533     0.5181 H       
@<TRIPOS>BOND
   1    1    2 1
   2    1    5 1
   3    1   12 1
   4    2    3 2
   5    2   22 1
   6    3    4 1
   7    3    6 1
   8    4    5 2
   9    4   30 1
  10    5   23 1
  11    6    7 2
  12    6    8 am
  13    8    9 1
  14    8   10 1
  15    9   31 1
  16    9   32 1
  17    9   33 1
  18   10   11 1
  19   10   34 1
  20   10   35 1
  21   11   36 1
  22   11   37 1
  23   11   38 1
  24   12   13 ar
  25   12   17 ar
  26   13   14 ar
  27   13   39 1
  28   14   15 ar
  29   14   40 1
  30   15   16 ar
  31   15   18 1
  32   16   17 ar
  33   16   41 1
  34   17   42 1
  35   18   19 2
  36   18   20 2
  37   18   21 am
  38   21   43 1
  39   21   44 1
  40   22   45 1
  41   22   46 1
  42   22   47 1
  43   23   24 ar
  44   23   28 ar
  45   24   25 ar
  46   24   48 1
  47   25   26 ar
  48   25   49 1
  49   26   27 ar
  50   26   29 1
  51   27   28 ar
  52   27   50 1
  53   28   51 1

#	End of record

