#	Name: ASD02508314
#	Creating user name:	WinNT
#	Creation time:	15. 06. 2019 20:24

#	Modifying user name:	WinNT
#	Modification time:	15. 06. 2019 20:24

#	Program:	/corina/corina34_cracker 3.40 0067  02.08.2006

@<TRIPOS>MOLECULE
ASD02508314
  48   50    0    0    0
SMALL
NO_CHARGES


@<TRIPOS>ATOM
   1 C1            -0.0657     1.3532    -0.4287 C.ar    
   2 C2            -0.1245     0.0096    -0.0817 C.ar    
   3 C3             1.0499    -0.7035     0.1242 C.ar    
   4 C4             2.2712    -0.0748    -0.0166 C.ar    
   5 C5             2.3262     1.2634    -0.3618 C.ar    
   6 C6             1.1594     1.9759    -0.5680 C.ar    
   7 S7             3.8868     2.0618    -0.5399 S.o2    
   8 O8             3.6114     3.3941    -0.9502 O.2     
   9 O9             4.6342     1.7467     0.6268 O.2     
  10 C10            4.7178     1.2881    -1.8873 C.ar    
  11 C11            4.4451     1.6817    -3.1836 C.ar    
  12 C12            5.0973     1.0739    -4.2462 C.ar    
  13 C13            6.0279     0.0708    -4.0032 C.ar    
  14 C14            6.2964    -0.3200    -2.6998 C.ar    
  15 C15            5.6457     0.2921    -1.6454 C.ar    
  16 O16            4.8125     1.4666    -5.5178 O.3     
  17 C17            5.7544     1.0985    -6.5313 C.3     
  18 C18            6.1176    -0.3798    -6.3361 C.3     
  19 O19            6.6851    -0.5334    -5.0306 O.3     
  20 C20           -2.5347    -0.1056    -0.6484 C.3     
  21 N21           -1.3616    -0.6231     0.0604 N.am    
  22 S22           -1.5023    -1.9581     1.0299 S.o2    
  23 O23           -0.5165    -1.7666     2.0353 O.2     
  24 O24           -2.8838    -2.0085     1.3587 O.2     
  25 C25           -1.0528    -3.3480    -0.0456 C.3     
  26 C26           -2.5686    -0.6801    -2.0660 C.3     
  27 C27            3.5457    -0.8475     0.2066 C.3     
  28 H28           -0.9766     1.9093    -0.5939 H       
  29 H29            1.0077    -1.7482     0.3945 H       
  30 H30            1.2058     3.0208    -0.8371 H       
  31 H31            3.7231     2.4631    -3.3695 H       
  32 H32            7.0175    -1.1010    -2.5084 H       
  33 H33            5.8562    -0.0138    -0.6313 H       
  34 H34            5.3092     1.2407    -7.5160 H       
  35 H35            6.6506     1.7122    -6.4405 H       
  36 H36            5.2205    -0.9930    -6.4215 H       
  37 H37            6.8437    -0.6826    -7.0905 H       
  38 H38           -3.4394    -0.3986    -0.1158 H       
  39 H39           -2.4785     0.9818    -0.6983 H       
  40 H40            0.0088    -3.2925    -0.2866 H       
  41 H41           -1.2601    -4.2868     0.4681 H       
  42 H42           -1.6370    -3.3000    -0.9646 H       
  43 H43           -3.4414    -0.2951    -2.5933 H       
  44 H44           -1.6638    -0.3871    -2.5985 H       
  45 H45           -2.6247    -1.7676    -2.0160 H       
  46 H46            3.9294    -1.1998    -0.7509 H       
  47 H47            4.2851    -0.2003     0.6784 H       
  48 H48            3.3444    -1.7012     0.8537 H       
@<TRIPOS>BOND
   1    1    2 ar
   2    1    6 ar
   3    1   28 1
   4    2    3 ar
   5    2   21 1
   6    3    4 ar
   7    3   29 1
   8    4    5 ar
   9    4   27 1
  10    5    6 ar
  11    5    7 1
  12    6   30 1
  13    7    8 2
  14    7    9 2
  15    7   10 1
  16   10   11 ar
  17   10   15 ar
  18   11   12 ar
  19   11   31 1
  20   12   13 ar
  21   12   16 1
  22   13   14 ar
  23   13   19 1
  24   14   15 ar
  25   14   32 1
  26   15   33 1
  27   16   17 1
  28   17   18 1
  29   17   34 1
  30   17   35 1
  31   18   19 1
  32   18   36 1
  33   18   37 1
  34   20   21 1
  35   20   26 1
  36   20   38 1
  37   20   39 1
  38   21   22 am
  39   22   23 2
  40   22   24 2
  41   22   25 1
  42   25   40 1
  43   25   41 1
  44   25   42 1
  45   26   43 1
  46   26   44 1
  47   26   45 1
  48   27   46 1
  49   27   47 1
  50   27   48 1

#	End of record

