#	Name: ASD06020114
#	Creating user name:	WinNT
#	Creation time:	15. 06. 2019 21:04

#	Modifying user name:	WinNT
#	Modification time:	15. 06. 2019 21:04

#	Program:	/corina/corina34_cracker 3.40 0067  02.08.2006

@<TRIPOS>MOLECULE
ASD06020114
  35   38    0    0    0
SMALL
NO_CHARGES


@<TRIPOS>ATOM
   1 C1             2.2993     1.3280     0.0130 C.ar    
   2 N2             2.2983     0.0106    -0.0001 N.ar    
   3 C3             1.1548    -0.6720    -0.0054 C.ar    
   4 C4            -0.0487     0.0265     0.0031 C.ar    
   5 C5            -0.0034     1.4172     0.0168 C.ar    
   6 N6             1.1816     2.0252     0.0213 N.ar    
   7 N7             1.1634    -2.0596    -0.0197 N.pl3   
   8 N8            -1.1746     2.1590     0.0253 N.pl3   
   9 C9             2.3690    -2.7476    -0.1401 C.ar    
  10 C10            2.3860    -4.1430    -0.0417 C.ar    
  11 C11            3.5996    -4.8289    -0.1634 C.ar    
  12 C12            4.7636    -4.0471    -0.3842 C.ar    
  13 C13            4.6561    -2.6932    -0.4669 C.ar    
  14 N14            3.4884    -2.0788    -0.3520 N.ar    
  15 S15            1.1070    -5.3228     0.2235 S.3     
  16 C16            2.2834    -6.6285     0.1516 C.2     
  17 N17            3.4682    -6.1516    -0.0497 N.2     
  18 F18            5.9695    -4.6430    -0.5109 F       
  19 C19            1.9636    -8.0641     0.2995 C.ar    
  20 C20            2.9787    -9.0204     0.2253 C.ar    
  21 C21            2.6724   -10.3598     0.3643 C.ar    
  22 C22            1.3639   -10.7552     0.5763 C.ar    
  23 C23            0.3533    -9.8136     0.6509 C.ar    
  24 C24            0.6456    -8.4702     0.5199 C.ar    
  25 Cl25          -0.6231    -7.2897     0.6217 Cl      
  26 Cl26           4.6214    -8.5266    -0.0418 Cl      
  27 H27            3.2439     1.8516     0.0216 H       
  28 H28           -0.9933    -0.4971    -0.0013 H       
  29 H29            0.3300    -2.5505     0.0542 H       
  30 H30           -2.0338     1.7089     0.0216 H       
  31 H31           -1.1348     3.1281     0.0348 H       
  32 H32            5.5458    -2.1043    -0.6346 H       
  33 H33            3.4564   -11.1005     0.3071 H       
  34 H34            1.1301   -11.8041     0.6836 H       
  35 H35           -0.6661   -10.1295     0.8162 H       
@<TRIPOS>BOND
   1    1    2 ar
   2    1    6 ar
   3    1   27 1
   4    2    3 ar
   5    3    4 ar
   6    3    7 1
   7    4    5 ar
   8    4   28 1
   9    5    6 ar
  10    5    8 1
  11    7    9 1
  12    7   29 1
  13    8   30 1
  14    8   31 1
  15    9   10 ar
  16    9   14 ar
  17   10   11 ar
  18   10   15 1
  19   11   12 ar
  20   11   17 1
  21   12   13 ar
  22   12   18 1
  23   13   14 ar
  24   13   32 1
  25   15   16 1
  26   16   17 2
  27   16   19 1
  28   19   20 ar
  29   19   24 ar
  30   20   21 ar
  31   20   26 1
  32   21   22 ar
  33   21   33 1
  34   22   23 ar
  35   22   34 1
  36   23   24 ar
  37   23   35 1
  38   24   25 1

#	End of record

