#	Name: ASD04912005
#	Creating user name:	WinNT
#	Creation time:	15. 06. 2019 20:56

#	Modifying user name:	WinNT
#	Modification time:	15. 06. 2019 20:56

#	Program:	/corina/corina34_cracker 3.40 0067  02.08.2006

@<TRIPOS>MOLECULE
ASD04912005
  60   63    0    0    0
SMALL
NO_CHARGES


@<TRIPOS>ATOM
   1 C1             2.2965    -1.0034    -0.5789 C.ar    
   2 C2             1.0623    -1.2316     0.0002 C.ar    
   3 C3             0.3088    -2.3242    -0.3864 C.ar    
   4 C4             0.7894    -3.1884    -1.3524 C.ar    
   5 C5             2.0233    -2.9596    -1.9322 C.ar    
   6 C6             2.7748    -1.8646    -1.5487 C.ar    
   7 C7             3.1179     0.1877    -0.1575 C.3     
   8 C8             0.5383    -0.2896     1.0533 C.3     
   9 C9             2.5474    -3.9019    -2.9850 C.3     
  10 C10           -0.0315    -4.3800    -1.7731 C.3     
  11 C11           -1.0363    -2.5736     0.2457 C.3     
  12 N12           -0.8633    -3.3665     1.4654 N.pl3   
  13 C13           -1.8702    -3.6928     2.3469 C.ar    
  14 C14           -1.2900    -4.4563     3.3740 C.ar    
  15 C15            0.1302    -4.5645     3.0476 C.2     
  16 C16            0.3207    -3.8982     1.8957 C.2     
  17 C17           -3.2338    -3.4171     2.3839 C.ar    
  18 C18           -4.0109    -3.8897     3.4210 C.ar    
  19 C19           -3.4537    -4.6429     4.4396 C.ar    
  20 C20           -2.0919    -4.9360     4.4298 C.ar    
  21 C21           -1.4961    -5.7369     5.5108 C.2     
  22 N22           -0.2253    -6.0063     5.4951 N.2     
  23 N23            0.3419    -6.7689     6.5244 N.am    
  24 C24            1.6603    -7.0484     6.5080 C.2     
  25 C25            2.2579    -7.8518     7.5924 C.ar    
  26 O26            2.3576    -6.6386     5.5997 O.2     
  27 C27            1.4558    -8.3233     8.6373 C.ar    
  28 C28            2.0081    -9.0733     9.6516 C.ar    
  29 C29            3.3651    -9.3673     9.6450 C.ar    
  30 C30            4.1797    -8.8998     8.6011 C.ar    
  31 C31            3.6203    -8.1457     7.5725 C.ar    
  32 O32            3.9036   -10.1052    10.6463 O.3     
  33 C33            5.5795    -9.2015     8.5917 C.1     
  34 N34            6.6900    -9.4408     8.5842 N.1     
  35 H35            3.7388    -1.6859    -2.0017 H       
  36 H36            3.7637    -0.0924     0.6748 H       
  37 H37            3.7296     0.5220    -0.9954 H       
  38 H38            2.4546     0.9949     0.1531 H       
  39 H39           -0.0357     0.5051     0.5768 H       
  40 H40           -0.1031    -0.8371     1.7439 H       
  41 H41            1.3748     0.1446     1.6010 H       
  42 H42            2.2254    -3.5623    -3.9694 H       
  43 H43            3.6365    -3.9212    -2.9456 H       
  44 H44            2.1594    -4.9039    -2.8014 H       
  45 H45           -0.6065    -4.1288    -2.6644 H       
  46 H46            0.6301    -5.2181    -1.9918 H       
  47 H47           -0.7121    -4.6551    -0.9673 H       
  48 H48           -1.5029    -1.6206     0.4951 H       
  49 H49           -1.6714    -3.1170    -0.4539 H       
  50 H50            0.8834    -5.0843     3.6212 H       
  51 H51            1.2687    -3.7931     1.3891 H       
  52 H52           -3.6854    -2.8305     1.5975 H       
  53 H53           -5.0679    -3.6686     3.4385 H       
  54 H54           -4.0767    -5.0051     5.2441 H       
  55 H55           -2.1153    -6.1008     6.3174 H       
  56 H56           -0.2142    -7.0958     7.2488 H       
  57 H57            0.3996    -8.0979     8.6487 H       
  58 H58            1.3835    -9.4340    10.4555 H       
  59 H59            4.2413    -7.7832     6.7667 H       
  60 H60            3.8976   -11.0578    10.4799 H       
@<TRIPOS>BOND
   1    1    2 ar
   2    1    7 1
   3    1    6 ar
   4    2    3 ar
   5    2    8 1
   6    3    4 ar
   7    3   11 1
   8    4    5 ar
   9    4   10 1
  10    5    6 ar
  11    5    9 1
  12    6   35 1
  13    7   36 1
  14    7   37 1
  15    7   38 1
  16    8   39 1
  17    8   40 1
  18    8   41 1
  19    9   42 1
  20    9   43 1
  21    9   44 1
  22   10   45 1
  23   10   46 1
  24   10   47 1
  25   11   12 1
  26   11   48 1
  27   11   49 1
  28   12   13 1
  29   12   16 1
  30   13   14 ar
  31   13   17 ar
  32   14   15 1
  33   14   20 ar
  34   15   16 2
  35   15   50 1
  36   16   51 1
  37   17   18 ar
  38   17   52 1
  39   18   19 ar
  40   18   53 1
  41   19   20 ar
  42   19   54 1
  43   20   21 1
  44   21   22 2
  45   21   55 1
  46   22   23 1
  47   23   24 am
  48   23   56 1
  49   24   25 1
  50   24   26 2
  51   25   27 ar
  52   25   31 ar
  53   27   28 ar
  54   27   57 1
  55   28   29 ar
  56   28   58 1
  57   29   30 ar
  58   29   32 1
  59   30   31 ar
  60   30   33 1
  61   31   59 1
  62   32   60 1
  63   33   34 3

#	End of record

