#	Name: ASD01913426
#	Creating user name:	WinNT
#	Creation time:	15. 06. 2019 20:01

#	Modifying user name:	WinNT
#	Modification time:	15. 06. 2019 20:01

#	Program:	/corina/corina34_cracker 3.40 0067  02.08.2006

@<TRIPOS>MOLECULE
ASD01913426
  34   36    0    0    0
SMALL
NO_CHARGES


@<TRIPOS>ATOM
   1 C1            -0.3597    -0.7339    -2.2463 C.ar    
   2 C2            -0.6984    -0.0501    -1.0830 C.ar    
   3 C3            -0.5581     1.3339    -1.0673 C.ar    
   4 N4            -0.1108     1.9461    -2.1512 N.ar    
   5 C5             0.1997     1.2628    -3.2345 C.ar    
   6 N6             0.0805    -0.0486    -3.2886 N.ar    
   7 C7            -1.1682    -2.0752    -0.0312 C.ar    
   8 C8            -0.0509    -2.7920     0.3740 C.ar    
   9 C9            -0.0607    -4.1765     0.3393 C.ar    
  10 C10           -1.1839    -4.8521    -0.0987 C.ar    
  11 C11           -2.3115    -4.1378    -0.5074 C.ar    
  12 C12           -2.2989    -2.7433    -0.4719 C.ar    
  13 C13           -3.5147    -4.8567    -0.9770 C.2     
  14 N14           -3.5242    -6.2040    -1.0112 N.am    
  15 O15           -4.4955    -4.2327    -1.3324 O.2     
  16 O16           -1.1550    -0.7170     0.0097 O.3     
  17 C17           -4.6548    -6.8795    -1.4525 C.2     
  18 S18           -6.0988    -6.1316    -1.9802 S.3     
  19 C19           -6.8169    -7.7107    -2.2873 C.2     
  20 C20           -5.9171    -8.6434    -1.9692 C.2     
  21 N21           -4.7667    -8.1688    -1.5294 N.2     
  22 C22           -6.1904   -10.1191    -2.1062 C.3     
  23 F23            1.0306    -4.8682     0.7343 F       
  24 F24           -5.4592   -10.8203    -1.1413 F       
  25 F25           -7.5562   -10.3595    -1.9220 F       
  26 H26           -0.4507    -1.8089    -2.2961 H       
  27 H27           -0.8109     1.9002    -0.1831 H       
  28 H28            0.5622     1.7927    -4.1029 H       
  29 H29            0.8292    -2.2684     0.7171 H       
  30 H30           -1.1891    -5.9318    -0.1252 H       
  31 H31           -3.1687    -2.1859    -0.7869 H       
  32 H32           -2.7416    -6.7019    -0.7276 H       
  33 H33           -7.8118    -7.8923    -2.6663 H       
  34 H34           -5.8936   -10.4529    -3.1005 H       
@<TRIPOS>BOND
   1    1    2 ar
   2    1    6 ar
   3    1   26 1
   4    2    3 ar
   5    2   16 1
   6    3    4 ar
   7    3   27 1
   8    4    5 ar
   9    5    6 ar
  10    5   28 1
  11    7    8 ar
  12    7   12 ar
  13    7   16 1
  14    8    9 ar
  15    8   29 1
  16    9   10 ar
  17    9   23 1
  18   10   11 ar
  19   10   30 1
  20   11   12 ar
  21   11   13 1
  22   12   31 1
  23   13   14 am
  24   13   15 2
  25   14   17 1
  26   14   32 1
  27   17   18 1
  28   17   21 2
  29   18   19 1
  30   19   20 2
  31   19   33 1
  32   20   21 1
  33   20   22 1
  34   22   24 1
  35   22   25 1
  36   22   34 1

#	End of record

