#	Name: ASD01478047
#	Creating user name:	WinNT
#	Creation time:	15. 06. 2019 19:21

#	Modifying user name:	WinNT
#	Modification time:	15. 06. 2019 19:21

#	Program:	/corina/corina34_cracker 3.40 0067  02.08.2006

@<TRIPOS>MOLECULE
ASD01478047
  80   83    0    0    0
SMALL
NO_CHARGES


@<TRIPOS>ATOM
   1 C1             0.5302     0.7693     2.3390 C.3     
   2 C2             0.4688    -0.7412     2.6059 C.3     
   3 C3             1.9782     1.2116     2.6322 C.3     
   4 C4             2.4999     0.1565     3.6365 C.3     
   5 C5             1.8683    -1.1622     3.1280 C.3     
   6 C6            -0.9277     2.6122     2.7565 C.2     
   7 O7            -0.3905     1.4673     3.2184 O.3     
   8 N8            -1.7899     3.3092     3.5228 N.am    
   9 O9            -0.6351     3.0171     1.6488 O.2     
  10 C10           -3.6106     4.2348     2.1774 C.3     
  11 C11           -2.3744     4.5550     3.0202 C.3     
  12 C12           -2.7773     5.4418     4.2001 C.3     
  13 C13           -3.2719     6.7921     3.6778 C.3     
  14 N14           -3.5186     7.6920     4.8072 N.am    
  15 S15           -2.3429     8.7521     5.2933 S.o2    
  16 C16           -2.5813    10.2457     4.3895 C.ar    
  17 C17           -3.3986    11.2377     4.8990 C.ar    
  18 C18           -3.5872    12.4096     4.1923 C.ar    
  19 C19           -2.9555    12.5907     2.9704 C.ar    
  20 C20           -2.1359    11.5938     2.4614 C.ar    
  21 C21           -1.9462    10.4261     3.1747 C.ar    
  22 O22           -2.6164     9.0583     6.6537 O.2     
  23 O23           -1.1059     8.2092     4.8523 O.2     
  24 C24           -4.8053     7.6540     5.5065 C.3     
  25 C25           -5.9193     8.0810     4.5486 C.3     
  26 C26           -7.2765     7.8984     5.2308 C.3     
  27 C27           -5.7317     9.5520     4.1716 C.3     
  28 O28           -3.8217     4.8055     4.9394 O.3     
  29 O29            1.6616    -2.0304     4.2486 O.3     
  30 C30            0.2570    -2.2442     4.4557 C.3     
  31 C31           -0.4364    -1.0049     3.8365 C.3     
  32 O32            3.9263     0.0816     3.5934 O.3     
  33 C33           -3.1961     3.4652     0.9499 C.ar    
  34 C34           -3.1467     2.0842     0.9839 C.ar    
  35 C35           -2.7664     1.3782    -0.1422 C.ar    
  36 C36           -2.4360     2.0533    -1.3023 C.ar    
  37 C37           -2.4863     3.4343    -1.3366 C.ar    
  38 C38           -2.8707     4.1401    -0.2119 C.ar    
  39 O39           -3.1397    13.7425     2.2731 O.3     
  40 C40           -2.4580    13.8600     1.0227 C.3     
  41 H41            0.2808     0.9747     1.2980 H       
  42 H42            0.1638    -1.3059     1.7249 H       
  43 H43            2.5740     1.1971     1.7195 H       
  44 H44            1.9904     2.2048     3.0812 H       
  45 H45            2.1561     0.3833     4.6457 H       
  46 H46            2.4709    -1.6256     2.3468 H       
  47 H47           -2.0235     2.9861     4.4070 H       
  48 H48           -4.3054     3.6348     2.7650 H       
  49 H49           -4.0962     5.1634     1.8774 H       
  50 H50           -1.6416     5.0783     2.4060 H       
  51 H51           -1.9153     5.5969     4.8490 H       
  52 H52           -2.5161     7.2279     3.0243 H       
  53 H53           -4.1966     6.6488     3.1187 H       
  54 H54           -3.8904    11.0961     5.8500 H       
  55 H55           -4.2260    13.1841     4.5905 H       
  56 H56           -1.6431    11.7325     1.5105 H       
  57 H57           -1.3082     9.6497     2.7789 H       
  58 H58           -4.9977     6.6406     5.8588 H       
  59 H59           -4.7768     8.3350     6.3571 H       
  60 H60           -5.8795     7.4674     3.6486 H       
  61 H61           -7.3162     8.5121     6.1308 H       
  62 H62           -8.0701     8.2026     4.5483 H       
  63 H63           -7.4101     6.8505     5.4994 H       
  64 H64           -4.7619     9.6833     3.6918 H       
  65 H65           -6.5213     9.8543     3.4837 H       
  66 H66           -5.7784    10.1663     5.0708 H       
  67 H67           -4.6514     4.7164     4.4508 H       
  68 H68           -0.0666    -3.1523     3.9470 H       
  69 H69            0.0370    -2.3077     5.5214 H       
  70 H70           -0.4184    -0.1602     4.5251 H       
  71 H71           -1.4564    -1.2378     3.5306 H       
  72 H72            4.3709     0.9061     3.8338 H       
  73 H73           -3.4048     1.5567     1.8903 H       
  74 H74           -2.7271     0.2993    -0.1154 H       
  75 H75           -2.1382     1.5018    -2.1819 H       
  76 H76           -2.2278     3.9618    -2.2429 H       
  77 H77           -2.9136     5.2189    -0.2397 H       
  78 H78           -2.7803    13.0596     0.3566 H       
  79 H79           -2.6908    14.8244     0.5711 H       
  80 H80           -1.3830    13.7856     1.1865 H       
@<TRIPOS>BOND
   1    1    2 1
   2    1    3 1
   3    1    7 1
   4    1   41 1
   5    2    5 1
   6    2   31 1
   7    2   42 1
   8    3    4 1
   9    3   43 1
  10    3   44 1
  11    4    5 1
  12    4   32 1
  13    4   45 1
  14    5   29 1
  15    5   46 1
  16    6    7 1
  17    6    8 am
  18    6    9 2
  19    8   11 1
  20    8   47 1
  21   10   11 1
  22   10   33 1
  23   10   48 1
  24   10   49 1
  25   11   12 1
  26   11   50 1
  27   12   13 1
  28   12   28 1
  29   12   51 1
  30   13   14 1
  31   13   52 1
  32   13   53 1
  33   14   15 am
  34   14   24 1
  35   15   16 1
  36   15   22 2
  37   15   23 2
  38   16   17 ar
  39   16   21 ar
  40   17   18 ar
  41   17   54 1
  42   18   19 ar
  43   18   55 1
  44   19   20 ar
  45   19   39 1
  46   20   21 ar
  47   20   56 1
  48   21   57 1
  49   24   25 1
  50   24   58 1
  51   24   59 1
  52   25   26 1
  53   25   27 1
  54   25   60 1
  55   26   61 1
  56   26   62 1
  57   26   63 1
  58   27   64 1
  59   27   65 1
  60   27   66 1
  61   28   67 1
  62   29   30 1
  63   30   31 1
  64   30   68 1
  65   30   69 1
  66   31   70 1
  67   31   71 1
  68   32   72 1
  69   33   34 ar
  70   33   38 ar
  71   34   35 ar
  72   34   73 1
  73   35   36 ar
  74   35   74 1
  75   36   37 ar
  76   36   75 1
  77   37   38 ar
  78   37   76 1
  79   38   77 1
  80   39   40 1
  81   40   78 1
  82   40   79 1
  83   40   80 1

#	End of record

