#	Name: ASD03080162
#	Creating user name:	WinNT
#	Creation time:	15. 06. 2019 20:26

#	Modifying user name:	WinNT
#	Modification time:	15. 06. 2019 20:26

#	Program:	/corina/corina34_cracker 3.40 0067  02.08.2006

@<TRIPOS>MOLECULE
ASD03080162
  35   35    0    0    0
SMALL
NO_CHARGES


@<TRIPOS>ATOM
   1 C1             0.0649     1.8650    -0.0259 C.3     
   2 C2             1.5994     2.1142     0.0943 C.3     
   3 C3             1.9974     1.4529     1.4491 C.3     
   4 C4             1.8669    -0.0664     1.1956 C.3     
   5 C5            -0.0656     0.3457    -0.2794 C.3     
   6 C6             1.4024    -0.1800    -0.2885 C.3     
   7 C7             2.1466     1.0490    -0.9203 C.3     
   8 C8             3.2190    -0.7569     1.3856 C.3     
   9 C9             0.8197    -0.6751     2.1303 C.3     
  10 C10            1.0403     1.8926     2.5588 C.3     
  11 N11            3.3811     1.7988     1.8008 N.3     
  12 C12            3.5345     3.2501     1.9685 C.3     
  13 H13           -0.4385     2.1402     0.9010 H       
  14 H14           -0.3469     2.4268    -0.8642 H       
  15 H15            1.9274     3.1439    -0.0479 H       
  16 H16           -0.6331    -0.1260     0.5228 H       
  17 H17           -0.5415     0.1606    -1.2424 H       
  18 H18            1.5588    -1.1482    -0.7640 H       
  19 H19            1.8155     1.2475    -1.9397 H       
  20 H20            3.2300     0.9459    -0.8601 H       
  21 H21            3.9561    -0.3005     0.7249 H       
  22 H22            3.5411    -0.6462     2.4210 H       
  23 H23            3.1229    -1.8159     1.1462 H       
  24 H24            0.6211    -1.7045     1.8321 H       
  25 H25            1.1934    -0.6591     3.1541 H       
  26 H26           -0.1014    -0.0954     2.0707 H       
  27 H27            0.0416     1.5086     2.3506 H       
  28 H28            1.3880     1.5012     3.5148 H       
  29 H29            1.0092     2.9813     2.6015 H       
  30 H30            3.6775     1.3057     2.6297 H       
  31 H31            4.5681     3.4786     2.2285 H       
  32 H32            3.2746     3.7530     1.0370 H       
  33 H33            2.8748     3.5957     2.7643 H       
  34 Cl34           9.5681     8.7530     8.5148 Cl      
  35 H35            9.5681    10.1230     8.5148 H       
@<TRIPOS>BOND
   1    1    5 1
   2    1    2 1
   3    1   13 1
   4    1   14 1
   5    2    3 1
   6    2    7 1
   7    2   15 1
   8    3   10 1
   9    3   11 1
  10    3    4 1
  11    4    6 1
  12    4    8 1
  13    4    9 1
  14    5    6 1
  15    5   16 1
  16    5   17 1
  17    6    7 1
  18    6   18 1
  19    7   19 1
  20    7   20 1
  21    8   21 1
  22    8   22 1
  23    8   23 1
  24    9   24 1
  25    9   25 1
  26    9   26 1
  27   10   27 1
  28   10   28 1
  29   10   29 1
  30   11   12 1
  31   11   30 1
  32   12   31 1
  33   12   32 1
  34   12   33 1
  35   34   35 1

#	End of record

