#	Name: ASD04870001
#	Creating user name:	WinNT
#	Creation time:	15. 06. 2019 20:52

#	Modifying user name:	WinNT
#	Modification time:	15. 06. 2019 20:52

#	Program:	/corina/corina34_cracker 3.40 0067  02.08.2006

@<TRIPOS>MOLECULE
ASD04870001
  41   44    0    0    0
SMALL
NO_CHARGES


@<TRIPOS>ATOM
   1 C1            -0.0168     1.3904     0.0097 C.ar    
   2 C2             0.0021    -0.0041     0.0020 C.ar    
   3 C3             1.2193    -0.6770    -0.0045 C.ar    
   4 C4             2.4132     0.0375    -0.0034 C.ar    
   5 C5             2.3911     1.4383    -0.0126 C.ar    
   6 C6             1.1633     2.0990     0.0022 C.ar    
   7 C7             3.6962    -0.7073     0.0304 C.2     
   8 C8             4.9276    -0.0565     0.3284 C.2     
   9 S9             4.9490     1.6796     0.6593 S.o2    
  10 N10            3.5462     2.2253    -0.0591 N.am    
  11 N11            3.9619    -1.9659    -0.1758 N.2     
  12 N12            5.3455    -2.1536    -0.0152 N.pl3   
  13 C13            5.9045    -0.9568     0.2950 C.2     
  14 O14            4.7854     1.8372     2.0620 O.2     
  15 O15            6.0335     2.2293    -0.0761 O.2     
  16 C16            3.5243     3.5239    -0.7368 C.3     
  17 C17           -1.2707    -0.7664     0.0013 C.ar    
  18 C18           -2.4900    -0.0917     0.0083 C.ar    
  19 C19           -3.6709    -0.8060     0.0072 C.ar    
  20 C20           -3.6457    -2.1890    -0.0005 C.ar    
  21 C21           -2.4383    -2.8639    -0.0074 C.ar    
  22 C22           -1.2513    -2.1598    -0.0122 C.ar    
  23 C23           -4.9385    -2.9634    -0.0007 C.3     
  24 C24           -5.3805    -3.2176    -1.4432 C.3     
  25 H25           -0.9603     1.9159     0.0170 H       
  26 H26            1.2378    -1.7568    -0.0101 H       
  27 H27            1.1379     3.1787     0.0079 H       
  28 H28            5.8195    -2.9946    -0.1098 H       
  29 H29            6.9519    -0.7700     0.4807 H       
  30 H30            4.5092     3.9858    -0.6690 H       
  31 H31            3.2608     3.3823    -1.7850 H       
  32 H32            2.7865     4.1697    -0.2608 H       
  33 H33           -2.5108     0.9881     0.0150 H       
  34 H34           -4.6165    -0.2842     0.0126 H       
  35 H35           -2.4244    -3.9438    -0.0134 H       
  36 H36           -0.3091    -2.6877    -0.0176 H       
  37 H37           -4.7913    -3.9164     0.5075 H       
  38 H38           -5.7059    -2.3894     0.5187 H       
  39 H39           -4.6131    -3.7915    -1.9626 H       
  40 H40           -6.3156    -3.7777    -1.4434 H       
  41 H41           -5.5277    -2.2646    -1.9514 H       
@<TRIPOS>BOND
   1    1    2 ar
   2    1    6 ar
   3    1   25 1
   4    2    3 ar
   5    2   17 1
   6    3    4 ar
   7    3   26 1
   8    4    5 ar
   9    4    7 1
  10    5    6 ar
  11    5   10 1
  12    6   27 1
  13    7    8 1
  14    7   11 2
  15    8    9 1
  16    8   13 2
  17    9   10 am
  18    9   14 2
  19    9   15 2
  20   10   16 1
  21   11   12 1
  22   12   13 1
  23   12   28 1
  24   13   29 1
  25   16   30 1
  26   16   31 1
  27   16   32 1
  28   17   18 ar
  29   17   22 ar
  30   18   19 ar
  31   18   33 1
  32   19   20 ar
  33   19   34 1
  34   20   21 ar
  35   20   23 1
  36   21   22 ar
  37   21   35 1
  38   22   36 1
  39   23   24 1
  40   23   37 1
  41   23   38 1
  42   24   39 1
  43   24   40 1
  44   24   41 1

#	End of record

