#	Name: ASD03090616
#	Creating user name:	WinNT
#	Creation time:	15. 06. 2019 20:29

#	Modifying user name:	WinNT
#	Modification time:	15. 06. 2019 20:29

#	Program:	/corina/corina34_cracker 3.40 0067  02.08.2006

@<TRIPOS>MOLECULE
ASD03090616
  38   39    0    0    0
SMALL
NO_CHARGES


@<TRIPOS>ATOM
   1 N1            -0.0162     1.3436     0.0094 N.am    
   2 C2             0.0195     0.1477     0.6299 C.2     
   3 O3             1.0730    -0.2852     1.0556 O.2     
   4 N4            -1.1126    -0.5684     0.7786 N.am    
   5 S5            -2.4306    -2.8125     1.6754 S.3     
   6 C6            -1.0758    -1.8017     1.4185 C.2     
   7 N7            -0.0094    -2.3530     1.9075 N.2     
   8 C8            -0.1566    -3.5316     2.4838 C.2     
   9 C9            -1.4066    -3.9979     2.4815 C.2     
  10 C10           -1.8629    -5.3097     3.0664 C.3     
  11 C11            1.1453     2.1274    -0.0708 C.ar    
  12 C12            1.0452     3.5110    -0.1994 C.ar    
  13 C13            2.1930     4.2816    -0.2784 C.ar    
  14 C14            3.4395     3.6750    -0.2294 C.ar    
  15 C15            3.5373     2.2975    -0.1018 C.ar    
  16 C16            2.3933     1.5262    -0.0165 C.ar    
  17 C17            4.8928     1.6412    -0.0493 C.3     
  18 F18            4.7361     0.2571     0.0805 F       
  19 F19            5.5932     1.9228    -1.2272 F       
  20 F20            5.6076     2.1345     1.0475 F       
  21 O21            4.5666     4.4316    -0.3069 O.3     
  22 C22            4.3922     5.8439    -0.4377 C.3     
  23 O23           -0.1776     4.1037    -0.2477 O.3     
  24 C24           -0.2043     5.5263    -0.3803 C.3     
  25 H25           -0.8436     1.6607    -0.3852 H       
  26 H26           -1.9530    -0.2231     0.4390 H       
  27 H27            0.6682    -4.0747     2.9211 H       
  28 H28           -2.9367    -5.4209     2.9155 H       
  29 H29           -1.3400    -6.1290     2.5731 H       
  30 H30           -1.6422    -5.3280     4.1337 H       
  31 H31            2.1177     5.3544    -0.3784 H       
  32 H32            2.4718     0.4541     0.0876 H       
  33 H33            3.8324     6.0580    -1.3482 H       
  34 H34            3.8433     6.2235     0.4241 H       
  35 H35            5.3678     6.3272    -0.4888 H       
  36 H36            0.3078     5.9800     0.4682 H       
  37 H37            0.2976     5.8146    -1.3040 H       
  38 H38           -1.2385     5.8695    -0.4064 H       
@<TRIPOS>BOND
   1    1    2 am
   2    1   11 1
   3    1   25 1
   4    2    3 2
   5    2    4 am
   6    4    6 1
   7    4   26 1
   8    5    6 1
   9    5    9 1
  10    6    7 2
  11    7    8 1
  12    8    9 2
  13    8   27 1
  14    9   10 1
  15   10   28 1
  16   10   29 1
  17   10   30 1
  18   11   12 ar
  19   11   16 ar
  20   12   13 ar
  21   12   23 1
  22   13   14 ar
  23   13   31 1
  24   14   15 ar
  25   14   21 1
  26   15   16 ar
  27   15   17 1
  28   16   32 1
  29   17   18 1
  30   17   19 1
  31   17   20 1
  32   21   22 1
  33   22   33 1
  34   22   34 1
  35   22   35 1
  36   23   24 1
  37   24   36 1
  38   24   37 1
  39   24   38 1

#	End of record

