#	Name: ASD08150504
#	Creating user name:	WinNT
#	Creation time:	15. 06. 2019 21:16

#	Modifying user name:	WinNT
#	Modification time:	15. 06. 2019 21:16

#	Program:	/corina/corina34_cracker 3.40 0067  02.08.2006

@<TRIPOS>MOLECULE
ASD08150504
  46   50    0    0    0
SMALL
NO_CHARGES


@<TRIPOS>ATOM
   1 N1             0.4807     2.1328     1.7693 N.am    
   2 C2             0.7525     1.1916     2.6941 C.2     
   3 C3             1.9658     0.4747     2.6621 C.2     
   4 C4             2.8819     0.7253     1.6924 C.2     
   5 C5             2.5992     1.7144     0.7175 C.ar    
   6 C6             3.5155     2.0133    -0.3092 C.ar    
   7 N7             3.2526     2.9267    -1.2066 N.ar    
   8 C8             2.1072     3.6261    -1.2041 C.ar    
   9 C9             1.1278     3.3913    -0.2085 C.ar    
  10 C10            1.3820     2.4102     0.7778 C.ar    
  11 C11           -0.2691     5.0762    -1.1961 C.ar    
  12 C12            0.6998     5.3043    -2.1759 C.ar    
  13 C13            1.8643     4.5991    -2.1863 C.ar    
  14 O14           -0.0618     0.9571     3.5708 O.2     
  15 C15           -0.7343     2.8274     1.8196 C.ar    
  16 C16           -1.8545     2.3162     1.1780 C.ar    
  17 C17           -3.0518     3.0029     1.2289 C.ar    
  18 C18           -3.1354     4.2005     1.9190 C.ar    
  19 C19           -2.0190     4.7124     2.5593 C.ar    
  20 C20           -0.8217     4.0260     2.5161 C.ar    
  21 C21           -4.2679     2.4487     0.5323 C.3     
  22 F22           -4.3075     4.8707     1.9675 F       
  23 C23           -0.0624     4.1274    -0.2161 C.ar    
  24 N24           -1.4599     5.8167    -1.2085 N.pl3   
  25 C25           -1.5956     7.1361    -1.5555 C.2     
  26 C26           -2.9010     7.4408    -1.4273 C.2     
  27 N27           -3.5490     6.3417    -1.0137 N.2     
  28 C28           -2.6977     5.3607    -0.8847 C.2     
  29 C29           -3.5258     8.7846    -1.7011 C.3     
  30 H30            2.1673    -0.2761     3.4119 H       
  31 H31            3.8132     0.1790     1.6644 H       
  32 H32            4.4526     1.4784    -0.3558 H       
  33 H33            0.5225     6.0504    -2.9364 H       
  34 H34            2.6026     4.7888    -2.9514 H       
  35 H35           -1.7896     1.3824     0.6394 H       
  36 H36           -2.0862     5.6468     3.0967 H       
  37 H37            0.0486     4.4254     3.0155 H       
  38 H38           -4.8176     1.8046     1.2186 H       
  39 H39           -4.9091     3.2700     0.2124 H       
  40 H40           -3.9564     1.8708    -0.3378 H       
  41 H41           -0.8141     3.9536     0.5397 H       
  42 H42           -0.8069     7.8031    -1.8709 H       
  43 H43           -2.9364     4.3566    -0.5666 H       
  44 H44           -3.8364     8.8350    -2.7447 H       
  45 H45           -4.3945     8.9195    -1.0566 H       
  46 H46           -2.7986     9.5712    -1.5000 H       
@<TRIPOS>BOND
   1    1    2 am
   2    1   10 1
   3    1   15 1
   4    2    3 1
   5    2   14 2
   6    3    4 2
   7    3   30 1
   8    4    5 1
   9    4   31 1
  10    5    6 ar
  11    5   10 ar
  12    6    7 ar
  13    6   32 1
  14    7    8 ar
  15    8    9 ar
  16    8   13 ar
  17    9   10 ar
  18    9   23 ar
  19   11   12 ar
  20   11   24 1
  21   11   23 ar
  22   12   13 ar
  23   12   33 1
  24   13   34 1
  25   15   16 ar
  26   15   20 ar
  27   16   17 ar
  28   16   35 1
  29   17   18 ar
  30   17   21 1
  31   18   19 ar
  32   18   22 1
  33   19   20 ar
  34   19   36 1
  35   20   37 1
  36   21   38 1
  37   21   39 1
  38   21   40 1
  39   23   41 1
  40   24   25 1
  41   24   28 1
  42   25   26 2
  43   25   42 1
  44   26   27 1
  45   26   29 1
  46   27   28 2
  47   28   43 1
  48   29   44 1
  49   29   45 1
  50   29   46 1

#	End of record

