#	Name: ASD05130097
#	Creating user name:	WinNT
#	Creation time:	15. 06. 2019 20:56

#	Modifying user name:	WinNT
#	Modification time:	15. 06. 2019 20:56

#	Program:	/corina/corina34_cracker 3.40 0067  02.08.2006

@<TRIPOS>MOLECULE
ASD05130097
  56   59    0    0    0
SMALL
NO_CHARGES


@<TRIPOS>ATOM
   1 C1            -0.6109     0.3202     1.0920 C.2     
   2 N2             0.0207     0.0751    -0.0731 N.am    
   3 O3            -0.1218    -0.0634     2.1452 O.co2   
   4 O4            -1.6706     0.9308     1.0964 O.co2   
   5 N5             4.8136     0.4247    -0.1731 N.am    
   6 C6             6.0212    -0.1732    -0.1694 C.2     
   7 C7             6.1215    -1.6336    -0.1114 C.2     
   8 C8             4.9808    -2.3869    -0.0606 C.2     
   9 C9             3.7243    -1.7349    -0.0652 C.ar    
  10 C10            2.5311    -2.4661    -0.0133 C.ar    
  11 N11            1.3722    -1.8445    -0.0180 N.ar    
  12 C12            1.2790    -0.5208    -0.0709 C.ar    
  13 C13            2.4098     0.2795    -0.1244 C.ar    
  14 C14            3.6619    -0.3259    -0.1222 C.ar    
  15 O15            7.0333     0.5032    -0.2149 O.2     
  16 C16            4.7266     1.8862    -0.2257 C.3     
  17 C17            4.6744     2.3417    -1.6854 C.3     
  18 C18            7.4497    -2.2904    -0.1083 C.ar    
  19 C19            8.2362    -2.2729     1.0446 C.ar    
  20 C20            9.4738    -2.8861     1.0456 C.ar    
  21 C21            9.9374    -3.5189    -0.0947 C.ar    
  22 C22            9.1591    -3.5405    -1.2478 C.ar    
  23 C23            7.9143    -2.9322    -1.2549 C.ar    
  24 N24            9.6322    -4.1818    -2.4004 N.am    
  25 C25            8.7723    -4.8260    -3.2141 C.2     
  26 O26            7.5774    -4.7813    -2.9938 O.2     
  27 N27            9.2370    -5.5198    -4.2721 N.am    
  28 C28            8.3407    -6.1087    -5.1709 C.ar    
  29 C29            8.6505    -6.1696    -6.5232 C.ar    
  30 C30            7.7639    -6.7520    -7.4077 C.ar    
  31 C31            6.5689    -7.2741    -6.9480 C.ar    
  32 C32            6.2572    -7.2147    -5.6020 C.ar    
  33 C33            7.1421    -6.6388    -4.7116 C.ar    
  34 F34           11.1489    -4.1167    -0.0882 F       
  35 Cl35           7.6592    -1.4799     2.4771 Cl      
  36 C36           -0.6169     0.4356    -1.3419 C.3     
  37 H37            5.0380    -3.4645    -0.0178 H       
  38 H38            2.5627    -3.5448     0.0302 H       
  39 H39            2.3199     1.3549    -0.1675 H       
  40 H40            3.8246     2.2153     0.2901 H       
  41 H41            5.6012     2.3199     0.2592 H       
  42 H42            5.5765     2.0126    -2.2012 H       
  43 H43            3.7999     1.9080    -2.1703 H       
  44 H44            4.6097     3.4291    -1.7246 H       
  45 H45           10.0815    -2.8715     1.9383 H       
  46 H46            7.3072    -2.9520    -2.1479 H       
  47 H47           10.5785    -4.1621    -2.6126 H       
  48 H48           10.1928    -5.6108    -4.4104 H       
  49 H49            9.5835    -5.7616    -6.8829 H       
  50 H50            8.0041    -6.7993    -8.4596 H       
  51 H51            5.8773    -7.7290    -7.6416 H       
  52 H52            5.3229    -7.6231    -5.2461 H       
  53 H53            6.9003    -6.5970    -3.6599 H       
  54 H54           -0.3356     1.4531    -1.6137 H       
  55 H55           -0.2895    -0.2523    -2.1214 H       
  56 H56           -1.6998     0.3744    -1.2347 H       
@<TRIPOS>BOND
   1    1    2 am
   2    1    3 ar
   3    1    4 ar
   4    2   12 1
   5    2   36 1
   6    5    6 am
   7    5   14 1
   8    5   16 1
   9    6    7 1
  10    6   15 2
  11    7    8 2
  12    7   18 1
  13    8    9 1
  14    8   37 1
  15    9   10 ar
  16    9   14 ar
  17   10   11 ar
  18   10   38 1
  19   11   12 ar
  20   12   13 ar
  21   13   14 ar
  22   13   39 1
  23   16   17 1
  24   16   40 1
  25   16   41 1
  26   17   42 1
  27   17   43 1
  28   17   44 1
  29   18   19 ar
  30   18   23 ar
  31   19   20 ar
  32   19   35 1
  33   20   21 ar
  34   20   45 1
  35   21   22 ar
  36   21   34 1
  37   22   23 ar
  38   22   24 1
  39   23   46 1
  40   24   25 am
  41   24   47 1
  42   25   26 2
  43   25   27 am
  44   27   28 1
  45   27   48 1
  46   28   29 ar
  47   28   33 ar
  48   29   30 ar
  49   29   49 1
  50   30   31 ar
  51   30   50 1
  52   31   32 ar
  53   31   51 1
  54   32   33 ar
  55   32   52 1
  56   33   53 1
  57   36   54 1
  58   36   55 1
  59   36   56 1

#	End of record

