#	Name: ASD08150531
#	Creating user name:	WinNT
#	Creation time:	15. 06. 2019 21:16

#	Modifying user name:	WinNT
#	Modification time:	15. 06. 2019 21:16

#	Program:	/corina/corina34_cracker 3.40 0067  02.08.2006

@<TRIPOS>MOLECULE
ASD08150531
  38   40    0    0    0
SMALL
NO_CHARGES


@<TRIPOS>ATOM
   1 N1            -0.0155     1.2939     0.0092 N.2     
   2 C2             0.0021    -0.0041     0.0020 C.2     
   3 N3             1.1497    -0.7358    -0.0129 N.am    
   4 C4             2.3566    -0.1239    -0.0206 C.2     
   5 C5             2.3716     1.3443    -0.0129 C.ar    
   6 C6             3.5650     2.0675    -0.0195 C.ar    
   7 C7             3.5250     3.4462    -0.0113 C.ar    
   8 C8             2.2984     4.1189     0.0039 C.ar    
   9 C9             1.1096     3.4157     0.0106 C.ar    
  10 C10            1.1307     2.0209     0.0021 C.ar    
  11 O11            3.3909    -0.7664    -0.0331 O.2     
  12 O12            2.2764     5.4769     0.0127 O.3     
  13 C13            0.9929     6.1048     0.0282 C.3     
  14 O14            4.6851     4.1560    -0.0177 O.3     
  15 C15            5.9029     3.4085    -0.0328 C.3     
  16 C16            1.0808    -2.1350    -0.0197 C.ar    
  17 C17            1.0580    -2.8372     1.1796 C.ar    
  18 C18            0.9894    -4.2174     1.1688 C.ar    
  19 C19            0.9441    -4.8992    -0.0336 C.ar    
  20 C20            0.9671    -4.2032    -1.2279 C.ar    
  21 C21            1.0293    -2.8230    -1.2242 C.ar    
  22 Cl22           1.1160    -1.9815     2.6889 Cl      
  23 C23           -1.3143    -0.7377     0.0112 C.3     
  24 Cl24          -2.6666     0.4546     0.0310 Cl      
  25 H25            4.5135     1.5512    -0.0306 H       
  26 H26            0.1674     3.9436     0.0224 H       
  27 H27            1.1181     7.1876     0.0339 H       
  28 H28            0.4327     5.8086    -0.8587 H       
  29 H29            0.4487     5.7973     0.9212 H       
  30 H30            6.7501     4.0943    -0.0365 H       
  31 H31            5.9517     2.7755     0.8532 H       
  32 H32            5.9358     2.7856    -0.9267 H       
  33 H33            0.9717    -4.7640     2.1000 H       
  34 H34            0.8909    -5.9779    -0.0396 H       
  35 H35            0.9322    -4.7389    -2.1650 H       
  36 H36            1.0424    -2.2801    -2.1577 H       
  37 H37           -1.3904    -1.3586    -0.8815 H       
  38 H38           -1.3727    -1.3681     0.8984 H       
@<TRIPOS>BOND
   1    1    2 2
   2    1   10 1
   3    2    3 1
   4    2   23 1
   5    3    4 am
   6    3   16 1
   7    4    5 1
   8    4   11 2
   9    5    6 ar
  10    5   10 ar
  11    6    7 ar
  12    6   25 1
  13    7    8 ar
  14    7   14 1
  15    8    9 ar
  16    8   12 1
  17    9   10 ar
  18    9   26 1
  19   12   13 1
  20   13   27 1
  21   13   28 1
  22   13   29 1
  23   14   15 1
  24   15   30 1
  25   15   31 1
  26   15   32 1
  27   16   17 ar
  28   16   21 ar
  29   17   18 ar
  30   17   22 1
  31   18   19 ar
  32   18   33 1
  33   19   20 ar
  34   19   34 1
  35   20   21 ar
  36   20   35 1
  37   21   36 1
  38   23   24 1
  39   23   37 1
  40   23   38 1

#	End of record

