#	Name: ASD03930197
#	Creating user name:	WinNT
#	Creation time:	15. 06. 2019 20:47

#	Modifying user name:	WinNT
#	Modification time:	15. 06. 2019 20:47

#	Program:	/corina/corina34_cracker 3.40 0067  02.08.2006

@<TRIPOS>MOLECULE
ASD03930197
  41   44    0    0    0
SMALL
NO_CHARGES


@<TRIPOS>ATOM
   1 S1            -0.0762     4.0294    -0.9983 S.o2    
   2 N2            -0.7567     2.5459    -1.3360 N.am    
   3 C3            -0.4951     1.9165    -2.6266 C.3     
   4 C4             0.9729     1.5777    -2.8369 C.3     
   5 O5             1.7785     2.7618    -2.8749 O.3     
   6 C6             2.3635     3.1147    -1.7023 C.ar    
   7 C7             1.6338     3.6816    -0.6665 C.ar    
   8 C8             3.7229     2.8904    -1.5133 C.ar    
   9 C9             4.3092     3.1899    -0.2997 C.ar    
  10 C10            3.5560     3.7152     0.7399 C.ar    
  11 C11            2.2007     3.9671     0.5475 C.ar    
  12 O12            4.1378     3.9820     1.9394 O.3     
  13 C13            3.3392     4.3931     2.9580 C.ar    
  14 C14            2.7471     3.4569     3.7959 C.ar    
  15 C15            1.9357     3.8714     4.8304 C.ar    
  16 C16            1.7100     5.2317     5.0354 C.ar    
  17 C17            2.3059     6.1693     4.1932 C.ar    
  18 C18            3.1206     5.7493     3.1634 C.ar    
  19 O19           -0.4139     5.5907     7.7904 O.3     
  20 N20            0.2186     4.9136     7.0077 N.2     
  21 C21            0.8369     5.6808     6.1474 C.2     
  22 N22            0.5315     6.9601     6.4620 N.2     
  23 C23           -0.2601     6.8870     7.5029 C.2     
  24 C24           -0.8810     8.0466     8.2383 C.3     
  25 O25           -0.1151     4.7820    -2.2031 O.2     
  26 O26           -0.6486     4.4743     0.2239 O.2     
  27 H27           -1.3206     2.1052    -0.6813 H       
  28 H28           -1.0800     0.9992    -2.6944 H       
  29 H29           -0.8158     2.5934    -3.4184 H       
  30 H30            1.3128     0.9405    -2.0205 H       
  31 H31            1.0839     1.0399    -3.7784 H       
  32 H32            4.3196     2.4818    -2.3154 H       
  33 H33            5.3652     3.0130    -0.1583 H       
  34 H34            1.6032     4.3821     1.3457 H       
  35 H35            2.9223     2.4032     3.6366 H       
  36 H36            1.4749     3.1430     5.4812 H       
  37 H37            2.1327     7.2237     4.3497 H       
  38 H38            3.5858     6.4753     2.5131 H       
  39 H39           -1.4898     7.6712     9.0608 H       
  40 H40           -0.0943     8.6898     8.6327 H       
  41 H41           -1.5079     8.6175     7.5534 H       
@<TRIPOS>BOND
   1    1    2 am
   2    1    7 1
   3    1   25 2
   4    1   26 2
   5    2    3 1
   6    2   27 1
   7    3    4 1
   8    3   28 1
   9    3   29 1
  10    4    5 1
  11    4   30 1
  12    4   31 1
  13    5    6 1
  14    6    7 ar
  15    6    8 ar
  16    7   11 ar
  17    8    9 ar
  18    8   32 1
  19    9   10 ar
  20    9   33 1
  21   10   11 ar
  22   10   12 1
  23   11   34 1
  24   12   13 1
  25   13   14 ar
  26   13   18 ar
  27   14   15 ar
  28   14   35 1
  29   15   16 ar
  30   15   36 1
  31   16   17 ar
  32   16   21 1
  33   17   18 ar
  34   17   37 1
  35   18   38 1
  36   19   20 1
  37   19   23 1
  38   20   21 2
  39   21   22 1
  40   22   23 2
  41   23   24 1
  42   24   39 1
  43   24   40 1
  44   24   41 1

#	End of record

