#	Name: ASD01940334
#	Creating user name:	WinNT
#	Creation time:	15. 06. 2019 20:12

#	Modifying user name:	WinNT
#	Modification time:	15. 06. 2019 20:12

#	Program:	/corina/corina34_cracker 3.40 0067  02.08.2006

@<TRIPOS>MOLECULE
ASD01940334
  54   56    0    0    0
SMALL
NO_CHARGES


@<TRIPOS>ATOM
   1 C1             3.0933    -4.0783   -12.1715 C.3     
   2 C2             2.5176    -4.4213   -13.5470 C.3     
   3 C3             2.5778    -5.4908   -12.4546 C.3     
   4 S4             4.8887    -3.8510   -12.0479 S.o2    
   5 O5             5.5356    -5.0980   -11.8338 O.2     
   6 O6             5.3471    -2.9498   -13.0464 O.2     
   7 N7             5.1044    -3.0297   -10.6263 N.am    
   8 C8             5.9479    -3.5540    -9.6333 C.ar    
   9 C9             5.8923    -4.9084    -9.3141 C.ar    
  10 C10            6.7290    -5.4227    -8.3315 C.ar    
  11 C11            7.6167    -4.5890    -7.6710 C.ar    
  12 C12            7.6726    -3.2422    -7.9871 C.ar    
  13 C13            6.8445    -2.7233    -8.9707 C.ar    
  14 O14            6.9057    -1.4006    -9.2837 O.3     
  15 C15            7.7606    -0.5831    -8.4820 C.3     
  16 C16            7.6082     0.8801    -8.9025 C.3     
  17 O17            6.2779     1.3202    -8.6222 O.3     
  18 C18            6.0286     2.6812    -8.9793 C.3     
  19 N19            4.9935    -5.7511    -9.9826 N.pl3   
  20 C20            5.2164    -7.1314   -10.0086 C.ar    
  21 C21            4.1447    -8.0130    -9.9065 C.ar    
  22 C22            4.3695    -9.3766    -9.9326 C.ar    
  23 C23            5.6584    -9.8641   -10.0601 C.ar    
  24 C24            6.7249    -8.9896   -10.1618 C.ar    
  25 C25            6.5070    -7.6253   -10.1422 C.ar    
  26 I26            5.9947   -11.9315   -10.0985 I       
  27 F27            2.8866    -7.5369    -9.7815 F       
  28 F28            8.4294    -5.0914    -6.7158 F       
  29 F29            6.6766    -6.7362    -8.0197 F       
  30 C30            2.2506    -3.1893   -11.2547 C.3     
  31 C31            2.8777    -3.1428    -9.8852 C.2     
  32 C32            3.1311    -1.9886    -9.3197 C.2     
  33 H33            1.5386    -4.0135   -13.7987 H       
  34 H34            3.2177    -4.5103   -14.3776 H       
  35 H35            3.3175    -6.2835   -12.5665 H       
  36 H36            1.6384    -5.7867   -11.9876 H       
  37 H37            4.6481    -2.1864   -10.4793 H       
  38 H38            8.3658    -2.5955    -7.4696 H       
  39 H39            7.4861    -0.6900    -7.4326 H       
  40 H40            8.7959    -0.8949    -8.6204 H       
  41 H41            8.3183     1.4934    -8.3478 H       
  42 H42            7.8043     0.9735    -9.9707 H       
  43 H43            4.9978     2.9379    -8.7351 H       
  44 H44            6.7059     3.3319    -8.4262 H       
  45 H45            6.1919     2.8119   -10.0491 H       
  46 H46            4.2168    -5.3768   -10.4272 H       
  47 H47            3.5387   -10.0621    -9.8530 H       
  48 H48            7.7294    -9.3737   -10.2608 H       
  49 H49            7.3404    -6.9436   -10.2265 H       
  50 H50            2.2047    -2.1816   -11.6677 H       
  51 H51            1.2427    -3.5973   -11.1791 H       
  52 H52            3.1182    -4.0610    -9.3699 H       
  53 H53            2.8905    -1.0704    -9.8349 H       
  54 H54            3.5805    -1.9553    -8.3382 H       
@<TRIPOS>BOND
   1    1    2 1
   2    1    3 1
   3    1    4 1
   4    1   30 1
   5    2    3 1
   6    2   33 1
   7    2   34 1
   8    3   35 1
   9    3   36 1
  10    4    5 2
  11    4    6 2
  12    4    7 am
  13    7    8 1
  14    7   37 1
  15    8    9 ar
  16    8   13 ar
  17    9   10 ar
  18    9   19 1
  19   10   11 ar
  20   10   29 1
  21   11   12 ar
  22   11   28 1
  23   12   13 ar
  24   12   38 1
  25   13   14 1
  26   14   15 1
  27   15   16 1
  28   15   39 1
  29   15   40 1
  30   16   17 1
  31   16   41 1
  32   16   42 1
  33   17   18 1
  34   18   43 1
  35   18   44 1
  36   18   45 1
  37   19   20 1
  38   19   46 1
  39   20   21 ar
  40   20   25 ar
  41   21   22 ar
  42   21   27 1
  43   22   23 ar
  44   22   47 1
  45   23   24 ar
  46   23   26 1
  47   24   25 ar
  48   24   48 1
  49   25   49 1
  50   30   31 1
  51   30   50 1
  52   30   51 1
  53   31   32 2
  54   31   52 1
  55   32   53 1
  56   32   54 1

#	End of record

