#	Name: ASD08170120
#	Creating user name:	WinNT
#	Creation time:	15. 06. 2019 21:17

#	Modifying user name:	WinNT
#	Modification time:	15. 06. 2019 21:17

#	Program:	/corina/corina34_cracker 3.40 0067  02.08.2006

@<TRIPOS>MOLECULE
ASD08170120
  80   85    0    0    0
SMALL
NO_CHARGES


@<TRIPOS>ATOM
   1 C1             0.4572     1.3605    -0.1028 C.3     
   2 C2             0.5770    -0.1635    -0.1659 C.3     
   3 C3             1.8466     1.9872    -0.2354 C.3     
   4 C4             1.7268     3.5112    -0.1723 C.3     
   5 C5             3.0953     4.1286    -0.3029 C.2     
   6 C6            -0.7915    -0.7808    -0.0353 C.2     
   7 S7             4.1961     4.5084     1.0220 S.3     
   8 C8             5.3299     5.1032    -0.1161 C.2     
   9 N9             4.8284     4.9779    -1.3078 N.2     
  10 N10            3.6769     4.4703    -1.4087 N.2     
  11 S11           -1.5804    -1.2533     1.4701 S.3     
  12 N12           -1.6021    -1.0546    -1.0077 N.2     
  13 N13           -2.7094    -1.5720    -0.6914 N.2     
  14 C14           -2.9389    -1.7814     0.5698 C.2     
  15 N15           -4.0964    -2.3398     1.1013 N.am    
  16 C16           -5.1005    -2.7145     0.2842 C.2     
  17 O17           -5.0327    -2.4846    -0.9047 O.2     
  18 N18            6.5799     5.6328     0.1857 N.am    
  19 C19            7.3838     6.0693    -0.8041 C.2     
  20 C20            8.6918     6.7399    -0.4721 C.3     
  21 O21            7.0544     5.9223    -1.9621 O.2     
  22 C22           -6.3075    -3.4192     0.8478 C.3     
  23 C23            8.4264     8.0159     0.2844 C.ar    
  24 C24           -5.9146    -4.7975     1.3138 C.ar    
  25 C25            7.5996     8.9819    -0.2581 C.ar    
  26 C26           -5.4880    -5.7412     0.3982 C.ar    
  27 C27            7.3561    10.1524     0.4358 C.ar    
  28 C28            7.9391    10.3568     1.6725 C.ar    
  29 C29            8.7651     9.3905     2.2154 C.ar    
  30 C30            9.0051     8.2181     1.5234 C.ar    
  31 C31           -5.1276    -7.0054     0.8257 C.ar    
  32 C32           -5.1935    -7.3258     2.1688 C.ar    
  33 C33           -5.6193    -6.3818     3.0845 C.ar    
  34 C34           -5.9755    -5.1162     2.6575 C.ar    
  35 C35            9.5446     5.8022     0.3881 C.3     
  36 C36            9.8731     4.5419    -0.4166 C.3     
  37 O37           10.5480     4.9100    -1.6212 O.3     
  38 C38            9.7803     5.7482    -2.4873 C.3     
  39 C39            9.4471     7.0590    -1.7660 C.3     
  40 C40           -6.8635    -2.6180     2.0290 C.3     
  41 C41           -7.3304    -1.2476     1.5314 C.3     
  42 O42           -8.3109    -1.4231     0.5067 O.3     
  43 C43           -7.8339    -2.1245    -0.6433 C.3     
  44 C44           -7.3863    -3.5322    -0.2337 C.3     
  45 H45           -0.1779     1.7090    -0.9172 H       
  46 H46            0.0170     1.6512     0.8511 H       
  47 H47            1.0172    -0.4542    -1.1197 H       
  48 H48            1.2120    -0.5120     0.6486 H       
  49 H49            2.4816     1.6387     0.5791 H       
  50 H50            2.2868     1.6966    -1.1893 H       
  51 H51            1.0917     3.8598    -0.9868 H       
  52 H52            1.2866     3.8019     0.7815 H       
  53 H53           -4.1810    -2.4595     2.0602 H       
  54 H54            6.8732     5.6880     1.1087 H       
  55 H55            7.1442     8.8222    -1.2243 H       
  56 H56           -5.4365    -5.4909    -0.6511 H       
  57 H57            6.7108    10.9073     0.0116 H       
  58 H58            7.7494    11.2716     2.2143 H       
  59 H59            9.2208     9.5503     3.1814 H       
  60 H60            9.6505     7.4631     1.9476 H       
  61 H61           -4.7950    -7.7430     0.1103 H       
  62 H62           -4.9127    -8.3138     2.5027 H       
  63 H63           -5.6710    -6.6322     4.1338 H       
  64 H64           -6.3081    -4.3787     3.3729 H       
  65 H65           10.4693     6.3061     0.6694 H       
  66 H66            8.9909     5.5272     1.2858 H       
  67 H67           10.5155     3.8899     0.1753 H       
  68 H68            8.9501     4.0170    -0.6628 H       
  69 H69           10.3559     5.9652    -3.3872 H       
  70 H70            8.8561     5.2391    -2.7607 H       
  71 H71            8.8244     7.6807    -2.4093 H       
  72 H72           10.3696     7.5886    -1.5282 H       
  73 H73           -7.7060    -3.1528     2.4675 H       
  74 H74           -6.0838    -2.4868     2.7794 H       
  75 H75           -7.7663    -0.6893     2.3598 H       
  76 H76           -6.4795    -0.6974     1.1298 H       
  77 H77           -8.6325    -2.1979    -1.3815 H       
  78 H78           -6.9895    -1.5858    -1.0733 H       
  79 H79           -6.9814    -4.0526    -1.1016 H       
  80 H80           -8.2393    -4.0858     0.1589 H       
@<TRIPOS>BOND
   1    1    2 1
   2    1    3 1
   3    1   45 1
   4    1   46 1
   5    2    6 1
   6    2   47 1
   7    2   48 1
   8    3    4 1
   9    3   49 1
  10    3   50 1
  11    4    5 1
  12    4   51 1
  13    4   52 1
  14    5    7 1
  15    5   10 2
  16    6   11 1
  17    6   12 2
  18    7    8 1
  19    8    9 2
  20    8   18 1
  21    9   10 1
  22   11   14 1
  23   12   13 1
  24   13   14 2
  25   14   15 1
  26   15   16 am
  27   15   53 1
  28   16   17 2
  29   16   22 1
  30   18   19 am
  31   18   54 1
  32   19   20 1
  33   19   21 2
  34   20   23 1
  35   20   35 1
  36   20   39 1
  37   22   24 1
  38   22   40 1
  39   22   44 1
  40   23   25 ar
  41   23   30 ar
  42   24   26 ar
  43   24   34 ar
  44   25   27 ar
  45   25   55 1
  46   26   31 ar
  47   26   56 1
  48   27   28 ar
  49   27   57 1
  50   28   29 ar
  51   28   58 1
  52   29   30 ar
  53   29   59 1
  54   30   60 1
  55   31   32 ar
  56   31   61 1
  57   32   33 ar
  58   32   62 1
  59   33   34 ar
  60   33   63 1
  61   34   64 1
  62   35   36 1
  63   35   65 1
  64   35   66 1
  65   36   37 1
  66   36   67 1
  67   36   68 1
  68   37   38 1
  69   38   39 1
  70   38   69 1
  71   38   70 1
  72   39   71 1
  73   39   72 1
  74   40   41 1
  75   40   73 1
  76   40   74 1
  77   41   42 1
  78   41   75 1
  79   41   76 1
  80   42   43 1
  81   43   44 1
  82   43   77 1
  83   43   78 1
  84   44   79 1
  85   44   80 1

#	End of record

