#	Name: ASD00840406
#	Creating user name:	WinNT
#	Creation time:	15. 06. 2019 18:38

#	Modifying user name:	WinNT
#	Modification time:	15. 06. 2019 18:38

#	Program:	/corina/corina34_cracker 3.40 0067  02.08.2006

@<TRIPOS>MOLECULE
ASD00840406
  95  100    0    0    0
SMALL
NO_CHARGES


@<TRIPOS>ATOM
   1 F1            -0.1038    -3.1535     4.7170 F       
   2 N2            -0.0145     1.3150     0.0257 N.ar    
   3 C3             0.0026    -0.0073     0.0112 C.ar    
   4 C4             1.2069    -0.6995    -0.0065 C.ar    
   5 C5             2.3930     0.0133    -0.0088 C.ar    
   6 C6             2.3322     1.4001     0.0067 C.ar    
   7 C7             1.0998     2.0219     0.0239 C.ar    
   8 C8             1.2215    -2.2063    -0.0224 C.3     
   9 C9             0.4764    -2.7309    -1.2310 C.2     
  10 N10            2.5990    -2.7050    -0.0126 N.am    
  11 C11            3.4464    -2.3633    -1.0034 C.2     
  12 N12            4.7400    -2.7368    -0.9424 N.am    
  13 O13            3.0440    -1.7182    -1.9521 O.2     
  14 C14            5.2678    -3.4156     0.2489 C.3     
  15 C15            6.4986    -2.6515     0.7470 C.3     
  16 C16            7.5064    -2.5146    -0.3967 C.3     
  17 C17            6.8755    -1.7199    -1.5424 C.3     
  18 C18            5.6476    -2.4785    -2.0686 C.3     
  19 C19            8.7519    -1.7821     0.1064 C.3     
  20 C20            9.3853    -2.5768     1.2517 C.3     
  21 C21           10.6636    -1.8712     1.7099 C.3     
  22 N22           11.5999    -1.7715     0.5830 N.3     
  23 C23           11.0318    -0.9725    -0.5103 C.3     
  24 C24            9.7644    -1.6513    -1.0347 C.3     
  25 C25           12.8917    -1.2243     1.0187 C.3     
  26 O26            0.7579    -2.5298    -2.3936 O.2     
  27 N27           -0.5549    -3.4613    -0.7751 N.am    
  28 C28            0.4479    -2.7558     1.1547 C.ar    
  29 C29           -0.6013    -3.4969     0.6207 C.ar    
  30 C30            0.6154    -2.6397     2.5170 C.ar    
  31 C31           -0.2667    -3.2654     3.3806 C.ar    
  32 C32           -1.3275    -4.0147     2.8616 C.ar    
  33 C33           -1.4912    -4.1286     1.4814 C.ar    
  34 C34           -1.0172    -5.8480    -2.0653 C.ar    
  35 C35            0.1622    -6.0083    -2.7785 C.ar    
  36 C36           -1.6964    -6.9550    -1.5931 C.ar    
  37 C37           -1.2031    -8.2236    -1.8295 C.ar    
  38 C38           -0.0239    -8.3893    -2.5424 C.ar    
  39 C39            0.6590    -7.2805    -3.0174 C.ar    
  40 O40            0.4606    -9.6375    -2.7749 O.3     
  41 O41            0.8294    -4.9193    -3.2430 O.3     
  42 C42           -0.2952   -10.7338    -2.2565 C.3     
  43 C43            2.0366    -5.1591    -3.9691 C.3     
  44 C44            2.6414    -3.8240    -4.4081 C.3     
  45 S45           -1.6454    -4.2313    -1.7551 S.o2    
  46 O46           -2.8272    -4.4011    -0.9845 O.2     
  47 O47           -1.6208    -3.5456    -2.9994 O.2     
  48 O48           -1.1673    -0.6944     0.0142 O.3     
  49 C49           -3.5778    -0.8663     0.0337 C.3     
  50 C50           -2.3715     0.0748     0.0332 C.3     
  51 C51           -2.2452    -4.6656     3.7475 C.1     
  52 N52           -2.9731    -5.1820     4.4504 N.1     
  53 H53            3.3444    -0.4977    -0.0221 H       
  54 H54            3.2393     1.9863     0.0057 H       
  55 H55            1.0470     3.1006     0.0357 H       
  56 H56            2.9011    -3.2810     0.7069 H       
  57 H57            4.5064    -3.4299     1.0288 H       
  58 H58            5.5506    -4.4366    -0.0074 H       
  59 H59            6.1984    -1.6606     1.0879 H       
  60 H60            6.9565    -3.1973     1.5719 H       
  61 H61            7.7874    -3.5054    -0.7536 H       
  62 H62            6.5717    -0.7378    -1.1799 H       
  63 H63            7.6015    -1.6027    -2.3468 H       
  64 H64            5.9639    -3.4218    -2.5137 H       
  65 H65            5.1365    -1.8723    -2.8166 H       
  66 H66            8.4724    -0.7904     0.4621 H       
  67 H67            8.6843    -2.6368     2.0843 H       
  68 H68            9.6280    -3.5818     0.9066 H       
  69 H69           10.4183    -0.8713     2.0677 H       
  70 H70           11.1248    -2.4422     2.5157 H       
  71 H71           10.7847     0.0232    -0.1420 H       
  72 H72           11.7603    -0.8907    -1.3169 H       
  73 H73           10.0132    -2.6417    -1.4158 H       
  74 H74            9.3344    -1.0499    -1.8357 H       
  75 H75           13.3254    -1.8765     1.7768 H       
  76 H76           13.5662    -1.1612     0.1648 H       
  77 H77           12.7421    -0.2293     1.4379 H       
  78 H78            1.4365    -2.0597     2.9118 H       
  79 H79           -2.3105    -4.7073     1.0810 H       
  80 H80           -2.6142    -6.8282    -1.0382 H       
  81 H81           -1.7354    -9.0872    -1.4588 H       
  82 H82            1.5766    -7.4074    -3.5727 H       
  83 H83           -0.3675   -10.6449    -1.1725 H       
  84 H84           -1.2955   -10.7225    -2.6894 H       
  85 H85            0.2008   -11.6702    -2.5120 H       
  86 H86            2.7455    -5.6869    -3.3313 H       
  87 H87            1.8175    -5.7652    -4.8482 H       
  88 H88            2.8605    -3.2179    -3.5290 H       
  89 H89            3.5622    -4.0069    -4.9620 H       
  90 H90            1.9325    -3.2961    -5.0459 H       
  91 H91           -3.5562    -1.4852    -0.8633 H       
  92 H92           -3.5404    -1.5045     0.9165 H       
  93 H93           -4.4963    -0.2795     0.0482 H       
  94 H94           -2.3931     0.6937     0.9302 H       
  95 H95           -2.4089     0.7130    -0.8496 H       
@<TRIPOS>BOND
   1    1   31 1
   2    2    3 ar
   3    2    7 ar
   4    3    4 ar
   5    3   48 1
   6    4    5 ar
   7    4    8 1
   8    5    6 ar
   9    5   53 1
  10    6    7 ar
  11    6   54 1
  12    7   55 1
  13    8    9 1
  14    8   10 1
  15    8   28 1
  16    9   26 2
  17    9   27 am
  18   10   11 am
  19   10   56 1
  20   11   12 am
  21   11   13 2
  22   12   14 1
  23   12   18 1
  24   14   15 1
  25   14   57 1
  26   14   58 1
  27   15   16 1
  28   15   59 1
  29   15   60 1
  30   16   17 1
  31   16   19 1
  32   16   61 1
  33   17   18 1
  34   17   62 1
  35   17   63 1
  36   18   64 1
  37   18   65 1
  38   19   20 1
  39   19   24 1
  40   19   66 1
  41   20   21 1
  42   20   67 1
  43   20   68 1
  44   21   22 1
  45   21   69 1
  46   21   70 1
  47   22   23 1
  48   22   25 1
  49   23   24 1
  50   23   71 1
  51   23   72 1
  52   24   73 1
  53   24   74 1
  54   25   75 1
  55   25   76 1
  56   25   77 1
  57   27   45 am
  58   27   29 1
  59   28   29 ar
  60   28   30 ar
  61   29   33 ar
  62   30   31 ar
  63   30   78 1
  64   31   32 ar
  65   32   33 ar
  66   32   51 1
  67   33   79 1
  68   34   35 ar
  69   34   36 ar
  70   34   45 1
  71   35   41 1
  72   35   39 ar
  73   36   37 ar
  74   36   80 1
  75   37   38 ar
  76   37   81 1
  77   38   39 ar
  78   38   40 1
  79   39   82 1
  80   40   42 1
  81   41   43 1
  82   42   83 1
  83   42   84 1
  84   42   85 1
  85   43   44 1
  86   43   86 1
  87   43   87 1
  88   44   88 1
  89   44   89 1
  90   44   90 1
  91   45   46 2
  92   45   47 2
  93   48   50 1
  94   49   50 1
  95   49   91 1
  96   49   92 1
  97   49   93 1
  98   50   94 1
  99   50   95 1
 100   51   52 3

#	End of record

