#	Name: ASD03540578
#	Creating user name:	WinNT
#	Creation time:	15. 06. 2019 20:43

#	Modifying user name:	WinNT
#	Modification time:	15. 06. 2019 20:43

#	Program:	/corina/corina34_cracker 3.40 0067  02.08.2006

@<TRIPOS>MOLECULE
ASD03540578
  54   59    0    0    0
SMALL
NO_CHARGES


@<TRIPOS>ATOM
   1 N1            -0.0164     1.3583     0.0095 N.pl3   
   2 C2             0.0021    -0.0041     0.0020 C.2     
   3 N3             1.1924    -0.7087    -0.0140 N.am    
   4 C4             2.3800    -0.0696    -0.0227 C.2     
   5 C5             2.3925     1.4049    -0.0149 C.ar    
   6 C6             3.5867     2.1166    -0.0230 C.ar    
   7 C7             3.5547     3.5096    -0.0149 C.ar    
   8 C8             2.3272     4.1827     0.0012 C.ar    
   9 C9             1.1453     3.4776     0.0097 C.ar    
  10 C10            1.1638     2.0883     0.0022 C.ar    
  11 N11           -1.2446    -0.4278     0.0121 N.2     
  12 C12           -2.0750     0.6257     0.0260 C.2     
  13 C13           -1.3358     1.7487     0.0298 C.2     
  14 C14            4.8168     4.2767    -0.0229 C.2     
  15 O15            5.8830     3.6928    -0.0365 O.2     
  16 N16            4.7865     5.6241    -0.0152 N.am    
  17 C17            6.0384     6.3850    -0.0231 C.3     
  18 O18            4.8914    11.8800     0.2794 O.3     
  19 C19            5.2842    12.0719     1.6513 C.3     
  20 O20            5.1420    10.7629     2.2342 O.3     
  21 C21            5.3170     9.8844     1.2043 C.ar    
  22 C22            5.1630    10.5714     0.0022 C.ar    
  23 C23            5.6001     8.5287     1.1916 C.ar    
  24 C24            5.7298     7.8601    -0.0119 C.ar    
  25 C25            5.5774     8.5417    -1.2045 C.ar    
  26 C26            5.2942     9.8952    -1.1994 C.ar    
  27 O27            3.4214    -0.6979    -0.0364 O.2     
  28 C28            1.1625    -2.1734    -0.0211 C.3     
  29 C29            1.1374    -2.6684    -1.4443 C.ar    
  30 C30            2.3227    -2.9198    -2.1097 C.ar    
  31 C31            2.2997    -3.3738    -3.4151 C.ar    
  32 C32            1.0914    -3.5768    -4.0551 C.ar    
  33 C33           -0.0940    -3.3263    -3.3894 C.ar    
  34 C34           -0.0710    -2.8764    -2.0825 C.ar    
  35 H35            4.5317     1.5939    -0.0350 H       
  36 H36            2.3076     5.2625     0.0073 H       
  37 H37            0.2027     4.0046     0.0228 H       
  38 H38           -3.1540     0.5796     0.0361 H       
  39 H39           -1.7066     2.7630     0.0403 H       
  40 H40            3.9358     6.0901    -0.0043 H       
  41 H41            6.6244     6.1297     0.8599 H       
  42 H42            6.6071     6.1396    -0.9200 H       
  43 H43            6.3199    12.4067     1.7099 H       
  44 H44            4.6220    12.7842     2.1433 H       
  45 H45            5.7204     7.9936     2.1220 H       
  46 H46            5.6794     8.0161    -2.1424 H       
  47 H47            5.1750    10.4252    -2.1329 H       
  48 H48            2.0502    -2.5574     0.4815 H       
  49 H49            0.2707    -2.5211     0.5003 H       
  50 H50            3.2668    -2.7611    -1.6097 H       
  51 H51            3.2258    -3.5695    -3.9352 H       
  52 H52            1.0734    -3.9308    -5.0753 H       
  53 H53           -1.0380    -3.4846    -3.8895 H       
  54 H54           -0.9971    -2.6842    -1.5612 H       
@<TRIPOS>BOND
   1    1    2 1
   2    1   10 1
   3    1   13 1
   4    2    3 1
   5    2   11 2
   6    3    4 am
   7    3   28 1
   8    4    5 1
   9    4   27 2
  10    5    6 ar
  11    5   10 ar
  12    6    7 ar
  13    6   35 1
  14    7    8 ar
  15    7   14 1
  16    8    9 ar
  17    8   36 1
  18    9   10 ar
  19    9   37 1
  20   11   12 1
  21   12   13 2
  22   12   38 1
  23   13   39 1
  24   14   15 2
  25   14   16 am
  26   16   17 1
  27   16   40 1
  28   17   24 1
  29   17   41 1
  30   17   42 1
  31   18   19 1
  32   18   22 1
  33   19   20 1
  34   19   43 1
  35   19   44 1
  36   20   21 1
  37   21   22 ar
  38   21   23 ar
  39   22   26 ar
  40   23   24 ar
  41   23   45 1
  42   24   25 ar
  43   25   26 ar
  44   25   46 1
  45   26   47 1
  46   28   29 1
  47   28   48 1
  48   28   49 1
  49   29   30 ar
  50   29   34 ar
  51   30   31 ar
  52   30   50 1
  53   31   32 ar
  54   31   51 1
  55   32   33 ar
  56   32   52 1
  57   33   34 ar
  58   33   53 1
  59   34   54 1

#	End of record

