#	Name: ASD05430227
#	Creating user name:	WinNT
#	Creation time:	15. 06. 2019 21:00

#	Modifying user name:	WinNT
#	Modification time:	15. 06. 2019 21:00

#	Program:	/corina/corina34_cracker 3.40 0067  02.08.2006

@<TRIPOS>MOLECULE
ASD05430227
  62   67    0    0    0
SMALL
NO_CHARGES


@<TRIPOS>ATOM
   1 C1            -0.1034     2.1998    -1.9267 C.ar    
   2 C2             0.1714     0.9203    -1.4443 C.ar    
   3 C3            -0.8077     0.2049    -0.7665 C.ar    
   4 C4            -2.0547     0.7559    -0.5677 C.ar    
   5 C5            -2.3375     2.0385    -1.0486 C.ar    
   6 C6            -1.3505     2.7609    -1.7258 C.ar    
   7 C7            -4.6906     0.3494    -1.0941 C.3     
   8 C8            -4.7553     1.8355    -0.7794 C.2     
   9 C9            -3.6695     2.6286    -0.8375 C.2     
  10 C10           -5.9374    -0.0167    -1.9099 C.3     
  11 C11           -7.2811     0.2795    -1.2314 C.3     
  12 N12           -7.2540     1.6449    -0.7116 N.pl3   
  13 C13           -6.0901     2.3529    -0.4054 C.2     
  14 N14            1.4375     0.3552    -1.6442 N.pl3   
  15 C15            1.8519    -0.8617    -1.2406 C.2     
  16 N16            2.5259     0.9417    -2.3104 N.2     
  17 C17            3.5058     0.0769    -2.2680 C.2     
  18 N18            3.0951    -1.0128    -1.6203 N.2     
  19 C19            4.8770     0.2783    -2.8600 C.3     
  20 C20           -8.3716     2.5468    -0.4236 C.3     
  21 O21           -7.7783     3.5406     0.4380 O.3     
  22 N22           -6.3762     3.4413     0.2298 N.2     
  23 C23           -8.8927     3.1894    -1.7107 C.3     
  24 N24          -10.0497     4.0395    -1.3999 N.3     
  25 C25           -9.8438     0.5462    -0.1196 C.ar    
  26 C26           -9.4766     1.8134     0.2920 C.ar    
  27 O27            0.8570     2.8971    -2.5895 O.3     
  28 C28            0.5062     4.2016    -3.0558 C.3     
  29 C29           -5.8612     0.1432    -3.4278 C.3     
  30 C30           -5.8565    -1.2541    -2.8039 C.3     
  31 C31          -10.8572    -0.1276     0.5360 C.ar    
  32 C32          -11.5048     0.4670     1.6054 C.ar    
  33 C33          -11.1364     1.7365     2.0178 C.ar    
  34 C34          -10.1225     2.4089     1.3608 C.ar    
  35 F35          -12.4956    -0.1909     2.2463 F       
  36 Br36          -9.6181     4.1423     1.9237 Br      
  37 H37           -0.5910    -0.7857    -0.3949 H       
  38 H38           -2.8141     0.1972    -0.0407 H       
  39 H39           -1.5646     3.7517    -2.0984 H       
  40 H40           -3.7938     0.1345    -1.6753 H       
  41 H41           -4.6756    -0.2234    -0.1668 H       
  42 H42           -3.7755     3.6979    -0.7293 H       
  43 H43           -8.0872     0.1812    -1.9585 H       
  44 H44           -7.4385    -0.4208    -0.4111 H       
  45 H45            1.2616    -1.5854    -0.6982 H       
  46 H46            5.5300     0.7357    -2.1167 H       
  47 H47            5.2880    -0.6854    -3.1609 H       
  48 H48            4.8047     0.9303    -3.7305 H       
  49 H49           -8.1057     3.7963    -2.1582 H       
  50 H50           -9.1924     2.4094    -2.4106 H       
  51 H51          -10.4448     4.4339    -2.2404 H       
  52 H52          -10.7456     3.5268    -0.8793 H       
  53 H53           -9.3418     0.0839    -0.9566 H       
  54 H54           -0.3320     4.1266    -3.7486 H       
  55 H55            0.2227     4.8262    -2.2088 H       
  56 H56            1.3604     4.6469    -3.5659 H       
  57 H57           -6.7660     0.4597    -3.9466 H       
  58 H58           -4.9249     0.5095    -3.8489 H       
  59 H59           -4.9172    -1.8070    -2.8145 H       
  60 H60           -6.7583    -1.8567    -2.9122 H       
  61 H61          -11.1439    -1.1177     0.2138 H       
  62 H62          -11.6412     2.2014     2.8517 H       
@<TRIPOS>BOND
   1    1    2 ar
   2    1   27 1
   3    1    6 ar
   4    2    3 ar
   5    2   14 1
   6    3    4 ar
   7    3   37 1
   8    4    5 ar
   9    4   38 1
  10    5    6 ar
  11    5    9 1
  12    6   39 1
  13    7    8 1
  14    7   10 1
  15    7   40 1
  16    7   41 1
  17    8    9 2
  18    8   13 1
  19    9   42 1
  20   10   11 1
  21   10   29 1
  22   10   30 1
  23   11   12 1
  24   11   43 1
  25   11   44 1
  26   12   13 1
  27   12   20 1
  28   13   22 2
  29   14   15 1
  30   14   16 1
  31   15   18 2
  32   15   45 1
  33   16   17 2
  34   17   18 1
  35   17   19 1
  36   19   46 1
  37   19   47 1
  38   19   48 1
  39   20   21 1
  40   20   23 1
  41   20   26 1
  42   21   22 1
  43   23   24 1
  44   23   49 1
  45   23   50 1
  46   24   51 1
  47   24   52 1
  48   25   26 ar
  49   25   31 ar
  50   25   53 1
  51   26   34 ar
  52   27   28 1
  53   28   54 1
  54   28   55 1
  55   28   56 1
  56   29   30 1
  57   29   57 1
  58   29   58 1
  59   30   59 1
  60   30   60 1
  61   31   32 ar
  62   31   61 1
  63   32   33 ar
  64   32   35 1
  65   33   34 ar
  66   33   62 1
  67   34   36 1

#	End of record

