#	Name: ASD01814211
#	Creating user name:	WinNT
#	Creation time:	15. 06. 2019 19:31

#	Modifying user name:	WinNT
#	Modification time:	15. 06. 2019 19:31

#	Program:	/corina/corina34_cracker 3.40 0067  02.08.2006

@<TRIPOS>MOLECULE
ASD01814211
  51   55    0    0    0
SMALL
NO_CHARGES


@<TRIPOS>ATOM
   1 N1             0.6774     1.1996    -0.5527 N.2     
   2 C2             0.8349    -0.0864    -0.7606 C.2     
   3 C3             2.0923    -0.5962    -1.1187 C.2     
   4 C4             3.1429     0.2514    -1.2480 C.2     
   5 N5             2.9513     1.5854    -1.0258 N.pl3   
   6 C6             1.7080     2.0463    -0.6775 C.2     
   7 N7             3.8125     2.6863    -1.0768 N.2     
   8 C8             3.1327     3.7740    -0.7744 C.2     
   9 C9             1.8178     3.4227    -0.5192 C.2     
  10 C10            3.2755     5.2670    -0.6078 C.3     
  11 N11            1.9628     5.8021    -0.2338 N.am    
  12 C12            1.0384     4.6654    -0.1731 C.3     
  13 C13            1.6626     7.0935     0.0082 C.2     
  14 O14            0.5104     7.4210     0.2172 O.2     
  15 C15            2.7320     8.1098     0.0196 C.ar    
  16 C16            2.7949     9.0551     1.0523 C.ar    
  17 C17            3.6912     8.1318    -0.9959 C.ar    
  18 C18            4.6874     9.0836    -0.9795 C.ar    
  19 C19            4.7431    10.0197     0.0404 C.ar    
  20 C20            3.8047    10.0061     1.0529 C.ar    
  21 O21            1.8721     9.0405     2.0465 O.3     
  22 C22            2.0622     9.9625     3.1216 C.3     
  23 C23            1.2674     9.5215     4.3789 C.3     
  24 C24            4.5034    -0.2714    -1.6311 C.3     
  25 Cl25           2.3012    -2.2976    -1.3934 Cl      
  26 C26           -0.3393    -1.0196    -0.6138 C.3     
  27 F27            0.0546     8.9271     4.0142 F       
  28 C28            1.4085    11.3300     2.8019 C.3     
  29 N29            1.1312    11.9339     4.1226 N.3     
  30 C30            1.0216    10.8529     5.1194 C.3     
  31 H31            3.9999     5.4834     0.1774 H       
  32 H32            3.6027     5.7137    -1.5467 H       
  33 H33            0.2306     4.8068    -0.8911 H       
  34 H34            0.6285     4.5762     0.8329 H       
  35 H35            3.6522     7.4036    -1.7925 H       
  36 H36            5.4285     9.0997    -1.7650 H       
  37 H37            5.5278    10.7617     0.0457 H       
  38 H38            3.8569    10.7368     1.8464 H       
  39 H39            3.1215    10.0799     3.3499 H       
  40 H40            1.8612     8.8435     4.9919 H       
  41 H41            4.4533    -1.3522    -1.7634 H       
  42 H42            4.8223     0.1944    -2.5636 H       
  43 H43            5.2186    -0.0346    -0.8435 H       
  44 H44           -1.2243    -0.4486    -0.3331 H       
  45 H45           -0.5201    -1.5279    -1.5609 H       
  46 H46           -0.1226    -1.7573     0.1589 H       
  47 H47            2.0972    11.9566     2.2352 H       
  48 H48            0.4808    11.1869     2.2478 H       
  49 H49            1.8534    12.5902     4.3789 H       
  50 H50            0.0243    10.8539     5.5593 H       
  51 H51            1.7727    10.9886     5.8976 H       
@<TRIPOS>BOND
   1    1    2 2
   2    1    6 1
   3    2    3 1
   4    2   26 1
   5    3    4 2
   6    3   25 1
   7    4    5 1
   8    4   24 1
   9    5    7 1
  10    5    6 1
  11    6    9 2
  12    7    8 2
  13    8   10 1
  14    8    9 1
  15    9   12 1
  16   10   11 1
  17   10   31 1
  18   10   32 1
  19   11   12 1
  20   11   13 am
  21   12   33 1
  22   12   34 1
  23   13   14 2
  24   13   15 1
  25   15   17 ar
  26   15   16 ar
  27   16   20 ar
  28   16   21 1
  29   17   18 ar
  30   17   35 1
  31   18   19 ar
  32   18   36 1
  33   19   20 ar
  34   19   37 1
  35   20   38 1
  36   21   22 1
  37   22   28 1
  38   22   23 1
  39   22   39 1
  40   23   30 1
  41   23   27 1
  42   23   40 1
  43   24   41 1
  44   24   42 1
  45   24   43 1
  46   26   44 1
  47   26   45 1
  48   26   46 1
  49   28   29 1
  50   28   47 1
  51   28   48 1
  52   29   30 1
  53   29   49 1
  54   30   50 1
  55   30   51 1

#	End of record

