#	Name: ASD02408398
#	Creating user name:	WinNT
#	Creation time:	15. 06. 2019 20:21

#	Modifying user name:	WinNT
#	Modification time:	15. 06. 2019 20:21

#	Program:	/corina/corina34_cracker 3.40 0067  02.08.2006

@<TRIPOS>MOLECULE
ASD02408398
  28   29    0    0    0
SMALL
NO_CHARGES


@<TRIPOS>ATOM
   1 C1             0.0055     1.1812     0.5412 C.2     
   2 C2            -0.0223     0.2848    -0.5534 C.2     
   3 C3             1.3456     1.4303     0.8291 C.2     
   4 N4             2.0801     0.7161    -0.0524 N.pl3   
   5 N5             1.2071     0.0185    -0.8939 N.2     
   6 C6             3.4797     0.6805    -0.1132 C.ar    
   7 C7             4.2010     1.8606    -0.2341 C.ar    
   8 C8             5.5805     1.8222    -0.2932 C.ar    
   9 C9             6.2431     0.6102    -0.2326 C.ar    
  10 C10            5.5273    -0.5671    -0.1127 C.ar    
  11 C11            4.1483    -0.5348    -0.0468 C.ar    
  12 N12            1.8314     2.2513     1.8260 N.pl3   
  13 C13           -1.1566     1.7460     1.2371 C.2     
  14 N14           -2.4030     1.4177     0.8432 N.am    
  15 O15           -0.9949     2.5108     2.1697 O.2     
  16 C16            3.3692    -1.8181     0.0844 C.3     
  17 F17            4.2553    -2.9002     0.1188 F       
  18 F18            2.6208    -1.7905     1.2661 F       
  19 F19            2.5083    -1.9549    -1.0097 F       
  20 H20           -0.9097    -0.1107    -1.0252 H       
  21 H21            3.6840     2.8076    -0.2822 H       
  22 H22            6.1422     2.7399    -0.3873 H       
  23 H23            7.3217     0.5828    -0.2795 H       
  24 H24            6.0476    -1.5124    -0.0663 H       
  25 H25            1.2196     2.7902     2.3515 H       
  26 H26            2.7846     2.2894     2.0014 H       
  27 H27           -2.5320     0.8081     0.0998 H       
  28 H28           -3.1712     1.7910     1.3031 H       
@<TRIPOS>BOND
   1    1    2 1
   2    1    3 2
   3    1   13 1
   4    2    5 2
   5    2   20 1
   6    3    4 1
   7    3   12 1
   8    4    5 1
   9    4    6 1
  10    6    7 ar
  11    6   11 ar
  12    7    8 ar
  13    7   21 1
  14    8    9 ar
  15    8   22 1
  16    9   10 ar
  17    9   23 1
  18   10   11 ar
  19   10   24 1
  20   11   16 1
  21   12   25 1
  22   12   26 1
  23   13   14 am
  24   13   15 2
  25   14   27 1
  26   14   28 1
  27   16   17 1
  28   16   18 1
  29   16   19 1

#	End of record

