#	Name: ASD01940697
#	Creating user name:	WinNT
#	Creation time:	15. 06. 2019 20:13

#	Modifying user name:	WinNT
#	Modification time:	15. 06. 2019 20:13

#	Program:	/corina/corina34_cracker 3.40 0067  02.08.2006

@<TRIPOS>MOLECULE
ASD01940697
  42   44    0    0    0
SMALL
NO_CHARGES


@<TRIPOS>ATOM
   1 C1             0.4745     0.4148    -1.4833 C.ar    
   2 C2             0.0106    -0.2122    -0.3415 C.ar    
   3 C3             0.6403    -0.0011     0.8732 C.ar    
   4 C4             1.7385     0.8405     0.9503 C.ar    
   5 C5             2.2087     1.4729    -0.1929 C.ar    
   6 C6             1.5732     1.2583    -1.4148 C.ar    
   7 N7             2.0437     1.8936    -2.5719 N.am    
   8 S8             0.9756     2.3940    -3.7342 S.o2    
   9 C9             0.0139     3.7055    -2.9307 C.3     
  10 O10            1.7996     2.9355    -4.7575 O.2     
  11 O11            0.1611     1.2549    -3.9755 O.2     
  12 F12            0.1829    -0.6163     1.9856 F       
  13 F13            2.3509     1.0459     2.1369 F       
  14 N14            3.3190     2.3252    -0.1183 N.pl3   
  15 C15            4.5848     1.8575    -0.4828 C.ar    
  16 C16            5.6974     2.6805    -0.3472 C.ar    
  17 C17            4.7347     0.5679    -0.9756 C.ar    
  18 C18            5.9870     0.1082    -1.3346 C.ar    
  19 C19            7.0916     0.9307    -1.2036 C.ar    
  20 C20            6.9470     2.2147    -0.7079 C.ar    
  21 Cl21           5.5163     4.2914     0.2741 Cl      
  22 Br22           8.8037     0.2967    -1.6963 Br      
  23 C23           -1.1115     4.1821    -3.8656 C.3     
  24 C24           -2.4403     3.9067    -3.1319 C.3     
  25 C25           -2.0463     3.8677    -1.6345 C.3     
  26 C26           -0.6703     3.1571    -1.6615 C.3     
  27 H27           -0.0166     0.2442    -2.4299 H       
  28 H28           -0.8454    -0.8683    -0.3975 H       
  29 H29            2.9950     2.0402    -2.6919 H       
  30 H30            0.6647     4.5412    -2.6735 H       
  31 H31            3.2090     3.2396     0.1861 H       
  32 H32            3.8731    -0.0752    -1.0779 H       
  33 H33            6.1039    -0.8949    -1.7175 H       
  34 H34            7.8112     2.8545    -0.6068 H       
  35 H35           -1.0073     5.2493    -4.0615 H       
  36 H36           -1.0798     3.6254    -4.8022 H       
  37 H37           -3.1526     4.7105    -3.3181 H       
  38 H38           -2.8558     2.9480    -3.4422 H       
  39 H39           -1.9521     4.8768    -1.2334 H       
  40 H40           -2.7690     3.2884    -1.0599 H       
  41 H41           -0.8000     2.0773    -1.7343 H       
  42 H42           -0.0909     3.4138    -0.7746 H       
@<TRIPOS>BOND
   1    1    2 ar
   2    1    6 ar
   3    1   27 1
   4    2    3 ar
   5    2   28 1
   6    3    4 ar
   7    3   12 1
   8    4    5 ar
   9    4   13 1
  10    5    6 ar
  11    5   14 1
  12    6    7 1
  13    7    8 am
  14    7   29 1
  15    8    9 1
  16    8   10 2
  17    8   11 2
  18    9   23 1
  19    9   26 1
  20    9   30 1
  21   14   15 1
  22   14   31 1
  23   15   16 ar
  24   15   17 ar
  25   16   21 1
  26   16   20 ar
  27   17   18 ar
  28   17   32 1
  29   18   19 ar
  30   18   33 1
  31   19   20 ar
  32   19   22 1
  33   20   34 1
  34   23   24 1
  35   23   35 1
  36   23   36 1
  37   24   25 1
  38   24   37 1
  39   24   38 1
  40   25   26 1
  41   25   39 1
  42   25   40 1
  43   26   41 1
  44   26   42 1

#	End of record

