#	Name: ASD01910677
#	Creating user name:	WinNT
#	Creation time:	15. 06. 2019 19:56

#	Modifying user name:	WinNT
#	Modification time:	15. 06. 2019 19:56

#	Program:	/corina/corina34_cracker 3.40 0067  02.08.2006

@<TRIPOS>MOLECULE
ASD01910677
  39   41    0    0    0
SMALL
NO_CHARGES


@<TRIPOS>ATOM
   1 C1            -0.0168     1.3849     0.0097 C.ar    
   2 C2             0.0021    -0.0041     0.0020 C.ar    
   3 C3             1.2121    -0.6870    -0.0127 C.ar    
   4 C4             2.3995     0.0112    -0.0198 C.ar    
   5 C5             2.3858     1.4096    -0.0126 C.ar    
   6 C6             1.1656     2.0922     0.0022 C.ar    
   7 C7             3.6174     2.1401    -0.0195 C.1     
   8 C8             4.6272     2.7390    -0.0251 C.1     
   9 C9             5.8589     3.4694    -0.0320 C.ar    
  10 C10            5.8415     4.8695    -0.0248 C.ar    
  11 C11            7.0160     5.5624    -0.0307 C.ar    
  12 C12            8.2350     4.8738    -0.0433 C.ar    
  13 C13            8.2548     3.4787    -0.0512 C.ar    
  14 C14            7.0787     2.7828    -0.0401 C.ar    
  15 C15            7.0236     7.0683    -0.0243 C.3     
  16 C16            8.2217     7.5785     0.7732 C.3     
  17 N17            9.4590     6.9493     0.3197 N.am    
  18 C18            9.4898     5.6525    -0.0467 C.2     
  19 O19           10.5375     5.1304    -0.3758 O.2     
  20 O20           -1.1662    -0.6969     0.0094 O.3     
  21 C21           -2.3736     0.0672     0.0250 C.3     
  22 C22            3.7111    -0.7307    -0.0348 C.3     
  23 H23           -0.9598     1.9112     0.0170 H       
  24 H24            1.2217    -1.7669    -0.0183 H       
  25 H25            1.1500     3.1721     0.0074 H       
  26 H26            4.9003     5.3993    -0.0149 H       
  27 H27            9.1967     2.9504    -0.0616 H       
  28 H28            7.0903     1.7029    -0.0457 H       
  29 H29            7.0883     7.4344    -1.0490 H       
  30 H30            6.1033     7.4331     0.4317 H       
  31 H31            8.3021     8.6582     0.6470 H       
  32 H32            8.0713     7.3526     1.8289 H       
  33 H33           10.2737     7.4743     0.2812 H       
  34 H34           -2.3973     0.6909     0.9186 H       
  35 H35           -2.4143     0.7005    -0.8612 H       
  36 H36           -3.2301    -0.6068     0.0296 H       
  37 H37            4.0184    -0.9047    -1.0660 H       
  38 H38            4.4700    -0.1373     0.4752 H       
  39 H39            3.5937    -1.6866     0.4756 H       
@<TRIPOS>BOND
   1    1    2 ar
   2    1    6 ar
   3    1   23 1
   4    2    3 ar
   5    2   20 1
   6    3    4 ar
   7    3   24 1
   8    4    5 ar
   9    4   22 1
  10    5    6 ar
  11    5    7 1
  12    6   25 1
  13    7    8 3
  14    8    9 1
  15    9   10 ar
  16    9   14 ar
  17   10   11 ar
  18   10   26 1
  19   11   12 ar
  20   11   15 1
  21   12   13 ar
  22   12   18 1
  23   13   14 ar
  24   13   27 1
  25   14   28 1
  26   15   16 1
  27   15   29 1
  28   15   30 1
  29   16   17 1
  30   16   31 1
  31   16   32 1
  32   17   18 am
  33   17   33 1
  34   18   19 2
  35   20   21 1
  36   21   34 1
  37   21   35 1
  38   21   36 1
  39   22   37 1
  40   22   38 1
  41   22   39 1

#	End of record

