#	Name: ASD00461043
#	Creating user name:	WinNT
#	Creation time:	15. 06. 2019 18:36

#	Modifying user name:	WinNT
#	Modification time:	15. 06. 2019 18:36

#	Program:	/corina/corina34_cracker 3.40 0067  02.08.2006

@<TRIPOS>MOLECULE
ASD00461043
  65   67    0    0    0
SMALL
NO_CHARGES


@<TRIPOS>ATOM
   1 C1            -0.0167     1.3779     0.0096 C.ar    
   2 C2             0.0021    -0.0041     0.0020 C.ar    
   3 C3             1.2086    -0.6790    -0.0132 C.ar    
   4 C4             2.3961     0.0283    -0.0212 C.ar    
   5 C5             2.3773     1.4107    -0.0145 C.ar    
   6 C6             1.1711     2.0854     0.0021 C.ar    
   7 C7             3.7112    -0.7073    -0.0368 C.3     
   8 O8             4.7176     0.1283    -0.6120 O.3     
   9 C9             5.7517    -0.5891    -1.2887 C.3     
  10 C10            6.7681     0.4006    -1.8617 C.3     
  11 C11            7.9383    -0.3691    -2.4774 C.3     
  12 N12            8.9694     0.5791    -2.9200 N.3     
  13 C13           10.1111    -0.1259    -3.5179 C.3     
  14 O14            6.1410     1.1987    -2.8676 O.3     
  15 C15           11.1616     0.8924    -3.9657 C.3     
  16 C16           10.7254    -1.0711    -2.4834 C.3     
  17 C17            9.6354    -0.9333    -4.7273 C.3     
  18 C18           12.3328     0.1691    -4.5790 C.ar    
  19 C19           12.3371    -0.0933    -5.9474 C.ar    
  20 C20           13.3791    -0.7449    -6.5328 C.ar    
  21 C21           14.4684    -1.1599    -5.7484 C.ar    
  22 C22           14.4643    -0.8924    -4.3564 C.ar    
  23 C23           13.3733    -0.2130    -3.7888 C.ar    
  24 C24           15.5619    -1.8355    -6.3169 C.ar    
  25 C25           16.5993    -2.2227    -5.5258 C.ar    
  26 C26           16.5953    -1.9597    -4.1570 C.ar    
  27 C27           15.5538    -1.3079    -3.5718 C.ar    
  28 C28            1.2291    -2.1858    -0.0205 C.3     
  29 C29            1.3738    -2.6931     1.3912 C.2     
  30 O30            1.4523    -1.9112     2.3090 O.2     
  31 O31            1.4155    -4.0135     1.6289 O.3     
  32 C32            4.1084    -1.0723     1.3950 C.3     
  33 H33           -0.9592     1.9051     0.0170 H       
  34 H34           -0.9258    -0.5567     0.0083 H       
  35 H35            3.3052     1.9634    -0.0201 H       
  36 H36            1.1565     3.1653     0.0077 H       
  37 H37            3.6118    -1.6168    -0.6293 H       
  38 H38            6.2507    -1.2564    -0.5861 H       
  39 H39            5.3174    -1.1741    -2.0995 H       
  40 H40            7.1369     1.0454    -1.0640 H       
  41 H41            8.3609    -1.0441    -1.7332 H       
  42 H42            7.5844    -0.9460    -3.3318 H       
  43 H43            8.5860     1.2563    -3.5622 H       
  44 H44            5.7885     0.6896    -3.6104 H       
  45 H45           10.7239     1.5657    -4.7027 H       
  46 H46           11.5004     1.4676    -3.1040 H       
  47 H47            9.9770    -1.7965    -2.1644 H       
  48 H48           11.5726    -1.5942    -2.9270 H       
  49 H49           11.0643    -0.4959    -1.6218 H       
  50 H50            9.1977    -0.2600    -5.4643 H       
  51 H51           10.4825    -1.4564    -5.1709 H       
  52 H52            8.8870    -1.6588    -4.4083 H       
  53 H53           11.5010     0.2246    -6.5526 H       
  54 H54           13.3684    -0.9421    -7.5946 H       
  55 H55           13.3564    -0.0024    -2.7297 H       
  56 H56           15.5787    -2.0465    -7.3759 H       
  57 H57           17.4382    -2.7420    -5.9651 H       
  58 H58           17.4312    -2.2779    -3.5518 H       
  59 H59           15.5646    -1.1106    -2.5100 H       
  60 H60            0.2984    -2.5598    -0.4473 H       
  61 H61            2.0698    -2.5349    -0.6200 H       
  62 H62            1.5092    -4.2909     2.5505 H       
  63 H63            4.2078    -0.1628     1.9875 H       
  64 H64            3.3407    -1.7097     1.8337 H       
  65 H65            5.0596    -1.6044     1.3837 H       
@<TRIPOS>BOND
   1    1    2 ar
   2    1    6 ar
   3    1   33 1
   4    2    3 ar
   5    2   34 1
   6    3    4 ar
   7    3   28 1
   8    4    5 ar
   9    4    7 1
  10    5    6 ar
  11    5   35 1
  12    6   36 1
  13    7    8 1
  14    7   32 1
  15    7   37 1
  16    8    9 1
  17    9   10 1
  18    9   38 1
  19    9   39 1
  20   10   11 1
  21   10   14 1
  22   10   40 1
  23   11   12 1
  24   11   41 1
  25   11   42 1
  26   12   13 1
  27   12   43 1
  28   13   15 1
  29   13   16 1
  30   13   17 1
  31   14   44 1
  32   15   18 1
  33   15   45 1
  34   15   46 1
  35   16   47 1
  36   16   48 1
  37   16   49 1
  38   17   50 1
  39   17   51 1
  40   17   52 1
  41   18   19 ar
  42   18   23 ar
  43   19   20 ar
  44   19   53 1
  45   20   21 ar
  46   20   54 1
  47   21   22 ar
  48   21   24 ar
  49   22   23 ar
  50   22   27 ar
  51   23   55 1
  52   24   25 ar
  53   24   56 1
  54   25   26 ar
  55   25   57 1
  56   26   27 ar
  57   26   58 1
  58   27   59 1
  59   28   29 1
  60   28   60 1
  61   28   61 1
  62   29   30 2
  63   29   31 1
  64   31   62 1
  65   32   63 1
  66   32   64 1
  67   32   65 1

#	End of record

