#	Name: ASD01870217
#	Creating user name:	WinNT
#	Creation time:	15. 06. 2019 19:38

#	Modifying user name:	WinNT
#	Modification time:	15. 06. 2019 19:38

#	Program:	/corina/corina34_cracker 3.40 0067  02.08.2006

@<TRIPOS>MOLECULE
ASD01870217
  61   66    0    0    0
SMALL
NO_CHARGES


@<TRIPOS>ATOM
   1 C1            -0.0168     1.3885     0.0097 C.ar    
   2 C2             0.0021    -0.0041     0.0020 C.ar    
   3 C3             1.1792    -0.6916    -0.0125 C.ar    
   4 C4             2.3912     0.0116    -0.0203 C.ar    
   5 C5             2.3718     1.4326    -0.0130 C.ar    
   6 C6             1.1419     2.1061     0.0025 C.ar    
   7 C7             3.6358    -0.6449    -0.0358 C.ar    
   8 N8             4.7484     0.0414    -0.0428 N.ar    
   9 C9             4.7765     1.3812    -0.0363 C.ar    
  10 C10            3.5985     2.1088    -0.0216 C.ar    
  11 C11            5.9063     2.3358    -0.0427 C.2     
  12 N12            5.4506     3.5999    -0.0323 N.am    
  13 C13            3.9835     3.5653    -0.0184 C.3     
  14 C14            6.2785     4.8085    -0.0336 C.3     
  15 C15            7.1502     4.8282    -1.2908 C.3     
  16 C16            8.0149     6.0905    -1.2922 C.3     
  17 C17            8.9096     6.0971    -0.0510 C.3     
  18 C18            8.0378     6.0774     1.2062 C.3     
  19 C19            7.1732     4.8152     1.2075 C.3     
  20 C20            3.6864    -2.1511    -0.0438 C.3     
  21 C21            3.6894    -2.6460    -1.4672 C.ar    
  22 C22            4.8882    -2.8358    -2.1403 C.ar    
  23 C23            4.8477    -3.2914    -3.4464 C.ar    
  24 C24            3.6113    -3.5428    -4.0376 C.ar    
  25 N25            2.4876    -3.3480    -3.3595 N.ar    
  26 C26            2.4985    -2.9207    -2.1128 C.ar    
  27 O27            7.0804     2.0215    -0.0554 O.2     
  28 O28            6.3146     4.8221    -2.4500 O.3     
  29 C29            3.5508    -4.0316    -5.4368 C.2     
  30 C30            4.6508    -4.3779    -6.2465 C.2     
  31 N31            4.1937    -4.7620    -7.4085 N.2     
  32 N32            2.7964    -4.6771    -7.3876 N.pl3   
  33 C33            2.4189    -4.2336    -6.1729 C.2     
  34 C34            1.8990    -5.0172    -8.4945 C.3     
  35 H35           -0.9639     1.9075     0.0170 H       
  36 H36           -0.9309    -0.5481     0.0080 H       
  37 H37            1.1776    -1.7716    -0.0176 H       
  38 H38            1.1130     3.1857     0.0078 H       
  39 H39            3.5885     4.0595    -0.9060 H       
  40 H40            3.6056     4.0510     0.8812 H       
  41 H41            5.6360     5.6890    -0.0231 H       
  42 H42            7.7926     3.9478    -1.3013 H       
  43 H43            8.6359     6.1045    -2.1878 H       
  44 H44            7.3724     6.9710    -1.2816 H       
  45 H45            9.5520     5.2166    -0.0616 H       
  46 H46            9.5255     6.9964    -0.0520 H       
  47 H47            8.6752     6.0821     2.0904 H       
  48 H48            7.3954     6.9579     1.2167 H       
  49 H49            6.5521     4.8011     2.1032 H       
  50 H50            7.8156     3.9347     1.1970 H       
  51 H51            4.5931    -2.4868     0.4595 H       
  52 H52            2.8142    -2.5467     0.4766 H       
  53 H53            5.8317    -2.6320    -1.6558 H       
  54 H54            5.7616    -3.4497    -3.9997 H       
  55 H55            1.5640    -2.7738    -1.5918 H       
  56 H56            6.8011     4.8338    -3.2856 H       
  57 H57            5.6904    -4.3333    -5.9571 H       
  58 H58            1.4047    -4.0631    -5.8430 H       
  59 H59            1.6223    -6.0694    -8.4277 H       
  60 H60            1.0016    -4.4012    -8.4370 H       
  61 H61            2.4054    -4.8340    -9.4422 H       
@<TRIPOS>BOND
   1    1    2 ar
   2    1    6 ar
   3    1   35 1
   4    2    3 ar
   5    2   36 1
   6    3    4 ar
   7    3   37 1
   8    4    5 ar
   9    4    7 ar
  10    5    6 ar
  11    5   10 ar
  12    6   38 1
  13    7    8 ar
  14    7   20 1
  15    8    9 ar
  16    9   10 ar
  17    9   11 1
  18   10   13 1
  19   11   12 am
  20   11   27 2
  21   12   13 1
  22   12   14 1
  23   13   39 1
  24   13   40 1
  25   14   15 1
  26   14   19 1
  27   14   41 1
  28   15   16 1
  29   15   28 1
  30   15   42 1
  31   16   17 1
  32   16   43 1
  33   16   44 1
  34   17   18 1
  35   17   45 1
  36   17   46 1
  37   18   19 1
  38   18   47 1
  39   18   48 1
  40   19   49 1
  41   19   50 1
  42   20   21 1
  43   20   51 1
  44   20   52 1
  45   21   22 ar
  46   21   26 ar
  47   22   23 ar
  48   22   53 1
  49   23   24 ar
  50   23   54 1
  51   24   25 ar
  52   24   29 1
  53   25   26 ar
  54   26   55 1
  55   28   56 1
  56   29   30 1
  57   29   33 2
  58   30   31 2
  59   30   57 1
  60   31   32 1
  61   32   33 1
  62   32   34 1
  63   33   58 1
  64   34   59 1
  65   34   60 1
  66   34   61 1

#	End of record

