#	Name: ASD03730710
#	Creating user name:	WinNT
#	Creation time:	15. 06. 2019 20:44

#	Modifying user name:	WinNT
#	Modification time:	15. 06. 2019 20:44

#	Program:	/corina/corina34_cracker 3.40 0067  02.08.2006

@<TRIPOS>MOLECULE
ASD03730710
  65   71    0    0    0
SMALL
NO_CHARGES


@<TRIPOS>ATOM
   1 C1             1.3708    -1.2048    -2.4867 C.2     
   2 C2             0.4779    -1.1518    -1.3100 C.ar    
   3 C3             0.7362    -0.2525    -0.2738 C.ar    
   4 C4            -0.1010    -0.2083     0.8215 C.ar    
   5 C5            -1.1948    -1.0528     0.8948 C.ar    
   6 C6            -1.4565    -1.9463    -0.1285 C.ar    
   7 C7            -0.6303    -1.9967    -1.2324 C.ar    
   8 O8             2.3116    -0.4395    -2.5708 O.2     
   9 N9             1.1452    -2.1051    -3.4639 N.am    
  10 C10            1.9272     0.6675    -0.3516 C.3     
  11 O11            0.1198    -0.7029     6.4709 O.3     
  12 C12            0.0790    -0.3753     7.8723 C.3     
  13 O13            1.3652     0.2218     8.1218 O.3     
  14 C14            1.7572     0.7580     6.9286 C.ar    
  15 C15            0.9917     0.1882     5.9138 C.ar    
  16 C16            2.7203     1.7023     6.6214 C.ar    
  17 C17            2.9334     2.0884     5.3015 C.ar    
  18 C18            2.1682     1.5062     4.2956 C.ar    
  19 C19            1.2030     0.5689     4.5992 C.ar    
  20 O20            3.8079     3.0021     4.7909 O.3     
  21 C21            2.6452     2.0985     2.9966 C.3     
  22 C22            3.9743     2.7634     3.3799 C.3     
  23 N23            2.0422     1.4242     0.8975 N.am    
  24 C24            2.8272     1.0573     1.9301 C.2     
  25 C25            1.6697     3.0853     2.4268 C.ar    
  26 C26            1.1052     4.2479     2.9021 C.ar    
  27 C27            0.2140     4.9570     2.1166 C.ar    
  28 C28           -0.1088     4.4951     0.8535 C.ar    
  29 C29            0.4533     3.3307     0.3734 C.ar    
  30 C30            1.3517     2.6105     1.1570 C.ar    
  31 O31            3.5408     0.0782     1.9865 O.2     
  32 C32            1.8730    -2.0402    -4.6563 C.ar    
  33 C33            1.3643    -2.6139    -5.8143 C.ar    
  34 C34            2.0856    -2.5480    -6.9902 C.ar    
  35 C35            3.3132    -1.9120    -7.0154 C.ar    
  36 C36            3.8226    -1.3397    -5.8641 C.ar    
  37 C37            3.1035    -1.3967    -4.6864 C.ar    
  38 C38            4.0980    -1.8429    -8.3000 C.3     
  39 C39            3.7124    -0.5756    -9.0657 C.3     
  40 H40            0.0979     0.4866     1.6240 H       
  41 H41           -1.8470    -1.0144     1.7548 H       
  42 H42           -2.3118    -2.6026    -0.0652 H       
  43 H43           -0.8384    -2.6913    -2.0328 H       
  44 H44            0.4780    -2.7983    -3.3401 H       
  45 H45            2.8317     0.0787    -0.5043 H       
  46 H46            1.7986     1.3586    -1.1846 H       
  47 H47           -0.7201     0.3375     8.0758 H       
  48 H48           -0.0480    -1.2761     8.4727 H       
  49 H49            3.3107     2.1427     7.4112 H       
  50 H50            0.6107     0.1305     3.8097 H       
  51 H51            4.1071     3.7019     2.8416 H       
  52 H52            4.8112     2.0893     3.1974 H       
  53 H53            1.3586     4.6066     3.8888 H       
  54 H54           -0.2282     5.8693     2.4887 H       
  55 H55           -0.8045     5.0487     0.2404 H       
  56 H56            0.1959     2.9761    -0.6138 H       
  57 H57            0.4058    -3.1114    -5.7952 H       
  58 H58            1.6906    -2.9940    -7.8911 H       
  59 H59            4.7818    -0.8441    -5.8870 H       
  60 H60            3.4998    -0.9457    -3.7887 H       
  61 H61            5.1640    -1.8205    -8.0738 H       
  62 H62            3.8743    -2.7181    -8.9100 H       
  63 H63            4.2800    -0.5256    -9.9949 H       
  64 H64            2.6464    -0.5980    -9.2919 H       
  65 H65            3.9361     0.2996    -8.4557 H       
@<TRIPOS>BOND
   1    1    2 1
   2    1    8 2
   3    1    9 am
   4    2    3 ar
   5    2    7 ar
   6    3    4 ar
   7    3   10 1
   8    4    5 ar
   9    4   40 1
  10    5    6 ar
  11    5   41 1
  12    6    7 ar
  13    6   42 1
  14    7   43 1
  15    9   32 1
  16    9   44 1
  17   10   23 1
  18   10   45 1
  19   10   46 1
  20   11   12 1
  21   11   15 1
  22   12   13 1
  23   12   47 1
  24   12   48 1
  25   13   14 1
  26   14   15 ar
  27   14   16 ar
  28   15   19 ar
  29   16   17 ar
  30   16   49 1
  31   17   18 ar
  32   17   20 1
  33   18   19 ar
  34   18   21 1
  35   19   50 1
  36   20   22 1
  37   21   22 1
  38   21   24 1
  39   21   25 1
  40   22   51 1
  41   22   52 1
  42   23   24 am
  43   23   30 1
  44   24   31 2
  45   25   26 ar
  46   25   30 ar
  47   26   27 ar
  48   26   53 1
  49   27   28 ar
  50   27   54 1
  51   28   29 ar
  52   28   55 1
  53   29   30 ar
  54   29   56 1
  55   32   33 ar
  56   32   37 ar
  57   33   34 ar
  58   33   57 1
  59   34   35 ar
  60   34   58 1
  61   35   36 ar
  62   35   38 1
  63   36   37 ar
  64   36   59 1
  65   37   60 1
  66   38   39 1
  67   38   61 1
  68   38   62 1
  69   39   63 1
  70   39   64 1
  71   39   65 1

#	End of record

