#	Name: ASD05513047
#	Creating user name:	WinNT
#	Creation time:	15. 06. 2019 21:01

#	Modifying user name:	WinNT
#	Modification time:	15. 06. 2019 21:01

#	Program:	/corina/corina34_cracker 3.40 0067  02.08.2006

@<TRIPOS>MOLECULE
ASD05513047
  29   31    0    0    0
SMALL
NO_CHARGES


@<TRIPOS>ATOM
   1 C1            -0.0108     1.4053     0.4153 C.2     
   2 C2             0.0021    -0.0041     0.0020 C.2     
   3 C3             1.1835    -0.6675    -0.1155 C.2     
   4 C4             2.5226    -0.0875    -0.3457 C.ar    
   5 C5             3.4205    -1.1646    -0.3927 C.ar    
   6 N6             2.7251    -2.3556    -0.2081 N.am    
   7 C7             1.4108    -2.1348    -0.0339 C.2     
   8 C8             2.9804     1.2186    -0.5050 C.ar    
   9 C9             4.3246     1.4522    -0.7102 C.ar    
  10 C10            5.2146     0.3906    -0.7577 C.ar    
  11 C11            4.7702    -0.9089    -0.6007 C.ar    
  12 O12            0.5599    -2.9826     0.1493 O.2     
  13 O13            1.0190     1.9428     0.7760 O.2     
  14 C14           -1.2739     2.1721     0.3871 C.ar    
  15 C15           -2.4621     1.5685    -0.0304 C.ar    
  16 N16           -3.5873     2.2520    -0.0550 N.ar    
  17 C17           -3.6412     3.5192     0.3086 C.ar    
  18 C18           -2.5078     4.1895     0.7348 C.ar    
  19 C19           -1.3010     3.5158     0.7844 C.ar    
  20 Br20           7.0545     0.7232    -1.0407 Br      
  21 H21           -0.9266    -0.5136    -0.2086 H       
  22 H22            3.1372    -3.2336    -0.2021 H       
  23 H23            2.2858     2.0449    -0.4685 H       
  24 H24            4.6837     2.4632    -0.8342 H       
  25 H25            5.4738    -1.7273    -0.6399 H       
  26 H26           -2.4580     0.5327    -0.3361 H       
  27 H27           -4.5854     4.0422     0.2727 H       
  28 H28           -2.5660     5.2269     1.0296 H       
  29 H29           -0.4012     4.0145     1.1131 H       
@<TRIPOS>BOND
   1    1    2 1
   2    1   13 2
   3    1   14 1
   4    2    3 2
   5    2   21 1
   6    3    4 1
   7    3    7 1
   8    4    5 ar
   9    4    8 ar
  10    5    6 1
  11    5   11 ar
  12    6    7 am
  13    6   22 1
  14    7   12 2
  15    8    9 ar
  16    8   23 1
  17    9   10 ar
  18    9   24 1
  19   10   11 ar
  20   10   20 1
  21   11   25 1
  22   14   15 ar
  23   14   19 ar
  24   15   16 ar
  25   15   26 1
  26   16   17 ar
  27   17   18 ar
  28   17   27 1
  29   18   19 ar
  30   18   28 1
  31   19   29 1

#	End of record

