#	Name: ASD01883218
#	Creating user name:	WinNT
#	Creation time:	15. 06. 2019 19:46

#	Modifying user name:	WinNT
#	Modification time:	15. 06. 2019 19:46

#	Program:	/corina/corina34_cracker 3.40 0067  02.08.2006

@<TRIPOS>MOLECULE
ASD01883218
  46   47    0    0    0
SMALL
NO_CHARGES


@<TRIPOS>ATOM
   1 N1             0.0043     1.3045     0.0240 N.am    
   2 C2             0.0159    -0.0412     0.0384 C.2     
   3 C3            -1.2057    -0.7584     0.0450 C.2     
   4 C4            -2.4126    -0.0359     0.0362 C.2     
   5 C5            -2.3579     1.3721     0.0212 C.2     
   6 C6            -1.1613     2.0015     0.0207 C.2     
   7 O7             1.0766    -0.6424     0.0454 O.2     
   8 C8            -1.2119    -2.1903     0.0599 C.1     
   9 N9            -1.2168    -3.3262     0.0717 N.1     
  10 C10            1.2755     2.0327     0.0178 C.3     
  11 C11            1.7198     2.2708    -1.4268 C.3     
  12 C12            3.0474     3.0313    -1.4333 C.3     
  13 C13            4.1390     2.1571    -0.8129 C.3     
  14 C14            3.4292     3.3785    -2.8736 C.3     
  15 C15           -3.7114    -0.7391     0.0421 C.ar    
  16 C16           -4.5717    -0.6117     1.1361 C.ar    
  17 C17           -5.7815    -1.2684     1.1387 C.ar    
  18 C18           -6.1481    -2.0591     0.0535 C.ar    
  19 C19           -5.2933    -2.1884    -1.0373 C.ar    
  20 C20           -4.0851    -1.5288    -1.0487 C.ar    
  21 N21           -7.3720    -2.7222     0.0593 N.pl3   
  22 C22           -8.2148    -2.6940     1.2573 C.3     
  23 C23           -7.8173    -3.4484    -1.1326 C.3     
  24 H24           -3.2714     1.9482     0.0139 H       
  25 H25           -1.1318     3.0810     0.0090 H       
  26 H26            1.1477     2.9910     0.5212 H       
  27 H27            2.0325     1.4467     0.5389 H       
  28 H28            1.8476     1.3125    -1.9302 H       
  29 H29            0.9628     2.8569    -1.9479 H       
  30 H30            2.9435     3.9486    -0.8538 H       
  31 H31            4.2430     1.2398    -1.3924 H       
  32 H32            5.0848     2.6989    -0.8175 H       
  33 H33            3.8670     1.9097     0.2133 H       
  34 H34            2.6515     4.0013    -3.3156 H       
  35 H35            4.3750     3.9203    -2.8782 H       
  36 H36            3.5332     2.4612    -3.4531 H       
  37 H37           -4.2875     0.0012     1.9788 H       
  38 H38           -6.4468    -1.1703     1.9838 H       
  39 H39           -5.5804    -2.8029    -1.8777 H       
  40 H40           -3.4223    -1.6293    -1.8955 H       
  41 H41           -8.8862    -1.8367     1.2090 H       
  42 H42           -8.8005    -3.6116     1.3112 H       
  43 H43           -7.5847    -2.6126     2.1430 H       
  44 H44           -7.1116    -3.2792    -1.9459 H       
  45 H45           -7.8673    -4.5145    -0.9109 H       
  46 H46           -8.8042    -3.0920    -1.4277 H       
@<TRIPOS>BOND
   1    1    2 am
   2    1   10 1
   3    1    6 1
   4    2    3 1
   5    2    7 2
   6    3    4 2
   7    3    8 1
   8    4    5 1
   9    4   15 1
  10    5    6 2
  11    5   24 1
  12    6   25 1
  13    8    9 3
  14   10   11 1
  15   10   26 1
  16   10   27 1
  17   11   12 1
  18   11   28 1
  19   11   29 1
  20   12   13 1
  21   12   14 1
  22   12   30 1
  23   13   31 1
  24   13   32 1
  25   13   33 1
  26   14   34 1
  27   14   35 1
  28   14   36 1
  29   15   16 ar
  30   15   20 ar
  31   16   17 ar
  32   16   37 1
  33   17   18 ar
  34   17   38 1
  35   18   19 ar
  36   18   21 1
  37   19   20 ar
  38   19   39 1
  39   20   40 1
  40   21   22 1
  41   21   23 1
  42   22   41 1
  43   22   42 1
  44   22   43 1
  45   23   44 1
  46   23   45 1
  47   23   46 1

#	End of record

