#	Name: ASD03430711
#	Creating user name:	WinNT
#	Creation time:	15. 06. 2019 20:41

#	Modifying user name:	WinNT
#	Modification time:	15. 06. 2019 20:41

#	Program:	/corina/corina34_cracker 3.40 0067  02.08.2006

@<TRIPOS>MOLECULE
ASD03430711
  56   62    0    0    0
SMALL
NO_CHARGES


@<TRIPOS>ATOM
   1 C1            -0.0166     1.3733     0.0096 C.ar    
   2 C2             0.0021    -0.0041     0.0020 C.ar    
   3 C3             1.2045    -0.6790    -0.0018 C.ar    
   4 C4             2.4068     0.0235     0.0102 C.ar    
   5 C5             2.3791     1.4129     0.0054 C.ar    
   6 C6             1.1695     2.0976     0.0022 C.ar    
   7 O7             3.4728    -0.8261     0.0412 O.3     
   8 C8             1.5599    -2.1411    -0.0271 C.3     
   9 C9             3.0520    -2.1354    -0.3869 C.3     
  10 C10            0.4314    -3.8532     1.0172 C.ar    
  11 C11            1.3007    -2.8139     1.2878 C.ar    
  12 C12            0.7484    -2.9077    -1.0318 C.2     
  13 N13            0.1253    -3.8867    -0.3466 N.am    
  14 O14            0.6694    -2.6892    -2.2222 O.2     
  15 C15            1.7421    -2.5867     2.5959 C.ar    
  16 C16            1.2911    -3.4284     3.6443 C.ar    
  17 C17            0.4085    -4.4800     3.3429 C.ar    
  18 C18           -0.0050    -4.6802     2.0659 C.ar    
  19 C19           -0.7688    -4.8721    -0.9597 C.3     
  20 C20           -1.1520     2.3778     0.0373 C.3     
  21 C21           -0.4172     3.6801     0.4339 C.3     
  22 O22            0.9263     3.4377    -0.0172 O.3     
  23 C23           -2.1815    -4.3476    -0.9428 C.ar    
  24 C24           -2.6529    -3.6002    -2.0063 C.ar    
  25 C25           -3.9475    -3.1182    -1.9933 C.ar    
  26 C26           -4.7748    -3.3847    -0.9119 C.ar    
  27 C27           -4.2994    -4.1349     0.1539 C.ar    
  28 C28           -3.0058    -4.6193     0.1335 C.ar    
  29 C29            2.6297    -1.5362     2.9004 C.ar    
  30 C30            3.0140    -1.3727     4.2004 C.ar    
  31 C31            2.5298    -2.2341     5.1828 C.ar    
  32 N32            1.7057    -3.2124     4.8963 N.ar    
  33 O33           -6.0486    -2.9113    -0.8966 O.3     
  34 C34           -6.8433    -3.2246     0.2490 C.3     
  35 H35           -0.9262    -0.5560    -0.0006 H       
  36 H36            3.3066     1.9662     0.0043 H       
  37 H37            3.1913    -2.2544    -1.4614 H       
  38 H38            3.5852    -2.9118     0.1617 H       
  39 H39            0.0584    -5.1312     4.1302 H       
  40 H40           -0.6835    -5.4925     1.8511 H       
  41 H41           -0.4601    -5.0516    -1.9895 H       
  42 H42           -0.7209    -5.8051    -0.3981 H       
  43 H43           -1.6112     2.4738    -0.9466 H       
  44 H44           -1.8946     2.1056     0.7873 H       
  45 H45           -0.8484     4.5388    -0.0807 H       
  46 H46           -0.4418     3.8237     1.5142 H       
  47 H47           -2.0084    -3.3927    -2.8477 H       
  48 H48           -4.3151    -2.5342    -2.8240 H       
  49 H49           -4.9415    -4.3437     0.9968 H       
  50 H50           -2.6352    -5.2033     0.9629 H       
  51 H51            2.9960    -0.8777     2.1267 H       
  52 H52            3.6931    -0.5764     4.4670 H       
  53 H53            2.8420    -2.0923     6.2069 H       
  54 H54           -6.9318    -4.3067     0.3449 H       
  55 H55           -6.3690    -2.8182     1.1423 H       
  56 H56           -7.8352    -2.7877     0.1336 H       
@<TRIPOS>BOND
   1    1    2 ar
   2    1    6 ar
   3    1   20 1
   4    2    3 ar
   5    2   35 1
   6    3    4 ar
   7    3    8 1
   8    4    5 ar
   9    4    7 1
  10    5    6 ar
  11    5   36 1
  12    6   22 1
  13    7    9 1
  14    8    9 1
  15    8   11 1
  16    8   12 1
  17    9   37 1
  18    9   38 1
  19   10   11 ar
  20   10   13 1
  21   10   18 ar
  22   11   15 ar
  23   12   13 am
  24   12   14 2
  25   13   19 1
  26   15   16 ar
  27   15   29 ar
  28   16   17 ar
  29   16   32 ar
  30   17   18 ar
  31   17   39 1
  32   18   40 1
  33   19   23 1
  34   19   41 1
  35   19   42 1
  36   20   21 1
  37   20   43 1
  38   20   44 1
  39   21   22 1
  40   21   45 1
  41   21   46 1
  42   23   24 ar
  43   23   28 ar
  44   24   25 ar
  45   24   47 1
  46   25   26 ar
  47   25   48 1
  48   26   27 ar
  49   26   33 1
  50   27   28 ar
  51   27   49 1
  52   28   50 1
  53   29   30 ar
  54   29   51 1
  55   30   31 ar
  56   30   52 1
  57   31   32 ar
  58   31   53 1
  59   33   34 1
  60   34   54 1
  61   34   55 1
  62   34   56 1

#	End of record

