#	Name: ASD01148125
#	Creating user name:	WinNT
#	Creation time:	15. 06. 2019 19:02

#	Modifying user name:	WinNT
#	Modification time:	15. 06. 2019 19:02

#	Program:	/corina/corina34_cracker 3.40 0067  02.08.2006

@<TRIPOS>MOLECULE
ASD01148125
  41   42    0    0    0
SMALL
NO_CHARGES


@<TRIPOS>ATOM
   1 C1            -0.0166     1.3749     0.0096 C.ar    
   2 C2             0.0021    -0.0041     0.0020 C.ar    
   3 C3             1.1753     2.0867     0.0020 C.ar    
   4 C4             2.3892     1.4132    -0.0137 C.ar    
   5 C5             2.4142     0.0343    -0.0214 C.ar    
   6 C6             1.2192    -0.6830    -0.0133 C.ar    
   7 C7            -1.3322     2.1098     0.0198 C.3     
   8 C8            -2.1351     1.7356    -1.2277 C.3     
   9 C9            -2.1233     1.7221     1.2707 C.3     
  10 C10            3.6807     2.1895    -0.0228 C.3     
  11 C11            4.5020     1.8278     1.2163 C.3     
  12 C12            4.4767     1.8404    -1.2820 C.3     
  13 O13            1.1537     3.4452     0.0096 O.3     
  14 C14            1.2427    -2.1664    -0.0215 C.ar    
  15 C15            0.0486    -2.8844    -0.0135 C.ar    
  16 C16            0.0750    -4.2644    -0.0211 C.ar    
  17 C17            1.2850    -4.9358    -0.0368 C.ar    
  18 C18            2.4757    -4.2269    -0.0449 C.ar    
  19 C19            2.4592    -2.8461    -0.0431 C.ar    
  20 Cl20           3.9899    -5.0757    -0.0645 Cl      
  21 Cl21           1.3114    -6.6715    -0.0458 Cl      
  22 H22           -0.9255    -0.5573     0.0083 H       
  23 H23            3.3588    -0.4891    -0.0339 H       
  24 H24           -1.1482     3.1841     0.0248 H       
  25 H25           -2.3191     0.6613    -1.2326 H       
  26 H26           -3.0867     2.2672    -1.2203 H       
  27 H27           -1.5716     2.0119    -2.1188 H       
  28 H28           -3.0749     2.2536     1.2781 H       
  29 H29           -2.3073     0.6477     1.2658 H       
  30 H30           -1.5513     1.9886     2.1595 H       
  31 H31            3.4628     3.2575    -0.0152 H       
  32 H32            4.7200     0.7598     1.2087 H       
  33 H33            5.4362     2.3893     1.2097 H       
  34 H34            3.9350     2.0765     2.1134 H       
  35 H35            3.8916     2.0982    -2.1648 H       
  36 H36            5.4109     2.4020    -1.2886 H       
  37 H37            4.6947     0.7725    -1.2896 H       
  38 H38            1.1560     3.8337     0.8951 H       
  39 H39           -0.8965    -2.3618    -0.0009 H       
  40 H40           -0.8503    -4.8212    -0.0146 H       
  41 H41            3.3874    -2.2940    -0.0494 H       
@<TRIPOS>BOND
   1    1    2 ar
   2    1    3 ar
   3    1    7 1
   4    2    6 ar
   5    2   22 1
   6    3    4 ar
   7    3   13 1
   8    4    5 ar
   9    4   10 1
  10    5    6 ar
  11    5   23 1
  12    6   14 1
  13    7    8 1
  14    7    9 1
  15    7   24 1
  16    8   25 1
  17    8   26 1
  18    8   27 1
  19    9   28 1
  20    9   29 1
  21    9   30 1
  22   10   11 1
  23   10   12 1
  24   10   31 1
  25   11   32 1
  26   11   33 1
  27   11   34 1
  28   12   35 1
  29   12   36 1
  30   12   37 1
  31   13   38 1
  32   14   15 ar
  33   14   19 ar
  34   15   16 ar
  35   15   39 1
  36   16   17 ar
  37   16   40 1
  38   17   18 ar
  39   17   21 1
  40   18   19 ar
  41   18   20 1
  42   19   41 1

#	End of record

