#	Name: ASD01200273
#	Creating user name:	WinNT
#	Creation time:	15. 06. 2019 19:08

#	Modifying user name:	WinNT
#	Modification time:	15. 06. 2019 19:08

#	Program:	/corina/corina34_cracker 3.40 0067  02.08.2006

@<TRIPOS>MOLECULE
ASD01200273
  50   52    0    0    0
SMALL
NO_CHARGES


@<TRIPOS>ATOM
   1 C1             0.4415     1.5611     1.5250 C.2     
   2 C2             0.3210     0.1775     0.9400 C.3     
   3 O3             1.5328     2.0390     1.7262 O.2     
   4 O4            -0.6635     2.2647     1.8175 O.3     
   5 C5             2.3352    -1.1140     1.6863 C.ar    
   6 C6             1.6971    -0.3879     0.6997 C.ar    
   7 C7             2.3362    -0.1849    -0.5154 C.ar    
   8 C8             3.5992    -0.7216    -0.6950 C.ar    
   9 C9             4.1814    -1.4417     0.3416 C.ar    
  10 N10            3.5395    -1.6137     1.4864 N.ar    
  11 C11            5.9637    -2.1393    -1.0640 C.2     
  12 C12            7.3837    -2.6118    -1.2408 C.3     
  13 C13            8.3452    -1.5511    -0.7009 C.3     
  14 O14            5.2804    -1.8953    -2.0358 O.2     
  15 N15            5.4531    -1.9878     0.1741 N.am    
  16 C16            7.5756    -1.9110    -3.6470 C.2     
  17 N17            7.8831    -2.4807    -4.7802 N.2     
  18 C18            8.1627    -3.7744    -4.5633 C.2     
  19 C19            8.0233    -4.0157    -3.2458 C.2     
  20 N20            7.6508    -2.8339    -2.6640 N.pl3   
  21 C21            8.5624    -4.7816    -5.6106 C.3     
  22 F22            8.7118    -4.1379    -6.8437 F       
  23 F23            9.7744    -5.3777    -5.2459 F       
  24 F24            7.5721    -5.7643    -5.7145 F       
  25 C25            9.7783    -2.0834    -0.7622 C.3     
  26 C26           10.7679    -0.9823    -0.3425 C.3     
  27 C27           11.5118    -1.5094     0.9019 C.3     
  28 C28           11.3902    -3.0496     0.7931 C.3     
  29 C29            9.9554    -3.2411     0.2418 C.3     
  30 H30           -0.2195    -0.4651     1.6351 H       
  31 H31           -0.2210     0.2282    -0.0043 H       
  32 H32           -0.5359     3.1474     2.1910 H       
  33 H33            1.8437    -1.2708     2.6351 H       
  34 H34            1.8587     0.3789    -1.3032 H       
  35 H35            4.1251    -0.5832    -1.6281 H       
  36 H36            7.5271    -3.5440    -0.6944 H       
  37 H37            8.2668    -0.6480    -1.3061 H       
  38 H38            8.0875    -1.3195     0.3325 H       
  39 H39            5.9705    -2.2587     0.9485 H       
  40 H40            7.3096    -0.8725    -3.5164 H       
  41 H41            8.1756    -4.9601    -2.7446 H       
  42 H42           10.0064    -2.4254    -1.7717 H       
  43 H43           11.4768    -0.7906    -1.1479 H       
  44 H44           10.2271    -0.0688    -0.0951 H       
  45 H45           12.5586    -1.2067     0.8772 H       
  46 H46           11.0318    -1.1522     1.8131 H       
  47 H47           12.1280    -3.4471     0.0962 H       
  48 H48           11.4927    -3.5154     1.7732 H       
  49 H49            9.2241    -3.1636     1.0463 H       
  50 H50            9.8665    -4.2022    -0.2646 H       
@<TRIPOS>BOND
   1    1    2 1
   2    1    3 2
   3    1    4 1
   4    2    6 1
   5    2   30 1
   6    2   31 1
   7    4   32 1
   8    5    6 ar
   9    5   10 ar
  10    5   33 1
  11    6    7 ar
  12    7    8 ar
  13    7   34 1
  14    8    9 ar
  15    8   35 1
  16    9   10 ar
  17    9   15 1
  18   11   12 1
  19   11   14 2
  20   11   15 am
  21   12   13 1
  22   12   20 1
  23   12   36 1
  24   13   25 1
  25   13   37 1
  26   13   38 1
  27   15   39 1
  28   16   17 2
  29   16   20 1
  30   16   40 1
  31   17   18 1
  32   18   19 2
  33   18   21 1
  34   19   20 1
  35   19   41 1
  36   21   22 1
  37   21   23 1
  38   21   24 1
  39   25   26 1
  40   25   29 1
  41   25   42 1
  42   26   27 1
  43   26   43 1
  44   26   44 1
  45   27   28 1
  46   27   45 1
  47   27   46 1
  48   28   29 1
  49   28   47 1
  50   28   48 1
  51   29   49 1
  52   29   50 1

#	End of record

