#	Name: ASD03090348
#	Creating user name:	WinNT
#	Creation time:	15. 06. 2019 20:28

#	Modifying user name:	WinNT
#	Modification time:	15. 06. 2019 20:28

#	Program:	/corina/corina34_cracker 3.40 0067  02.08.2006

@<TRIPOS>MOLECULE
ASD03090348
  42   45    0    0    0
SMALL
NO_CHARGES


@<TRIPOS>ATOM
   1 N1             0.0287     1.3978     0.3283 N.ar    
   2 C2             0.1848     0.4272    -0.5517 C.ar    
   3 C3             1.3763    -0.2647    -0.6401 C.ar    
   4 C4             2.4260     0.0777     0.2214 C.ar    
   5 C5             2.2166     1.1125     1.1381 C.ar    
   6 C6             0.9919     1.7520     1.1583 C.ar    
   7 C7             3.7210    -0.6363     0.1635 C.2     
   8 N8             5.7293    -3.5189     0.0562 N.pl3   
   9 C9             4.8956    -4.6349     0.1920 C.ar    
  10 C10            5.2297    -5.8308    -0.4290 C.ar    
  11 C11            4.4044    -6.9348    -0.2939 C.ar    
  12 C12            3.2404    -6.8427     0.4652 C.ar    
  13 C13            2.9104    -5.6474     1.0834 C.ar    
  14 C14            3.7369    -4.5478     0.9526 C.ar    
  15 N15            3.8851    -1.9439     0.1447 N.2     
  16 C16            5.1859    -2.2333     0.0897 C.2     
  17 N17            5.8733    -1.1142     0.0726 N.2     
  18 N18            4.9438    -0.0624     0.1147 N.pl3   
  19 C19            5.2409     1.3722     0.1136 C.3     
  20 C20            5.1744     1.8978    -1.2972 C.2     
  21 N21            5.4139     3.2012    -1.5427 N.am    
  22 O22            4.5014    -8.2021    -0.7920 O.3     
  23 C23            3.6020    -8.9977     0.0024 C.3     
  24 O24            2.6080    -8.0536     0.4425 O.3     
  25 F25            3.0158   -10.0017    -0.7758 F       
  26 F26            4.2728    -9.5518     1.0980 F       
  27 O27            4.9054     1.1480    -2.2117 O.2     
  28 C28            5.3493     3.7122    -2.9142 C.3     
  29 Cl29           1.5701    -1.5404    -1.8015 Cl      
  30 Cl30           0.7166     3.0390     2.2902 Cl      
  31 H31           -0.6307     0.1702    -1.2115 H       
  32 H32            3.0001     1.4073     1.8204 H       
  33 H33            6.6847    -3.6386    -0.0611 H       
  34 H34            6.1326    -5.9001    -1.0175 H       
  35 H35            2.0077    -5.5763     1.6720 H       
  36 H36            3.4774    -3.6174     1.4357 H       
  37 H37            4.5103     1.8949     0.7309 H       
  38 H38            6.2405     1.5365     0.5158 H       
  39 H39            5.6290     3.8009    -0.8113 H       
  40 H40            6.0799     3.1894    -3.5315 H       
  41 H41            4.3497     3.5478    -3.3164 H       
  42 H42            5.5703     4.7796    -2.9150 H       
@<TRIPOS>BOND
   1    1    2 ar
   2    1    6 ar
   3    2    3 ar
   4    2   31 1
   5    3    4 ar
   6    3   29 1
   7    4    5 ar
   8    4    7 1
   9    5    6 ar
  10    5   32 1
  11    6   30 1
  12    7   15 2
  13    7   18 1
  14    8    9 1
  15    8   16 1
  16    8   33 1
  17    9   10 ar
  18    9   14 ar
  19   10   11 ar
  20   10   34 1
  21   11   12 ar
  22   11   22 1
  23   12   13 ar
  24   12   24 1
  25   13   14 ar
  26   13   35 1
  27   14   36 1
  28   15   16 1
  29   16   17 2
  30   17   18 1
  31   18   19 1
  32   19   20 1
  33   19   37 1
  34   19   38 1
  35   20   21 am
  36   20   27 2
  37   21   28 1
  38   21   39 1
  39   22   23 1
  40   23   24 1
  41   23   25 1
  42   23   26 1
  43   28   40 1
  44   28   41 1
  45   28   42 1

#	End of record

