#	Name: ASD02038595
#	Creating user name:	WinNT
#	Creation time:	15. 06. 2019 20:17

#	Modifying user name:	WinNT
#	Modification time:	15. 06. 2019 20:17

#	Program:	/corina/corina34_cracker 3.40 0067  02.08.2006

@<TRIPOS>MOLECULE
ASD02038595
  52   54    0    0    0
SMALL
NO_CHARGES


@<TRIPOS>ATOM
   1 C1            -0.0167     1.3805     0.0096 C.ar    
   2 C2             0.0021    -0.0041     0.0020 C.ar    
   3 C3            -1.1851    -0.7122     0.0100 C.ar    
   4 C4            -2.3965    -0.0336     0.0257 C.ar    
   5 C5            -2.4117     1.3555     0.0333 C.ar    
   6 C6            -1.2229     2.0583     0.0306 C.ar    
   7 N7            -3.5982    -0.7467     0.0333 N.pl3   
   8 C8            -4.8755    -0.0295     0.0499 C.3     
   9 C9            -6.0264    -1.0376     0.0553 C.3     
  10 N10           -7.3037    -0.3204     0.0719 N.am    
  11 C11           -8.4627    -1.0082     0.0792 C.2     
  12 C12           -9.7767    -0.2704     0.0962 C.3     
  13 O13          -10.8516    -1.2119     0.1014 O.3     
  14 C14          -12.1142    -0.7073     0.1165 C.ar    
  15 Cl15           1.4756     2.2675     0.0001 Cl      
  16 Cl16           1.5173    -0.8510    -0.0182 Cl      
  17 C17          -13.2040    -1.5653     0.1223 C.ar    
  18 C18          -12.3123     0.6654     0.1320 C.ar    
  19 C19          -13.5949     1.1780     0.1474 C.ar    
  20 C20          -14.6847     0.3201     0.1470 C.ar    
  21 C21          -14.4865    -1.0527     0.1376 C.ar    
  22 O22           -8.4483    -2.2209     0.0722 O.2     
  23 O23          -15.9473     0.8247     0.1626 O.3     
  24 C24          -18.3362     0.6210     0.1796 C.ar    
  25 C25          -18.9485     0.9723    -1.0090 C.ar    
  26 C26          -20.1565     1.6440    -0.9920 C.ar    
  27 C27          -20.7525     1.9641     0.2135 C.ar    
  28 C28          -20.1407     1.6120     1.4020 C.ar    
  29 C29          -18.9320     0.9415     1.3851 C.ar    
  30 C30          -17.0223    -0.1168     0.1611 C.3     
  31 H31           -1.1705    -1.7921     0.0037 H       
  32 H32           -3.3526     1.8855     0.0451 H       
  33 H33           -1.2347     3.1383     0.0368 H       
  34 H34           -3.5866    -1.7166     0.0277 H       
  35 H35           -4.9320     0.5913     0.9440 H       
  36 H36           -4.9494     0.6015    -0.8359 H       
  37 H37           -5.9699    -1.6584    -0.8388 H       
  38 H38           -5.9525    -1.6686     0.9411 H       
  39 H39           -7.3153     0.6495     0.0775 H       
  40 H40           -9.8332     0.3505     0.9904 H       
  41 H41           -9.8505     0.3606    -0.7895 H       
  42 H42          -13.0497    -2.6342     0.1143 H       
  43 H43          -11.4637     1.3334     0.1324 H       
  44 H44          -13.7491     2.2469     0.1602 H       
  45 H45          -15.3351    -1.7207     0.1369 H       
  46 H46          -18.4828     0.7222    -1.9508 H       
  47 H47          -20.6345     1.9191    -1.9206 H       
  48 H48          -21.6960     2.4895     0.2267 H       
  49 H49          -20.6060     1.8627     2.3438 H       
  50 H50          -18.4536     0.6672     2.3137 H       
  51 H51          -16.9643    -0.7331    -0.7361 H       
  52 H52          -16.9499    -0.7522     1.0437 H       
@<TRIPOS>BOND
   1    1    2 ar
   2    1   15 1
   3    1    6 ar
   4    2    3 ar
   5    2   16 1
   6    3    4 ar
   7    3   31 1
   8    4    5 ar
   9    4    7 1
  10    5    6 ar
  11    5   32 1
  12    6   33 1
  13    7    8 1
  14    7   34 1
  15    8    9 1
  16    8   35 1
  17    8   36 1
  18    9   10 1
  19    9   37 1
  20    9   38 1
  21   10   11 am
  22   10   39 1
  23   11   12 1
  24   11   22 2
  25   12   13 1
  26   12   40 1
  27   12   41 1
  28   13   14 1
  29   14   17 ar
  30   14   18 ar
  31   17   21 ar
  32   17   42 1
  33   18   19 ar
  34   18   43 1
  35   19   20 ar
  36   19   44 1
  37   20   21 ar
  38   20   23 1
  39   21   45 1
  40   23   30 1
  41   24   25 ar
  42   24   29 ar
  43   24   30 1
  44   25   26 ar
  45   25   46 1
  46   26   27 ar
  47   26   47 1
  48   27   28 ar
  49   27   48 1
  50   28   29 ar
  51   28   49 1
  52   29   50 1
  53   30   51 1
  54   30   52 1

#	End of record

