#	Name: ASD01230213
#	Creating user name:	WinNT
#	Creation time:	15. 06. 2019 19:12

#	Modifying user name:	WinNT
#	Modification time:	15. 06. 2019 19:12

#	Program:	/corina/corina34_cracker 3.40 0067  02.08.2006

@<TRIPOS>MOLECULE
ASD01230213
  43   46    0    0    0
SMALL
NO_CHARGES


@<TRIPOS>ATOM
   1 S1             1.2249     0.8963     1.3286 S.o2    
   2 N2             0.8938    -0.6766     0.9359 N.am    
   3 C3             1.7503    -1.4325     0.2922 C.2     
   4 N4             2.9898    -1.0444    -0.1294 N.pl3   
   5 C5             3.5167     0.3146     0.0207 C.3     
   6 C6             3.0452     0.9316     1.3408 C.3     
   7 C7             1.3092    -2.8157     0.0131 C.2     
   8 C8             2.1729    -3.6803    -0.6234 C.2     
   9 C9             3.4475    -3.2225    -0.9870 C.2     
  10 C10            3.8186    -1.9537    -0.7401 C.2     
  11 C11           -0.0433    -3.2663     0.4129 C.ar    
  12 C12           -0.1915    -4.2626     1.3785 C.ar    
  13 C13           -1.4525    -4.6798     1.7483 C.ar    
  14 C14           -2.5743    -4.1099     1.1608 C.ar    
  15 C15           -2.4307    -3.1182     0.1995 C.ar    
  16 C16           -1.1729    -2.6916    -0.1708 C.ar    
  17 O17           -3.8156    -4.5242     1.5271 O.3     
  18 C18           -4.3064    -4.0919     2.7157 C.ar    
  19 C19           -5.5242    -4.5780     3.1751 C.ar    
  20 C20           -6.0134    -4.1293     4.3892 C.ar    
  21 C21           -5.2635    -3.2056     5.1046 C.ar    
  22 C22           -4.0614    -2.7656     4.5874 C.ar    
  23 N23           -3.6184    -3.2157     3.4288 N.ar    
  24 C24           -6.3021    -5.5802     2.3617 C.3     
  25 F25           -7.4837    -5.9101     3.0343 F       
  26 F26           -6.6140    -5.0275     1.1149 F       
  27 F27           -5.5309    -6.7333     2.1808 F       
  28 Cl28           4.5586    -4.3056    -1.7656 Cl      
  29 O29            0.7131     1.6520     0.2395 O.2     
  30 O30            0.7085     1.0529     2.6431 O.2     
  31 H31            4.6061     0.2812     0.0082 H       
  32 H32            3.1669     0.9294    -0.8086 H       
  33 H33            3.3963     1.9607     1.4161 H       
  34 H34            3.4225     0.3471     2.1799 H       
  35 H35            1.8729    -4.6952    -0.8386 H       
  36 H36            4.8085    -1.6369    -1.0337 H       
  37 H37            0.6805    -4.7068     1.8354 H       
  38 H38           -1.5680    -5.4509     2.4956 H       
  39 H39           -3.3054    -2.6772    -0.2553 H       
  40 H40           -1.0621    -1.9168    -0.9150 H       
  41 H41           -6.9572    -4.4893     4.7714 H       
  42 H42           -5.6168    -2.8349     6.0554 H       
  43 H43           -3.4743    -2.0471     5.1400 H       
@<TRIPOS>BOND
   1    1    2 am
   2    1    6 1
   3    1   29 2
   4    1   30 2
   5    2    3 2
   6    3    4 1
   7    3    7 1
   8    4    5 1
   9    4   10 1
  10    5    6 1
  11    5   31 1
  12    5   32 1
  13    6   33 1
  14    6   34 1
  15    7    8 2
  16    7   11 1
  17    8    9 1
  18    8   35 1
  19    9   10 2
  20    9   28 1
  21   10   36 1
  22   11   12 ar
  23   11   16 ar
  24   12   13 ar
  25   12   37 1
  26   13   14 ar
  27   13   38 1
  28   14   15 ar
  29   14   17 1
  30   15   16 ar
  31   15   39 1
  32   16   40 1
  33   17   18 1
  34   18   19 ar
  35   18   23 ar
  36   19   20 ar
  37   19   24 1
  38   20   21 ar
  39   20   41 1
  40   21   22 ar
  41   21   42 1
  42   22   23 ar
  43   22   43 1
  44   24   25 1
  45   24   26 1
  46   24   27 1

#	End of record

