#	Name: ASD00450068
#	Creating user name:	WinNT
#	Creation time:	15. 06. 2019 18:36

#	Modifying user name:	WinNT
#	Modification time:	15. 06. 2019 18:36

#	Program:	/corina/corina34_cracker 3.40 0067  02.08.2006

@<TRIPOS>MOLECULE
ASD00450068
  47   49    0    0    0
SMALL
NO_CHARGES


@<TRIPOS>ATOM
   1 C1            -0.9954     2.1545     0.7396 C.ar    
   2 C2            -0.8687     0.7573     0.7102 C.ar    
   3 C3             0.3214     0.1662     1.0978 C.ar    
   4 C4             1.3868     0.9485     1.5142 C.ar    
   5 C5             1.2737     2.3281     1.5479 C.ar    
   6 C6             0.0904     2.9403     1.1633 C.ar    
   7 C7            -2.2532     2.7925     0.3241 C.2     
   8 O8            -3.1276     3.0035     1.1431 O.2     
   9 N9            -2.4374     3.1435    -0.9640 N.am    
  10 N10           -0.0216     4.3247     1.1966 N.pl3   
  11 C11            0.7880     5.0713     2.0594 C.ar    
  12 C12            1.0330     6.4151     1.7969 C.ar    
  13 C13            1.3440     4.4741     3.1829 C.ar    
  14 C14            2.1429     5.2137     4.0331 C.ar    
  15 C15            2.3901     6.5485     3.7671 C.ar    
  16 C16            1.8337     7.1495     2.6522 C.ar    
  17 F17            2.5437     0.3610     1.8903 F       
  18 F18            0.4899     7.0017     0.7078 F       
  19 I19            3.6027     7.6648     5.0605 I       
  20 O20           -1.9096    -0.0118     0.3036 O.3     
  21 C21           -1.7082    -1.4265     0.2996 C.3     
  22 C22           -2.9821    -2.1217    -0.1849 C.3     
  23 N23           -2.8381    -3.5829    -0.0511 N.3     
  24 C24           -3.8717    -4.0740     0.8850 C.3     
  25 C25           -4.9955    -3.0094     0.8274 C.3     
  26 C26           -4.1780    -1.6977     0.6934 C.3     
  27 C27           -1.4919    -3.9385     0.4174 C.3     
  28 H28            0.4199    -0.9091     1.0760 H       
  29 H29            2.1096     2.9290     1.8743 H       
  30 H30           -1.7401     2.9752    -1.6170 H       
  31 H31           -3.2672     3.5644    -1.2381 H       
  32 H32           -0.6610     4.7735     0.6217 H       
  33 H33            1.1516     3.4322     3.3920 H       
  34 H34            2.5750     4.7491     4.9071 H       
  35 H35            2.0249     8.1930     2.4497 H       
  36 H36           -0.8828    -1.6741    -0.3678 H       
  37 H37           -1.4724    -1.7628     1.3093 H       
  38 H38           -3.1730    -1.8617    -1.2261 H       
  39 H39           -4.2497    -5.0429     0.5586 H       
  40 H40           -3.4669    -4.1442     1.8946 H       
  41 H41           -5.6339    -3.1623    -0.0428 H       
  42 H42           -5.5827    -3.0115     1.7457 H       
  43 H43           -3.8365    -1.3550     1.6701 H       
  44 H44           -4.7663    -0.9260     0.1970 H       
  45 H45           -1.3052    -3.4638     1.3806 H       
  46 H46           -1.4189    -5.0207     0.5254 H       
  47 H47           -0.7528    -3.5949    -0.3064 H       
@<TRIPOS>BOND
   1    1    2 ar
   2    1    6 ar
   3    1    7 1
   4    2    3 ar
   5    2   20 1
   6    3    4 ar
   7    3   28 1
   8    4    5 ar
   9    4   17 1
  10    5    6 ar
  11    5   29 1
  12    6   10 1
  13    7    8 2
  14    7    9 am
  15    9   30 1
  16    9   31 1
  17   10   11 1
  18   10   32 1
  19   11   13 ar
  20   11   12 ar
  21   12   16 ar
  22   12   18 1
  23   13   14 ar
  24   13   33 1
  25   14   15 ar
  26   14   34 1
  27   15   16 ar
  28   15   19 1
  29   16   35 1
  30   20   21 1
  31   21   22 1
  32   21   36 1
  33   21   37 1
  34   22   23 1
  35   22   26 1
  36   22   38 1
  37   23   24 1
  38   23   27 1
  39   24   25 1
  40   24   39 1
  41   24   40 1
  42   25   26 1
  43   25   41 1
  44   25   42 1
  45   26   43 1
  46   26   44 1
  47   27   45 1
  48   27   46 1
  49   27   47 1

#	End of record

