#	Name: ASD03240947
#	Creating user name:	WinNT
#	Creation time:	15. 06. 2019 20:35

#	Modifying user name:	WinNT
#	Modification time:	15. 06. 2019 20:35

#	Program:	/corina/corina34_cracker 3.40 0067  02.08.2006

@<TRIPOS>MOLECULE
ASD03240947
  79   85    0    0    0
SMALL
NO_CHARGES


@<TRIPOS>ATOM
   1 N1            -0.0163     1.3529     0.0148 N.am    
   2 C2             0.0546     0.0129    -0.1119 C.2     
   3 O3             1.1358    -0.5298    -0.2335 O.2     
   4 N4            -1.0729    -0.7253    -0.1037 N.am    
   5 N5             2.4918     4.7288     0.2691 N.3     
   6 C6             2.5937     3.9235    -0.9546 C.3     
   7 C7             1.3417     3.0558    -1.1015 C.3     
   8 C8             1.2117     2.1445     0.1221 C.3     
   9 C9             1.1563     3.0060     1.3867 C.3     
  10 C10            2.4137     3.8752     1.4615 C.3     
  11 C11            3.6109     5.6749     0.3714 C.3     
  12 C12            3.3487     6.6434     1.4958 C.ar    
  13 C13            3.7834     6.3474     2.7754 C.ar    
  14 C14            3.5468     7.2303     3.8090 C.ar    
  15 C15            2.8678     8.4234     3.5615 C.ar    
  16 C16            2.4321     8.7161     2.2691 C.ar    
  17 C17            2.6794     7.8275     1.2430 C.ar    
  18 N18            1.8579     9.2275     8.1621 N.pl3   
  19 C19            1.6163    10.0900     9.1970 C.2     
  20 N20            1.6252    11.4243     9.0296 N.2     
  21 C21            1.8650    11.9762     7.8682 C.2     
  22 C22            2.1319    11.1181     6.7158 C.ar    
  23 C23            2.3942    11.6490     5.4483 C.ar    
  24 C24            2.6378    10.7595     4.4072 C.ar    
  25 C25            2.6102     9.3752     4.6664 C.ar    
  26 N26            2.3576     8.9093     5.8802 N.ar    
  27 C27            2.1216     9.7189     6.8980 C.ar    
  28 C28            1.3884     9.3101    10.3227 C.2     
  29 C29            1.4975     7.9781     9.9434 C.2     
  30 N30            1.7703     7.9225     8.6618 N.2     
  31 C31            2.9214    11.2619     3.0414 C.ar    
  32 C32            2.0822    12.2085     2.4559 C.ar    
  33 C33            2.3514    12.6729     1.1845 C.ar    
  34 C34            3.4516    12.2009     0.4914 C.ar    
  35 C35            4.2876    11.2611     1.0672 C.ar    
  36 C36            4.0315    10.7938     2.3402 C.ar    
  37 C37            1.3246     6.7905    10.8548 C.3     
  38 N38           -1.2330     1.9733     0.0375 N.3     
  39 C39           -2.0063     1.5734     1.2221 C.3     
  40 C40           -3.3342     2.3352     1.2392 C.3     
  41 O41           -4.0394     2.0812     0.0212 O.3     
  42 C42           -3.3155     2.4593    -1.1529 C.3     
  43 C43           -1.9875     1.6988    -1.1941 C.3     
  44 H44           -1.9386    -0.2883    -0.0808 H       
  45 H45           -1.0187    -1.6937    -0.1208 H       
  46 H46            2.6813     4.5836    -1.8175 H       
  47 H47            3.4742     3.2837    -0.8961 H       
  48 H48            0.4620     3.6954    -1.1740 H       
  49 H49            1.4246     2.4467    -2.0017 H       
  50 H50            2.0721     1.4771     0.1723 H       
  51 H51            0.2737     3.6449     1.3534 H       
  52 H52            1.1068     2.3614     2.2643 H       
  53 H53            3.2950     3.2356     1.5087 H       
  54 H54            2.3706     4.5003     2.3534 H       
  55 H55            4.5323     5.1276     0.5707 H       
  56 H56            3.7096     6.2236    -0.5652 H       
  57 H57            4.3087     5.4232     2.9658 H       
  58 H58            3.8863     6.9980     4.8076 H       
  59 H59            1.9055     9.6381     2.0714 H       
  60 H60            2.3461     8.0549     0.2412 H       
  61 H61            1.8655    13.0510     7.7623 H       
  62 H62            2.4075    12.7163     5.2835 H       
  63 H63            1.1665     9.6736    11.3151 H       
  64 H64            1.2228    12.5775     2.9960 H       
  65 H65            1.7018    13.4061     0.7297 H       
  66 H66            3.6584    12.5671    -0.5033 H       
  67 H67            5.1446    10.8956     0.5211 H       
  68 H68            4.6874    10.0635     2.7906 H       
  69 H69            0.2787     6.4837    10.8575 H       
  70 H70            1.9439     5.9668    10.4997 H       
  71 H71            1.6263     7.0619    11.8665 H       
  72 H72           -2.2020     0.5018     1.1844 H       
  73 H73           -1.4399     1.8091     2.1231 H       
  74 H74           -3.9353     2.0001     2.0844 H       
  75 H75           -3.1396     3.4038     1.3310 H       
  76 H76           -3.9031     2.2140    -2.0375 H       
  77 H77           -3.1204     3.5315    -1.1306 H       
  78 H78           -1.4073     2.0260    -2.0569 H       
  79 H79           -2.1828     0.6292    -1.2705 H       
@<TRIPOS>BOND
   1    1    2 am
   2    1    8 1
   3    1   38 1
   4    2    3 2
   5    2    4 am
   6    4   44 1
   7    4   45 1
   8    5    6 1
   9    5   10 1
  10    5   11 1
  11    6    7 1
  12    6   46 1
  13    6   47 1
  14    7    8 1
  15    7   48 1
  16    7   49 1
  17    8    9 1
  18    8   50 1
  19    9   10 1
  20    9   51 1
  21    9   52 1
  22   10   53 1
  23   10   54 1
  24   11   12 1
  25   11   55 1
  26   11   56 1
  27   12   13 ar
  28   12   17 ar
  29   13   14 ar
  30   13   57 1
  31   14   15 ar
  32   14   58 1
  33   15   16 ar
  34   15   25 1
  35   16   17 ar
  36   16   59 1
  37   17   60 1
  38   18   19 1
  39   18   27 1
  40   18   30 1
  41   19   20 1
  42   19   28 2
  43   20   21 2
  44   21   22 1
  45   21   61 1
  46   22   23 ar
  47   22   27 ar
  48   23   24 ar
  49   23   62 1
  50   24   25 ar
  51   24   31 1
  52   25   26 ar
  53   26   27 ar
  54   28   29 1
  55   28   63 1
  56   29   30 2
  57   29   37 1
  58   31   32 ar
  59   31   36 ar
  60   32   33 ar
  61   32   64 1
  62   33   34 ar
  63   33   65 1
  64   34   35 ar
  65   34   66 1
  66   35   36 ar
  67   35   67 1
  68   36   68 1
  69   37   69 1
  70   37   70 1
  71   37   71 1
  72   38   39 1
  73   38   43 1
  74   39   40 1
  75   39   72 1
  76   39   73 1
  77   40   41 1
  78   40   74 1
  79   40   75 1
  80   41   42 1
  81   42   43 1
  82   42   76 1
  83   42   77 1
  84   43   78 1
  85   43   79 1

#	End of record

