#	Name: ASD03091191
#	Creating user name:	WinNT
#	Creation time:	15. 06. 2019 20:30

#	Modifying user name:	WinNT
#	Modification time:	15. 06. 2019 20:30

#	Program:	/corina/corina34_cracker 3.40 0067  02.08.2006

@<TRIPOS>MOLECULE
ASD03091191
  57   60    0    0    0
SMALL
NO_CHARGES


@<TRIPOS>ATOM
   1 C1            -0.0948     1.3917    -0.0148 C.2     
   2 C2            -0.0334    -0.1139     0.0030 C.3     
   3 O3             0.9298     2.0402    -0.0385 O.2     
   4 N4            -1.2885     2.0176    -0.0098 N.am    
   5 C5            -1.3482     3.4813    -0.0271 C.3     
   6 C6            -1.2585     3.9784    -1.4713 C.3     
   7 C7            -2.6687     3.9451     0.5909 C.3     
   8 N8             3.2671    -1.1110     1.2288 N.2     
   9 C9             2.0283    -0.7298     1.1600 C.2     
  10 N10            1.3664    -0.5458    -0.0131 N.am    
  11 C11            1.9891    -0.7585    -1.1958 C.2     
  12 C12            3.3939    -1.1914    -1.1528 C.ar    
  13 C13            4.1245    -1.4375    -2.3130 C.ar    
  14 C14            5.4442    -1.8435    -2.2097 C.ar    
  15 C15            6.0370    -2.0047    -0.9575 C.ar    
  16 C16            5.3320    -1.7673     0.1878 C.ar    
  17 C17            3.9993    -1.3563     0.1127 C.ar    
  18 O18            1.4089    -0.5982    -2.2539 O.2     
  19 C19            1.2852    -0.4787     2.4469 C.3     
  20 N20            7.2695    -1.5692    -6.0732 N.3     
  21 C21            6.0740    -2.3910    -5.8303 C.3     
  22 C22            5.3574    -1.9370    -4.5681 C.3     
  23 N23            6.1866    -2.0937    -3.3672 N.3     
  24 C24            7.3667    -1.2204    -3.4350 C.3     
  25 C25            8.5559    -1.9784    -4.0057 C.3     
  26 C26            8.4539    -2.2225    -5.4978 C.3     
  27 C27            7.1684    -0.1704    -5.7160 C.3     
  28 C28            7.0151     0.0316    -4.2175 C.3     
  29 H29           -0.5183    -0.4867     0.9052 H       
  30 H30           -0.5456    -0.5088    -0.8744 H       
  31 H31           -2.1080     1.4989     0.0051 H       
  32 H32           -0.5157     3.8857     0.5487 H       
  33 H33           -1.3029     5.0674    -1.4841 H       
  34 H34           -0.3177     3.6479    -1.9115 H       
  35 H35           -2.0909     3.5740    -2.0471 H       
  36 H36           -2.7326     3.5910     1.6198 H       
  37 H37           -2.7132     5.0342     0.5780 H       
  38 H38           -3.5012     3.5407     0.0151 H       
  39 H39            3.6662    -1.3133    -3.2830 H       
  40 H40            7.0673    -2.3220    -0.8927 H       
  41 H41            5.8045    -1.8971     1.1502 H       
  42 H42            1.9473    -0.6687     3.2917 H       
  43 H43            0.9480     0.5574     2.4755 H       
  44 H44            0.4231    -1.1431     2.5042 H       
  45 H45            5.3972    -2.3002    -6.6799 H       
  46 H46            6.3716    -3.4336    -5.7190 H       
  47 H47            5.0855    -0.8869    -4.6749 H       
  48 H48            4.4474    -2.5250    -4.4480 H       
  49 H49            7.6171    -0.9126    -2.4198 H       
  50 H50            9.4627    -1.4074    -3.8063 H       
  51 H51            8.6332    -2.9403    -3.4988 H       
  52 H52            8.3918    -3.2955    -5.6795 H       
  53 H53            9.3475    -1.8316    -5.9843 H       
  54 H54            8.0674     0.3462    -6.0522 H       
  55 H55            6.3046     0.2619    -6.2212 H       
  56 H56            5.9828     0.3066    -4.0008 H       
  57 H57            7.6701     0.8431    -3.9005 H       
@<TRIPOS>BOND
   1    1    2 1
   2    1    3 2
   3    1    4 am
   4    2   10 1
   5    2   29 1
   6    2   30 1
   7    4    5 1
   8    4   31 1
   9    5    6 1
  10    5    7 1
  11    5   32 1
  12    6   33 1
  13    6   34 1
  14    6   35 1
  15    7   36 1
  16    7   37 1
  17    7   38 1
  18    8    9 2
  19    8   17 1
  20    9   10 1
  21    9   19 1
  22   10   11 am
  23   11   12 1
  24   11   18 2
  25   12   13 ar
  26   12   17 ar
  27   13   14 ar
  28   13   39 1
  29   14   15 ar
  30   14   23 1
  31   15   16 ar
  32   15   40 1
  33   16   17 ar
  34   16   41 1
  35   19   42 1
  36   19   43 1
  37   19   44 1
  38   20   21 1
  39   20   26 1
  40   20   27 1
  41   21   22 1
  42   21   45 1
  43   21   46 1
  44   22   23 1
  45   22   47 1
  46   22   48 1
  47   23   24 1
  48   24   25 1
  49   24   28 1
  50   24   49 1
  51   25   26 1
  52   25   50 1
  53   25   51 1
  54   26   52 1
  55   26   53 1
  56   27   28 1
  57   27   54 1
  58   27   55 1
  59   28   56 1
  60   28   57 1

#	End of record

