#	Name: ASD02408412
#	Creating user name:	WinNT
#	Creation time:	15. 06. 2019 20:21

#	Modifying user name:	WinNT
#	Modification time:	15. 06. 2019 20:21

#	Program:	/corina/corina34_cracker 3.40 0067  02.08.2006

@<TRIPOS>MOLECULE
ASD02408412
  46   49    0    0    0
SMALL
NO_CHARGES


@<TRIPOS>ATOM
   1 N1             0.0266     1.3631     0.4761 N.am    
   2 C2             0.0492     0.0073     0.5262 C.2     
   3 N3             1.1368    -0.6902     0.3743 N.2     
   4 C4             2.3261    -0.1094     0.1544 C.2     
   5 C5             2.4021     1.2909     0.0858 C.2     
   6 C6             1.1684     2.0572     0.2595 C.2     
   7 N7             3.5904    -0.5764    -0.0359 N.pl3   
   8 N8             4.4407     0.5212    -0.2204 N.2     
   9 C9             3.7488     1.6254    -0.1502 C.2     
  10 C10           -1.2456    -0.7244     0.7696 C.3     
  11 C11           -0.9842    -2.2318     0.7862 C.3     
  12 C12            3.9751    -1.9231    -0.0451 C.ar    
  13 C13            3.2742    -2.8416    -0.8152 C.ar    
  14 C14            3.6560    -4.1690    -0.8222 C.ar    
  15 C15            4.7349    -4.5835    -0.0633 C.ar    
  16 C16            5.4349    -3.6712     0.7052 C.ar    
  17 C17            5.0620    -2.3416     0.7116 C.ar    
  18 O18            1.1683     3.2745     0.2104 O.2     
  19 C19           -2.2729    -2.9863     1.1573 C.3     
  20 C20           -2.6085    -3.9004    -0.0392 C.3     
  21 C21           -1.2495    -4.1052    -0.7536 C.3     
  22 C22           -0.5815    -2.7139    -0.6228 C.3     
  23 C23            5.8255    -1.3481     1.5488 C.3     
  24 C24            5.0602    -1.0796     2.8462 C.3     
  25 H25           -0.8120     1.8368     0.5920 H       
  26 H26            4.1425     2.6256    -0.2554 H       
  27 H27           -1.6617    -0.4173     1.7291 H       
  28 H28           -1.9522    -0.4870    -0.0257 H       
  29 H29           -0.1955    -2.4659     1.5012 H       
  30 H30            2.4311    -2.5185    -1.4079 H       
  31 H31            3.1110    -4.8840    -1.4207 H       
  32 H32            5.0315    -5.6220    -0.0704 H       
  33 H33            6.2767    -3.9982     1.2974 H       
  34 H34           -2.1094    -3.5871     2.0519 H       
  35 H35           -3.0846    -2.2785     1.3255 H       
  36 H36           -3.0040    -4.8546     0.3089 H       
  37 H37           -3.3196    -3.4116    -0.7051 H       
  38 H38           -0.6575    -4.8671    -0.2465 H       
  39 H39           -1.3993    -4.3649    -1.8015 H       
  40 H40           -0.9654    -2.0335    -1.3829 H       
  41 H41            0.5021    -2.8021    -0.7006 H       
  42 H42            6.8099    -1.7523     1.7847 H       
  43 H43            5.9385    -0.4165     0.9943 H       
  44 H44            4.9471    -2.0112     3.4008 H       
  45 H45            5.6124    -0.3610     3.4518 H       
  46 H46            4.0757    -0.6755     2.6103 H       
@<TRIPOS>BOND
   1    1    2 1
   2    1    6 am
   3    1   25 1
   4    2    3 2
   5    2   10 1
   6    3    4 1
   7    4    5 2
   8    4    7 1
   9    5    6 1
  10    5    9 1
  11    6   18 2
  12    7    8 1
  13    7   12 1
  14    8    9 2
  15    9   26 1
  16   10   11 1
  17   10   27 1
  18   10   28 1
  19   11   19 1
  20   11   22 1
  21   11   29 1
  22   12   13 ar
  23   12   17 ar
  24   13   14 ar
  25   13   30 1
  26   14   15 ar
  27   14   31 1
  28   15   16 ar
  29   15   32 1
  30   16   17 ar
  31   16   33 1
  32   17   23 1
  33   19   20 1
  34   19   34 1
  35   19   35 1
  36   20   21 1
  37   20   36 1
  38   20   37 1
  39   21   22 1
  40   21   38 1
  41   21   39 1
  42   22   40 1
  43   22   41 1
  44   23   24 1
  45   23   42 1
  46   23   43 1
  47   24   44 1
  48   24   45 1
  49   24   46 1

#	End of record

