#	Name: ASD03090567
#	Creating user name:	WinNT
#	Creation time:	15. 06. 2019 20:29

#	Modifying user name:	WinNT
#	Modification time:	15. 06. 2019 20:29

#	Program:	/corina/corina34_cracker 3.40 0067  02.08.2006

@<TRIPOS>MOLECULE
ASD03090567
  38   39    0    0    0
SMALL
NO_CHARGES


@<TRIPOS>ATOM
   1 N1            -0.0162     1.3436     0.0094 N.am    
   2 C2             0.0194     0.1476     0.6299 C.2     
   3 O3             1.0730    -0.2853     1.0556 O.2     
   4 N4            -1.1127    -0.5684     0.7786 N.am    
   5 S5            -2.4529    -2.8714     1.7013 S.3     
   6 C6            -1.0758    -1.8040     1.4197 C.2     
   7 N7            -0.0216    -2.3774     1.9176 N.2     
   8 N8            -0.1691    -3.5030     2.4666 N.2     
   9 C9            -1.3639    -4.0103     2.4960 C.2     
  10 O10           -1.7128    -5.2028     3.0405 O.3     
  11 C11           -0.6683    -5.9737     3.6378 C.3     
  12 C12           -1.2492    -7.2755     4.1935 C.3     
  13 C13            1.1452     2.1274    -0.0708 C.ar    
  14 C14            1.0451     3.5107    -0.1993 C.ar    
  15 C15            2.1927     4.2819    -0.2784 C.ar    
  16 C16            3.4393     3.6761    -0.2294 C.ar    
  17 C17            3.5378     2.2979    -0.1013 C.ar    
  18 C18            2.3934     1.5259    -0.0165 C.ar    
  19 O19            4.5662     4.4334    -0.3075 O.3     
  20 C20            4.3910     5.8456    -0.4387 C.3     
  21 O21           -0.1780     4.1033    -0.2476 O.3     
  22 C22           -0.2050     5.5259    -0.3803 C.3     
  23 Cl23           5.0996     1.5423    -0.0409 Cl      
  24 H24           -0.8436     1.6607    -0.3852 H       
  25 H25           -1.9531    -0.2231     0.4390 H       
  26 H26            0.0877    -6.2044     2.8873 H       
  27 H27           -0.2139    -5.4036     4.4481 H       
  28 H28           -0.4525    -7.8635     4.6492 H       
  29 H29           -2.0052    -7.0448     4.9441 H       
  30 H30           -1.7037    -7.8456     3.3833 H       
  31 H31            2.1169     5.3546    -0.3784 H       
  32 H32            2.4719     0.4538     0.0877 H       
  33 H33            3.8310     6.0592    -1.3491 H       
  34 H34            3.8421     6.2252     0.4231 H       
  35 H35            5.3664     6.3295    -0.4902 H       
  36 H36           -1.2393     5.8688    -0.4064 H       
  37 H37            0.3070     5.9796     0.4683 H       
  38 H38            0.2968     5.8142    -1.3039 H       
@<TRIPOS>BOND
   1    1    2 am
   2    1   13 1
   3    1   24 1
   4    2    3 2
   5    2    4 am
   6    4    6 1
   7    4   25 1
   8    5    6 1
   9    5    9 1
  10    6    7 2
  11    7    8 1
  12    8    9 2
  13    9   10 1
  14   10   11 1
  15   11   12 1
  16   11   26 1
  17   11   27 1
  18   12   28 1
  19   12   29 1
  20   12   30 1
  21   13   14 ar
  22   13   18 ar
  23   14   15 ar
  24   14   21 1
  25   15   16 ar
  26   15   31 1
  27   16   17 ar
  28   16   19 1
  29   17   18 ar
  30   17   23 1
  31   18   32 1
  32   19   20 1
  33   20   33 1
  34   20   34 1
  35   20   35 1
  36   21   22 1
  37   22   36 1
  38   22   37 1
  39   22   38 1

#	End of record

