#	Name: ASD01914293
#	Creating user name:	WinNT
#	Creation time:	15. 06. 2019 20:03

#	Modifying user name:	WinNT
#	Modification time:	15. 06. 2019 20:03

#	Program:	/corina/corina34_cracker 3.40 0067  02.08.2006

@<TRIPOS>MOLECULE
ASD01914293
  30   31    0    0    0
SMALL
NO_CHARGES


@<TRIPOS>ATOM
   1 N1            -0.0169     1.3965     0.0097 N.2     
   2 N2             0.0021    -0.0041     0.0020 N.pl3   
   3 C3             1.2186     1.8290     0.0002 C.2     
   4 C4             2.0753     0.7286    -0.0138 C.2     
   5 C5             1.3063    -0.4011    -0.0126 C.2     
   6 C6             1.7978    -1.7960    -0.0240 C.ar    
   7 C7             1.6442     3.2747     0.0039 C.3     
   8 C8             0.8851    -2.8508    -0.0211 C.ar    
   9 C9             0.9828     4.0040    -1.1672 C.3     
  10 C10            1.4149     5.4718    -1.1634 C.3     
  11 C11            1.3591    -4.1504    -0.0323 C.ar    
  12 C12            2.7337    -4.3550    -0.0462 C.ar    
  13 C13            3.5831    -3.2605    -0.0484 C.ar    
  14 N14            3.1043    -2.0335    -0.0425 N.ar    
  15 C15            5.0744    -3.4767    -0.0629 C.3     
  16 F16            3.2367    -5.6088    -0.0571 F       
  17 H17           -0.7734    -0.5868     0.0063 H       
  18 H18            3.1547     0.7631    -0.0240 H       
  19 H19            1.3395     3.7408     0.9410 H       
  20 H20            2.7279     3.3346    -0.0961 H       
  21 H21           -0.1771    -2.6555    -0.0098 H       
  22 H22            1.2875     3.5380    -2.1042 H       
  23 H23           -0.1010     3.9441    -1.0671 H       
  24 H24            1.1102     5.9378    -0.2264 H       
  25 H25            2.4986     5.5317    -1.2634 H       
  26 H26            0.9437     5.9914    -1.9977 H       
  27 H27            0.6763    -4.9872    -0.0300 H       
  28 H28            5.4247    -3.5236    -1.0940 H       
  29 H29            5.5663    -2.6506     0.4506 H       
  30 H30            5.3109    -4.4121     0.4441 H       
@<TRIPOS>BOND
   1    1    2 1
   2    1    3 2
   3    2    5 1
   4    2   17 1
   5    3    4 1
   6    3    7 1
   7    4    5 2
   8    4   18 1
   9    5    6 1
  10    6    8 ar
  11    6   14 ar
  12    7    9 1
  13    7   19 1
  14    7   20 1
  15    8   11 ar
  16    8   21 1
  17    9   10 1
  18    9   22 1
  19    9   23 1
  20   10   24 1
  21   10   25 1
  22   10   26 1
  23   11   12 ar
  24   11   27 1
  25   12   13 ar
  26   12   16 1
  27   13   14 ar
  28   13   15 1
  29   15   28 1
  30   15   29 1
  31   15   30 1

#	End of record

