#	Name: ASD01941078
#	Creating user name:	WinNT
#	Creation time:	15. 06. 2019 20:13

#	Modifying user name:	WinNT
#	Modification time:	15. 06. 2019 20:13

#	Program:	/corina/corina34_cracker 3.40 0067  02.08.2006

@<TRIPOS>MOLECULE
ASD01941078
  27   28    0    0    0
SMALL
NO_CHARGES


@<TRIPOS>ATOM
   1 C1             0.0155     1.3528     0.1734 C.ar    
   2 C2            -0.2160     0.8892     1.4629 C.ar    
   3 C3            -1.3504     0.1453     1.7378 C.ar    
   4 C4            -2.2627    -0.1420     0.7308 C.ar    
   5 C5            -2.0483     0.3097    -0.5516 C.ar    
   6 C6            -0.9096     1.0672    -0.8445 C.ar    
   7 F7            -1.5712    -0.3043     2.9925 F       
   8 F8             0.6664     1.1642     2.4481 F       
   9 C9            -0.6762     1.5528    -2.2141 C.2     
  10 O10            0.2604     2.2920    -2.4454 O.2     
  11 O11           -1.5011     1.1777    -3.2118 O.3     
  12 N12            1.1537     2.1003    -0.1066 N.pl3   
  13 C13            2.3599     1.4550    -0.3987 C.ar    
  14 C14            3.5254     2.1964    -0.5621 C.ar    
  15 C15            4.7157     1.5545    -0.8509 C.ar    
  16 C16            4.7470     0.1773    -0.9771 C.ar    
  17 C17            3.5890    -0.5619    -0.8149 C.ar    
  18 C18            2.3976     0.0723    -0.5207 C.ar    
  19 F19            3.4945     3.5414    -0.4393 F       
  20 I20            6.5523    -0.7912    -1.4154 I       
  21 H21           -3.1449    -0.7232     0.9551 H       
  22 H22           -2.7612     0.0828    -1.3305 H       
  23 H23           -1.3076     1.5223    -4.0944 H       
  24 H24            1.1115     3.0694    -0.0993 H       
  25 H25            5.6214     2.1289    -0.9784 H       
  26 H26            3.6173    -1.6369    -0.9141 H       
  27 H27            1.4944    -0.5061    -0.3940 H       
@<TRIPOS>BOND
   1    1    2 ar
   2    1   12 1
   3    1    6 ar
   4    2    3 ar
   5    2    8 1
   6    3    4 ar
   7    3    7 1
   8    4    5 ar
   9    4   21 1
  10    5    6 ar
  11    5   22 1
  12    6    9 1
  13    9   10 2
  14    9   11 1
  15   11   23 1
  16   12   13 1
  17   12   24 1
  18   13   14 ar
  19   13   18 ar
  20   14   15 ar
  21   14   19 1
  22   15   16 ar
  23   15   25 1
  24   16   17 ar
  25   16   20 1
  26   17   18 ar
  27   17   26 1
  28   18   27 1

#	End of record

