#	Name: ASD01812725
#	Creating user name:	WinNT
#	Creation time:	15. 06. 2019 19:29

#	Modifying user name:	WinNT
#	Modification time:	15. 06. 2019 19:29

#	Program:	/corina/corina34_cracker 3.40 0067  02.08.2006

@<TRIPOS>MOLECULE
ASD01812725
  59   63    0    0    0
SMALL
NO_CHARGES


@<TRIPOS>ATOM
   1 C1            -0.0167     1.3765     0.0233 C.ar    
   2 C2             0.0018    -0.0040     0.0178 C.ar    
   3 C3             1.2084    -0.6873    -0.0064 C.ar    
   4 C4             2.3936     0.0073    -0.0256 C.ar    
   5 C5             2.3937     1.4055    -0.0208 C.ar    
   6 C6             1.1718     2.0915     0.0041 C.ar    
   7 C7             3.8405    -0.4180    -0.0538 C.3     
   8 N8             4.6306     0.8185    -0.0642 N.am    
   9 C9             3.7910     1.8681    -0.0451 C.2     
  10 C10            6.0933     0.8963    -0.0905 C.3     
  11 C11            6.5690     0.9275    -1.5201 C.ar    
  12 C12            6.7230     2.1394    -2.1688 C.ar    
  13 C13            7.1588     2.1737    -3.4780 C.ar    
  14 C14            7.4438     0.9849    -4.1460 C.ar    
  15 C15            7.2870    -0.2328    -3.4879 C.ar    
  16 C16            6.8556    -0.2555    -2.1770 C.ar    
  17 O17            1.1515     3.4479     0.0091 O.3     
  18 O18            4.1366     3.0338    -0.0471 O.2     
  19 C19            7.3307     1.6976    -6.5830 C.2     
  20 C20            7.9125     1.0157    -5.5544 C.2     
  21 C21            9.0386     0.3462    -6.0717 C.2     
  22 N22            9.1217     0.6176    -7.3472 N.2     
  23 N23            8.0610     1.4640    -7.6920 N.pl3   
  24 C24            9.9832    -0.5301    -5.2902 C.3     
  25 C25            7.7911     2.0025    -9.0275 C.3     
  26 C26           -0.1276     4.0779    -0.0868 C.3     
  27 C27            0.0357     5.4819    -0.6770 C.3     
  28 C28           -1.3276     6.1779    -0.7027 C.3     
  29 O29           -1.8630     6.2230     0.6214 O.3     
  30 C30           -2.0816     4.9376     1.2064 C.3     
  31 C31           -0.7486     4.1918     1.3089 C.3     
  32 O32            0.5471     5.3839    -2.0078 O.3     
  33 H33           -0.9603     1.9017     0.0381 H       
  34 H34           -0.9274    -0.5542     0.0328 H       
  35 H35            1.2163    -1.7672    -0.0099 H       
  36 H36            4.0758    -1.0055     0.8337 H       
  37 H37            4.0427    -0.9994    -0.9533 H       
  38 H38            6.4182     1.8027     0.4204 H       
  39 H39            6.5126     0.0252     0.4130 H       
  40 H40            6.5014     3.0604    -1.6501 H       
  41 H41            7.2784     3.1204    -3.9838 H       
  42 H42            7.5067    -1.1573    -4.0012 H       
  43 H43            6.7377    -1.1988    -1.6645 H       
  44 H44            6.4433     2.3100    -6.5211 H       
  45 H45            9.6269    -1.5599    -5.3136 H       
  46 H46           10.9773    -0.4793    -5.7343 H       
  47 H47           10.0286    -0.1848    -4.2573 H       
  48 H48            8.3080     2.9547    -9.1466 H       
  49 H49            8.1459     1.2996    -9.7812 H       
  50 H50            6.7184     2.1538    -9.1482 H       
  51 H51           -0.7786     3.4855    -0.7297 H       
  52 H52            0.7271     6.0576    -0.0616 H       
  53 H53           -1.2103     7.1930    -1.0822 H       
  54 H54           -2.0065     5.6236    -1.3507 H       
  55 H55           -2.5075     5.0592     2.2024 H       
  56 H56           -2.7704     4.3671     0.5834 H       
  57 H57           -0.9194     3.1944     1.7140 H       
  58 H58           -0.0731     4.7414     1.9644 H       
  59 H59            0.6757     6.2375    -2.4436 H       
@<TRIPOS>BOND
   1    1    2 ar
   2    1    6 ar
   3    1   33 1
   4    2    3 ar
   5    2   34 1
   6    3    4 ar
   7    3   35 1
   8    4    7 1
   9    4    5 ar
  10    5    6 ar
  11    5    9 1
  12    6   17 1
  13    7    8 1
  14    7   36 1
  15    7   37 1
  16    8    9 am
  17    8   10 1
  18    9   18 2
  19   10   11 1
  20   10   38 1
  21   10   39 1
  22   11   12 ar
  23   11   16 ar
  24   12   13 ar
  25   12   40 1
  26   13   14 ar
  27   13   41 1
  28   14   15 ar
  29   14   20 1
  30   15   16 ar
  31   15   42 1
  32   16   43 1
  33   17   26 1
  34   19   20 2
  35   19   23 1
  36   19   44 1
  37   20   21 1
  38   21   22 2
  39   21   24 1
  40   22   23 1
  41   23   25 1
  42   24   45 1
  43   24   46 1
  44   24   47 1
  45   25   48 1
  46   25   49 1
  47   25   50 1
  48   26   27 1
  49   26   31 1
  50   26   51 1
  51   27   28 1
  52   27   32 1
  53   27   52 1
  54   28   29 1
  55   28   53 1
  56   28   54 1
  57   29   30 1
  58   30   31 1
  59   30   55 1
  60   30   56 1
  61   31   57 1
  62   31   58 1
  63   32   59 1

#	End of record

