#	Name: ASD01420201
#	Creating user name:	WinNT
#	Creation time:	15. 06. 2019 19:20

#	Modifying user name:	WinNT
#	Modification time:	15. 06. 2019 19:20

#	Program:	/corina/corina34_cracker 3.40 0067  02.08.2006

@<TRIPOS>MOLECULE
ASD01420201
  43   45    0    0    0
SMALL
NO_CHARGES


@<TRIPOS>ATOM
   1 C1            -0.0179     1.4673     0.0101 C.2     
   2 C2             0.0021    -0.0041     0.0020 C.ar    
   3 C3             1.2254    -0.6922    -0.0134 C.ar    
   4 C4             1.2354    -2.0762    -0.0204 C.ar    
   5 C5             0.0399    -2.7795    -0.0127 C.ar    
   6 C6            -1.1749    -2.0990     0.0020 C.ar    
   7 C7            -1.1982    -0.7230     0.0155 C.ar    
   8 O8             1.0263     2.0892     0.0035 O.2     
   9 O9            -1.1942     2.1252     0.0193 O.3     
  10 Cl10          -2.6651    -2.9895     0.0109 Cl      
  11 O11            0.0542    -4.1367    -0.0202 O.3     
  12 C12            1.3342    -4.7719    -0.0358 C.3     
  13 C13            1.1525    -6.2679    -0.0421 C.ar    
  14 C14            1.0577    -6.9476    -1.2420 C.ar    
  15 C15            0.8910    -8.3198    -1.2478 C.ar    
  16 C16            0.8196    -9.0124    -0.0536 C.ar    
  17 C17            0.9152    -8.3328     1.1464 C.ar    
  18 C18            1.0863    -6.9611     1.1521 C.ar    
  19 O19            2.3940    -0.0031    -0.0217 O.3     
  20 C20            3.5995    -0.7703    -0.0373 C.3     
  21 C21            4.7861     0.1587    -0.0447 C.ar    
  22 C22            5.3422     0.5792     1.1489 C.ar    
  23 C23            6.4305     1.4314     1.1421 C.ar    
  24 C24            6.9631     1.8627    -0.0584 C.ar    
  25 C25            6.4076     1.4416    -1.2521 C.ar    
  26 C26            5.3219     0.5859    -1.2453 C.ar    
  27 H27            2.1748    -2.6090    -0.0322 H       
  28 H28           -2.1421    -0.1985     0.0314 H       
  29 H29           -1.1567     3.0915     0.0243 H       
  30 H30            1.8796    -4.4684    -0.9294 H       
  31 H31            1.8966    -4.4779     0.8505 H       
  32 H32            1.1136    -6.4065    -2.1750 H       
  33 H33            0.8163    -8.8508    -2.1853 H       
  34 H34            0.6886   -10.0844    -0.0581 H       
  35 H35            0.8591    -8.8739     2.0794 H       
  36 H36            1.1647    -6.4306     2.0895 H       
  37 H37            3.6390    -1.4030     0.8494 H       
  38 H38            3.6213    -1.3947    -0.9305 H       
  39 H39            4.9261     0.2422     2.0869 H       
  40 H40            6.8646     1.7604     2.0747 H       
  41 H41            7.8130     2.5291    -0.0637 H       
  42 H42            6.8235     1.7788    -2.1900 H       
  43 H43            4.8902     0.2539    -2.1779 H       
@<TRIPOS>BOND
   1    1    2 1
   2    1    8 2
   3    1    9 1
   4    2    3 ar
   5    2    7 ar
   6    3    4 ar
   7    3   19 1
   8    4    5 ar
   9    4   27 1
  10    5    6 ar
  11    5   11 1
  12    6    7 ar
  13    6   10 1
  14    7   28 1
  15    9   29 1
  16   11   12 1
  17   12   13 1
  18   12   30 1
  19   12   31 1
  20   13   14 ar
  21   13   18 ar
  22   14   15 ar
  23   14   32 1
  24   15   16 ar
  25   15   33 1
  26   16   17 ar
  27   16   34 1
  28   17   18 ar
  29   17   35 1
  30   18   36 1
  31   19   20 1
  32   20   21 1
  33   20   37 1
  34   20   38 1
  35   21   22 ar
  36   21   26 ar
  37   22   23 ar
  38   22   39 1
  39   23   24 ar
  40   23   40 1
  41   24   25 ar
  42   24   41 1
  43   25   26 ar
  44   25   42 1
  45   26   43 1

#	End of record

