#	Name: ASD00844739
#	Creating user name:	WinNT
#	Creation time:	15. 06. 2019 18:50

#	Modifying user name:	WinNT
#	Modification time:	15. 06. 2019 18:50

#	Program:	/corina/corina34_cracker 3.40 0067  02.08.2006

@<TRIPOS>MOLECULE
ASD00844739
  96  101    0    0    0
SMALL
NO_CHARGES


@<TRIPOS>ATOM
   1 C1             0.7169     1.2151    -0.4478 C.ar    
   2 C2             0.9692    -0.1269    -0.6912 C.ar    
   3 C3             0.8623    -1.0488     0.3402 C.ar    
   4 C4             0.5051    -0.6283     1.6065 C.ar    
   5 C5             0.2536     0.7102     1.8465 C.ar    
   6 C6             0.3599     1.6307     0.8206 C.ar    
   7 C7             1.1353    -2.5077     0.0791 C.3     
   8 C8             0.8226    -3.3343     1.3082 C.2     
   9 C9             0.3200    -2.9984    -1.1190 C.3     
  10 C10           -1.1398    -2.7038    -0.8877 C.2     
  11 N11           -2.0629    -3.1400    -1.7675 N.am    
  12 O12           -1.4838    -2.0742     0.0901 O.2     
  13 C13           -3.4753    -2.7638    -1.6188 C.3     
  14 C14           -4.3268    -4.0373    -1.6137 C.3     
  15 C15           -4.0231    -4.8543    -2.8717 C.3     
  16 C16           -2.5474    -5.2599    -2.8746 C.3     
  17 C17           -1.6749    -3.9957    -2.8971 C.3     
  18 C18           -4.8969    -6.1100    -2.8873 C.3     
  19 C19           -6.3738    -5.7058    -2.8861 C.3     
  20 C20           -7.2420    -6.9636    -2.9633 C.3     
  21 N21           -6.9206    -7.7075    -4.1879 N.3     
  22 C22           -5.5195    -8.1471    -4.1899 C.3     
  23 C23           -4.5998    -6.9246    -4.1494 C.3     
  24 C24           -7.8302    -8.8472    -4.3657 C.3     
  25 O25           -0.2583    -3.4419     1.8477 O.2     
  26 N26            1.9664    -3.9270     1.6888 N.am    
  27 C27            2.6117    -2.7377    -0.1509 C.ar    
  28 C28            3.0343    -3.6004     0.8576 C.ar    
  29 C29            3.4892    -2.2732    -1.0976 C.ar    
  30 C30            4.8313    -2.6678    -1.0559 C.ar    
  31 C31            5.2632    -3.5348    -0.0449 C.ar    
  32 C32            4.3714    -3.9956     0.8998 C.ar    
  33 F33            6.5567    -3.9216     0.0041 F       
  34 C34            1.7737    -6.5698     2.4323 C.ar    
  35 C35            0.5192    -6.9036     1.9435 C.ar    
  36 C36            2.7750    -7.5211     2.4692 C.ar    
  37 C37            2.5276    -8.8046     2.0191 C.ar    
  38 C38            1.2778    -9.1399     1.5313 C.ar    
  39 C39            0.2733    -8.1926     1.4927 C.ar    
  40 H40            1.0870   -10.1432     1.1802 H       
  41 O41           -0.4675    -5.9698     1.9066 O.3     
  42 C42           -1.7340    -6.3843     1.3906 C.3     
  43 C43           -7.5464    -9.5215    -5.7094 C.3     
  44 C44           -7.6136    -9.8539    -3.2341 C.3     
  45 O45            1.3201    -0.5382    -1.9381 O.3     
  46 C46            1.3472     0.4549    -2.9652 C.3     
  47 C47            1.8397    -0.1742    -4.2700 C.3     
  48 F48            3.0900    -0.7657    -4.0597 F       
  49 F49            0.9280    -1.1480    -4.6915 F       
  50 S50            2.0921    -4.9321     2.9989 S.o2    
  51 O51            3.4558    -4.9034     3.3973 O.2     
  52 O52            1.0209    -4.5931     3.8689 O.2     
  53 C53            5.7552    -2.1890    -2.0396 C.1     
  54 N54            6.4882    -1.8092    -2.8200 N.1     
  55 H55            0.8037     1.9352    -1.2480 H       
  56 H56            0.4218    -1.3454     2.4097 H       
  57 H57           -0.0262     1.0369     2.8372 H       
  58 H58            0.1629     2.6755     1.0106 H       
  59 H59            0.6555    -2.4865    -2.0209 H       
  60 H60            0.4594    -4.0729    -1.2378 H       
  61 H61           -3.6138    -2.2280    -0.6798 H       
  62 H62           -3.7739    -2.1280    -2.4522 H       
  63 H63           -4.0906    -4.6294    -0.7296 H       
  64 H64           -5.3831    -3.7686    -1.6007 H       
  65 H65           -4.2361    -4.2529    -3.7555 H       
  66 H66           -2.3280    -5.8405    -1.9785 H       
  67 H67           -2.3372    -5.8614    -3.7589 H       
  68 H68           -1.8278    -3.4628    -3.8355 H       
  69 H69           -0.6256    -4.2742    -2.7994 H       
  70 H70           -4.6837    -6.7132    -2.0048 H       
  71 H71           -6.6016    -5.1620    -1.9693 H       
  72 H72           -6.5776    -5.0695    -3.7474 H       
  73 H73           -7.0478    -7.5928    -2.0947 H       
  74 H74           -8.2940    -6.6785    -2.9771 H       
  75 H75           -5.3333    -8.7707    -3.3155 H       
  76 H76           -5.3204    -8.7215    -5.0945 H       
  77 H77           -4.7757    -6.3075    -5.0305 H       
  78 H78           -3.5602    -7.2516    -4.1350 H       
  79 H79           -8.8617    -8.4953    -4.3464 H       
  80 H80            3.1452    -1.6051    -1.8733 H       
  81 H81            4.7099    -4.6643     1.6773 H       
  82 H82            3.7519    -7.2617     2.8497 H       
  83 H83            3.3118    -9.5466     2.0481 H       
  84 H84           -0.7028    -8.4552     1.1124 H       
  85 H85           -2.4293    -5.5453     1.4172 H       
  86 H86           -1.6137    -6.7240     0.3619 H       
  87 H87           -2.1250    -7.1997     1.9992 H       
  88 H88           -6.5150    -9.8734    -5.7287 H       
  89 H89           -8.2213   -10.3672    -5.8413 H       
  90 H90           -7.7008    -8.8043    -6.5156 H       
  91 H91           -8.2885   -10.6996    -3.3659 H       
  92 H92           -6.5821   -10.2058    -3.2533 H       
  93 H93           -7.8158    -9.3735    -2.2767 H       
  94 H94            0.3436     0.8546    -3.1107 H       
  95 H95            2.0205     1.2609    -2.6736 H       
  96 H96            1.9269     0.5973    -5.0351 H       
@<TRIPOS>BOND
   1    1    2 ar
   2    1    6 ar
   3    1   55 1
   4    2    3 ar
   5    2   45 1
   6    3    4 ar
   7    3    7 1
   8    4    5 ar
   9    4   56 1
  10    5    6 ar
  11    5   57 1
  12    6   58 1
  13    7    8 1
  14    7    9 1
  15    7   27 1
  16    8   25 2
  17    8   26 am
  18    9   10 1
  19    9   59 1
  20    9   60 1
  21   10   11 am
  22   10   12 2
  23   11   13 1
  24   11   17 1
  25   13   14 1
  26   13   61 1
  27   13   62 1
  28   14   15 1
  29   14   63 1
  30   14   64 1
  31   15   16 1
  32   15   18 1
  33   15   65 1
  34   16   17 1
  35   16   66 1
  36   16   67 1
  37   17   68 1
  38   17   69 1
  39   18   19 1
  40   18   23 1
  41   18   70 1
  42   19   20 1
  43   19   71 1
  44   19   72 1
  45   20   21 1
  46   20   73 1
  47   20   74 1
  48   21   22 1
  49   21   24 1
  50   22   23 1
  51   22   75 1
  52   22   76 1
  53   23   77 1
  54   23   78 1
  55   24   43 1
  56   24   44 1
  57   24   79 1
  58   26   50 am
  59   26   28 1
  60   27   28 ar
  61   27   29 ar
  62   28   32 ar
  63   29   30 ar
  64   29   80 1
  65   30   31 ar
  66   30   53 1
  67   31   32 ar
  68   31   33 1
  69   32   81 1
  70   34   35 ar
  71   34   36 ar
  72   34   50 1
  73   35   41 1
  74   35   39 ar
  75   36   37 ar
  76   36   82 1
  77   37   38 ar
  78   37   83 1
  79   38   39 ar
  80   38   40 1
  81   39   84 1
  82   41   42 1
  83   42   85 1
  84   42   86 1
  85   42   87 1
  86   43   88 1
  87   43   89 1
  88   43   90 1
  89   44   91 1
  90   44   92 1
  91   44   93 1
  92   45   46 1
  93   46   47 1
  94   46   94 1
  95   46   95 1
  96   47   48 1
  97   47   49 1
  98   47   96 1
  99   50   51 2
 100   50   52 2
 101   53   54 3

#	End of record

