#	Name: ASD01418013
#	Creating user name:	WinNT
#	Creation time:	15. 06. 2019 19:20

#	Modifying user name:	WinNT
#	Modification time:	15. 06. 2019 19:20

#	Program:	/corina/corina34_cracker 3.40 0067  02.08.2006

@<TRIPOS>MOLECULE
ASD01418013
  40   42    0    0    0
SMALL
NO_CHARGES


@<TRIPOS>ATOM
   1 C1            -0.0166     1.3717     0.0096 C.2     
   2 C2             0.0021    -0.0041     0.0020 C.2     
   3 C3             1.2626    -0.5543    -0.0130 C.2     
   4 C4             2.2805     0.3504    -0.0178 C.2     
   5 S5             1.6315     1.9840    -0.0029 S.3     
   6 C6            -1.1810     2.1696     0.0197 C.2     
   7 O7            -2.2792     1.6440     0.0222 O.2     
   8 O8            -1.0769     3.5158     0.0265 O.3     
   9 N9            -1.1574    -0.7744     0.0097 N.am    
  10 S10           -1.1887    -2.2155     0.8249 S.o2    
  11 O11           -2.5028    -2.7343     0.6725 O.2     
  12 O12           -0.0224    -2.9250     0.4305 O.2     
  13 C13           -0.9936    -1.8502     2.5376 C.ar    
  14 C14           -2.1051    -1.6156     3.3253 C.ar    
  15 C15           -1.9520    -1.3290     4.6689 C.ar    
  16 C16           -0.6874    -1.2775     5.2249 C.ar    
  17 C17            0.4240    -1.5130     4.4374 C.ar    
  18 C18            0.2707    -1.8038     3.0947 C.ar    
  19 C19           -0.5205    -0.9640     6.6895 C.3     
  20 C20            3.7182     0.0093    -0.0334 C.ar    
  21 C21            4.6787     1.0225    -0.0371 C.ar    
  22 C22            6.0189     0.6985    -0.0512 C.ar    
  23 C23            6.4132    -0.6302    -0.0621 C.ar    
  24 C24            5.4640    -1.6401    -0.0584 C.ar    
  25 C25            4.1210    -1.3274    -0.0386 C.ar    
  26 F26            7.7277    -0.9421    -0.0767 F       
  27 H27            1.4320    -1.6209    -0.0200 H       
  28 H28           -1.9273     3.9761     0.0332 H       
  29 H29           -1.9470    -0.4671    -0.4625 H       
  30 H30           -3.0930    -1.6559     2.8908 H       
  31 H31           -2.8203    -1.1450     5.2841 H       
  32 H32            1.4120    -1.4724     4.8718 H       
  33 H33            1.1388    -1.9915     2.4803 H       
  34 H34           -0.5365    -1.8905     7.2634 H       
  35 H35            0.4310    -0.4560     6.8461 H       
  36 H36           -1.3353    -0.3189     7.0181 H       
  37 H37            4.3725     2.0582    -0.0294 H       
  38 H38            6.7628     1.4815    -0.0541 H       
  39 H39            5.7767    -2.6738    -0.0669 H       
  40 H40            3.3822    -2.1151    -0.0312 H       
@<TRIPOS>BOND
   1    1    2 2
   2    1    5 1
   3    1    6 1
   4    2    3 1
   5    2    9 1
   6    3    4 2
   7    3   27 1
   8    4    5 1
   9    4   20 1
  10    6    7 2
  11    6    8 1
  12    8   28 1
  13    9   10 am
  14    9   29 1
  15   10   11 2
  16   10   12 2
  17   10   13 1
  18   13   14 ar
  19   13   18 ar
  20   14   15 ar
  21   14   30 1
  22   15   16 ar
  23   15   31 1
  24   16   17 ar
  25   16   19 1
  26   17   18 ar
  27   17   32 1
  28   18   33 1
  29   19   34 1
  30   19   35 1
  31   19   36 1
  32   20   21 ar
  33   20   25 ar
  34   21   22 ar
  35   21   37 1
  36   22   23 ar
  37   22   38 1
  38   23   24 ar
  39   23   26 1
  40   24   25 ar
  41   24   39 1
  42   25   40 1

#	End of record

