#	Name: ASD02030788
#	Creating user name:	WinNT
#	Creation time:	15. 06. 2019 20:16

#	Modifying user name:	WinNT
#	Modification time:	15. 06. 2019 20:16

#	Program:	/corina/corina34_cracker 3.40 0067  02.08.2006

@<TRIPOS>MOLECULE
ASD02030788
  77   80    0    0    0
SMALL
NO_CHARGES


@<TRIPOS>ATOM
   1 H1            -0.4315     0.0271    -0.2920 H       
   2 C2            -0.2101     1.0942    -0.2735 C.3     
   3 C3            -0.6535     1.7575    -1.6014 C.3     
   4 C4             0.6415     2.2709    -2.2884 C.3     
   5 C5             1.7282     1.3754    -1.6837 C.3     
   6 H6             1.6912     0.3809    -2.1283 H       
   7 C7             3.1394     1.9315    -1.7168 C.3     
   8 H8             3.1713     2.8868    -1.1929 H       
   9 C9             3.6125     2.0952    -3.1620 C.3     
  10 C10            5.0548     2.6061    -3.1714 C.3     
  11 C11            5.9577     1.6024    -2.4519 C.3     
  12 H12            5.9117     0.6410    -2.9635 H       
  13 C13            7.3994     2.1140    -2.4611 C.3     
  14 C14            8.3019     1.1086    -1.7430 C.3     
  15 C15            8.2337    -0.2412    -2.4602 C.3     
  16 O16            9.6489     1.5857    -1.7526 O.3     
  17 C17            7.8296     0.9425    -0.2972 C.3     
  18 C18            6.3881     0.4303    -0.2875 C.3     
  19 C19            5.4840     1.4337    -1.0066 C.3     
  20 C20            5.5461     2.7831    -0.2881 C.3     
  21 C21            4.0449     0.9166    -1.0019 C.3     
  22 H22            4.0090    -0.0292    -1.5424 H       
  23 C23            3.5843     0.6660     0.4299 C.3     
  24 C24            2.1100     0.2300     0.4756 C.3     
  25 C25            1.2962     1.3202    -0.1934 C.3     
  26 C26            1.5825     2.6647     0.4784 C.3     
  27 C27           -0.9098     1.7596     0.9133 C.3     
  28 H28           -0.6283     2.8117     0.9579 H       
  29 C29           -0.4889     1.0636     2.2092 C.3     
  30 C30           -2.4258     1.6442     0.7416 C.3     
  31 C31           -3.1261     2.4163     1.8616 C.3     
  32 C32           -4.6421     2.3009     1.6899 C.3     
  33 C33           -5.3424     3.0729     2.8099 C.3     
  34 H34           -4.9834     4.1021     2.8213 H       
  35 C35           -6.8533     3.0625     2.5690 C.3     
  36 O36           -5.0561     2.4545     4.0659 O.3     
  37 H37           -1.1496     1.0249    -2.2381 H       
  38 H38           -1.3246     2.5917    -1.3970 H       
  39 H39            0.5855     2.1339    -3.3683 H       
  40 H40            0.8212     3.3169    -2.0400 H       
  41 H41            3.5647     1.1326    -3.6712 H       
  42 H42            2.9703     2.8105    -3.6758 H       
  43 H43            5.3915     2.7241    -4.2014 H       
  44 H44            5.1026     3.5682    -2.6614 H       
  45 H45            7.7359     2.2336    -3.4910 H       
  46 H46            7.4471     3.0753    -1.9494 H       
  47 H47            8.5695    -0.1226    -3.4904 H       
  48 H48            8.8766    -0.9574    -1.9486 H       
  49 H49            7.2063    -0.6052    -2.4526 H       
  50 H50           10.2778     0.9969    -1.3134 H       
  51 H51            8.4728     0.2273     0.2153 H       
  52 H52            7.8768     1.9045     0.2132 H       
  53 H53            6.3410    -0.5317    -0.7979 H       
  54 H54            6.0518     0.3116     0.7425 H       
  55 H55            4.9016     3.4975    -0.8004 H       
  56 H56            5.2086     2.6625     0.7413 H       
  57 H57            6.5722     3.1507    -0.2933 H       
  58 H58            4.2015    -0.1164     0.8714 H       
  59 H59            3.7035     1.5820     1.0085 H       
  60 H60            1.9844    -0.7096    -0.0624 H       
  61 H61            1.7905     0.1111     1.5109 H       
  62 H62            1.2487     2.6311     1.5154 H       
  63 H63            2.6534     2.8654     0.4476 H       
  64 H64            1.0493     3.4554    -0.0495 H       
  65 H65            0.5806     1.2036     2.3659 H       
  66 H66           -1.0382     1.4929     3.0471 H       
  67 H67           -0.7093    -0.0014     2.1377 H       
  68 H68           -2.7150     2.0613    -0.2231 H       
  69 H69           -2.7177     0.5950     0.7860 H       
  70 H70           -2.8369     1.9992     2.8262 H       
  71 H71           -2.8343     3.4655     1.8172 H       
  72 H72           -4.9313     2.7180     0.7252 H       
  73 H73           -4.9340     1.2516     1.7343 H       
  74 H74           -7.2123     2.0334     2.5575 H       
  75 H75           -7.3522     3.6126     3.3669 H       
  76 H76           -7.0717     3.5342     1.6109 H       
  77 H77           -5.3485     1.5349     4.1272 H       
@<TRIPOS>BOND
   1    1    2 1
   2    2   25 1
   3    2    3 1
   4    2   27 1
   5    3    4 1
   6    3   37 1
   7    3   38 1
   8    4    5 1
   9    4   39 1
  10    4   40 1
  11    5   25 1
  12    5    6 1
  13    5    7 1
  14    7   21 1
  15    7    8 1
  16    7    9 1
  17    9   10 1
  18    9   41 1
  19    9   42 1
  20   10   11 1
  21   10   43 1
  22   10   44 1
  23   11   19 1
  24   11   12 1
  25   11   13 1
  26   13   14 1
  27   13   45 1
  28   13   46 1
  29   14   15 1
  30   14   16 1
  31   14   17 1
  32   15   47 1
  33   15   48 1
  34   15   49 1
  35   16   50 1
  36   17   18 1
  37   17   51 1
  38   17   52 1
  39   18   19 1
  40   18   53 1
  41   18   54 1
  42   19   20 1
  43   19   21 1
  44   20   55 1
  45   20   56 1
  46   20   57 1
  47   21   22 1
  48   21   23 1
  49   23   24 1
  50   23   58 1
  51   23   59 1
  52   24   25 1
  53   24   60 1
  54   24   61 1
  55   25   26 1
  56   26   62 1
  57   26   63 1
  58   26   64 1
  59   27   28 1
  60   27   29 1
  61   27   30 1
  62   29   65 1
  63   29   66 1
  64   29   67 1
  65   30   31 1
  66   30   68 1
  67   30   69 1
  68   31   32 1
  69   31   70 1
  70   31   71 1
  71   32   33 1
  72   32   72 1
  73   32   73 1
  74   33   34 1
  75   33   35 1
  76   33   36 1
  77   35   74 1
  78   35   75 1
  79   35   76 1
  80   36   77 1

#	End of record

