#	Name: ASD01810799
#	Creating user name:	WinNT
#	Creation time:	15. 06. 2019 19:25

#	Modifying user name:	WinNT
#	Modification time:	15. 06. 2019 19:25

#	Program:	/corina/corina34_cracker 3.40 0067  02.08.2006

@<TRIPOS>MOLECULE
ASD01810799
  69   73    0    0    0
SMALL
NO_CHARGES


@<TRIPOS>ATOM
   1 C1             0.0700     1.6752     0.0968 C.2     
   2 C2             0.0621     0.1686     0.0657 C.3     
   3 O3             1.1235     2.2762     0.0969 O.2     
   4 N4            -1.0936     2.3550     0.1189 N.am    
   5 C5            -1.0858     3.8196     0.1491 C.3     
   6 C6            -2.3661     1.6291     0.1127 C.3     
   7 N7             3.4969    -0.6324    -0.5592 N.2     
   8 N8             2.4017    -0.0156    -0.8280 N.2     
   9 C9             1.4801    -0.3408     0.0385 C.2     
  10 N10            2.0355    -1.2236     0.9126 N.pl3   
  11 C11            3.3304    -1.3900     0.5019 C.2     
  12 C12            4.3492    -2.2579     1.1326 C.ar    
  13 C13            5.6377    -2.3261     0.5986 C.ar    
  14 C14            6.5897    -3.1358     1.1855 C.ar    
  15 C15            6.2753    -3.8829     2.3035 C.ar    
  16 C16            4.9907    -3.8236     2.8478 C.ar    
  17 C17            4.0269    -3.0042     2.2632 C.ar    
  18 C18            7.3205    -4.7644     2.9371 C.3     
  19 C19            5.9898    -1.5143    -0.6213 C.3     
  20 C20            7.1189    -0.4907    -0.4869 C.3     
  21 C21            7.3453    -1.7797    -1.2793 C.3     
  22 C22            4.6555    -4.6241     4.0449 C.2     
  23 O23            5.3269    -4.5205     5.0529 O.2     
  24 N24            3.6055    -5.4687     4.0185 N.am    
  25 C25            3.3151    -6.3382     5.1666 C.3     
  26 C26            3.2189    -7.7864     4.6765 C.3     
  27 C27            2.1892    -7.8713     3.5475 C.3     
  28 C28            2.6395    -6.9942     2.3770 C.3     
  29 C29            2.7259    -5.5329     2.8433 C.3     
  30 C30            2.0670    -9.3006     3.0858 C.ar    
  31 C31            0.8477    -9.9493     3.1687 C.ar    
  32 C32            0.7288   -11.2576     2.7479 C.ar    
  33 C33            1.8425   -11.9271     2.2369 C.ar    
  34 C34            3.0698   -11.2663     2.1556 C.ar    
  35 C35            3.1734    -9.9564     2.5756 C.ar    
  36 C36            1.7265   -13.2855     1.7986 C.1     
  37 N37            1.6345   -14.3630     1.4509 N.1     
  38 H38           -0.4432    -0.2105     0.9540 H       
  39 H39           -0.4641    -0.1737    -0.8254 H       
  40 H40           -1.0910     4.2041    -0.8708 H       
  41 H41           -1.9703     4.1768     0.6766 H       
  42 H42           -0.1904     4.1677     0.6641 H       
  43 H43           -2.6746     1.4279     1.1386 H       
  44 H44           -3.1262     2.2326    -0.3835 H       
  45 H45           -2.2444     0.6869    -0.4216 H       
  46 H46            1.6031    -1.6470     1.6707 H       
  47 H47            7.5845    -3.1854     0.7681 H       
  48 H48            3.0332    -2.9512     2.6828 H       
  49 H49            7.9216    -4.1750     3.6296 H       
  50 H50            6.8326    -5.5749     3.4785 H       
  51 H51            7.9634    -5.1808     2.1616 H       
  52 H52            5.1546    -1.2596    -1.2736 H       
  53 H53            7.0267     0.4373    -1.0511 H       
  54 H54            7.6071    -0.4043     0.4839 H       
  55 H55            7.9824    -2.5415    -0.8299 H       
  56 H56            7.4021    -1.6998    -2.3649 H       
  57 H57            4.1161    -6.2535     5.9010 H       
  58 H58            2.3688    -6.0420     5.6192 H       
  59 H59            4.1916    -8.1108     4.3069 H       
  60 H60            2.9093    -8.4295     5.5003 H       
  61 H61            1.2223    -7.5234     3.9110 H       
  62 H62            3.6177    -7.3260     2.0291 H       
  63 H63            1.9176    -7.0733     1.5642 H       
  64 H64            1.7325    -5.1724     3.1103 H       
  65 H65            3.1380    -4.9167     2.0443 H       
  66 H66           -0.0129    -9.4302     3.5642 H       
  67 H67           -0.2234   -11.7629     2.8139 H       
  68 H68            3.9352   -11.7784     1.7614 H       
  69 H69            4.1212    -9.4428     2.5095 H       
@<TRIPOS>BOND
   1    1    2 1
   2    1    3 2
   3    1    4 am
   4    2    9 1
   5    2   38 1
   6    2   39 1
   7    4    5 1
   8    4    6 1
   9    5   40 1
  10    5   41 1
  11    5   42 1
  12    6   43 1
  13    6   44 1
  14    6   45 1
  15    7    8 1
  16    7   11 2
  17    8    9 2
  18    9   10 1
  19   10   11 1
  20   10   46 1
  21   11   12 1
  22   12   13 ar
  23   12   17 ar
  24   13   14 ar
  25   13   19 1
  26   14   15 ar
  27   14   47 1
  28   15   16 ar
  29   15   18 1
  30   16   17 ar
  31   16   22 1
  32   17   48 1
  33   18   49 1
  34   18   50 1
  35   18   51 1
  36   19   20 1
  37   19   21 1
  38   19   52 1
  39   20   21 1
  40   20   53 1
  41   20   54 1
  42   21   55 1
  43   21   56 1
  44   22   23 2
  45   22   24 am
  46   24   25 1
  47   24   29 1
  48   25   26 1
  49   25   57 1
  50   25   58 1
  51   26   27 1
  52   26   59 1
  53   26   60 1
  54   27   28 1
  55   27   30 1
  56   27   61 1
  57   28   29 1
  58   28   62 1
  59   28   63 1
  60   29   64 1
  61   29   65 1
  62   30   31 ar
  63   30   35 ar
  64   31   32 ar
  65   31   66 1
  66   32   33 ar
  67   32   67 1
  68   33   34 ar
  69   33   36 1
  70   34   35 ar
  71   34   68 1
  72   35   69 1
  73   36   37 3

#	End of record

