#	Name: ASD03240246
#	Creating user name:	WinNT
#	Creation time:	15. 06. 2019 20:34

#	Modifying user name:	WinNT
#	Modification time:	15. 06. 2019 20:34

#	Program:	/corina/corina34_cracker 3.40 0067  02.08.2006

@<TRIPOS>MOLECULE
ASD03240246
  56   61    0    0    0
SMALL
NO_CHARGES


@<TRIPOS>ATOM
   1 C1            -0.5304     1.9244    -0.6211 C.ar    
   2 C2            -0.6935     0.5658    -0.5781 C.ar    
   3 C3             0.4282    -0.2615    -0.4844 C.ar    
   4 N4             1.6521     0.2457    -0.4362 N.ar    
   5 C5             1.8581     1.5509    -0.4747 C.ar    
   6 C6             0.7708     2.4413    -0.5689 C.ar    
   7 N7             2.9934     2.3369    -0.4421 N.pl3   
   8 C8             2.5851     3.6451    -0.5147 C.2     
   9 N9             1.2763     3.6970    -0.5886 N.2     
  10 C10            3.4828     4.8168    -0.5091 C.ar    
  11 C11            4.3156     1.8832    -0.3516 C.ar    
  12 C12            4.8779     1.1652    -1.3987 C.ar    
  13 C13            6.1818     0.7191    -1.3065 C.ar    
  14 C14            6.9272     0.9869    -0.1729 C.ar    
  15 C15            6.3699     1.7013     0.8717 C.ar    
  16 C16            5.0685     2.1554     0.7829 C.ar    
  17 N17            4.0376     6.9556     0.3404 N.ar    
  18 C18            3.2295     5.9075     0.3388 C.ar    
  19 C19            4.6040     4.8585    -1.3437 C.ar    
  20 C20            5.4148     5.9799    -1.3007 C.ar    
  21 C21            5.0973     7.0169    -0.4429 C.ar    
  22 C22            8.3496     0.4987    -0.0756 C.3     
  23 N23            2.1271     5.8863     1.1778 N.pl3   
  24 C24            0.2468    -1.7323    -0.4377 C.ar    
  25 C25            1.3533    -2.5821    -0.3440 C.ar    
  26 C26            1.1305    -3.9474    -0.3031 C.ar    
  27 C27           -0.1673    -4.4232    -0.3557 C.ar    
  28 N28           -1.1916    -3.5970    -0.4440 N.ar    
  29 C29           -1.0296    -2.2901    -0.4806 C.ar    
  30 C30            9.2529     1.4002     0.7825 C.3     
  31 C31            8.5557    -0.5896     0.9911 C.3     
  32 C32            9.8808     0.1103     1.3362 C.3     
  33 N33            8.9274     0.1606    -1.3832 N.3     
  34 H34           -1.3839     2.5817    -0.6978 H       
  35 H35           -1.6836     0.1362    -0.6160 H       
  36 H36            4.2962     0.9554    -2.2841 H       
  37 H37            6.6196     0.1603    -2.1204 H       
  38 H38            6.9543     1.9083     1.7560 H       
  39 H39            4.6354     2.7175     1.5971 H       
  40 H40            4.8320     4.0359    -2.0053 H       
  41 H41            6.2888     6.0440    -1.9319 H       
  42 H42            5.7307     7.8911    -0.4106 H       
  43 H43            1.8977     6.6727     1.6973 H       
  44 H44            1.5847     5.0850     1.2458 H       
  45 H45            2.3562    -2.1833    -0.3049 H       
  46 H46            1.9611    -4.6340    -0.2313 H       
  47 H47           -0.3446    -5.4881    -0.3244 H       
  48 H48           -1.8934    -1.6455    -0.5488 H       
  49 H49            9.9450     2.0071     0.1988 H       
  50 H50            8.7095     1.9774     1.5306 H       
  51 H51            7.8218    -0.5564     1.7962 H       
  52 H52            8.6850    -1.5891     0.5758 H       
  53 H53           10.7288    -0.2480     0.7525 H       
  54 H54           10.0882     0.1497     2.4055 H       
  55 H55            8.3148    -0.4506    -1.9021 H       
  56 H56            9.1389     0.9939    -1.9114 H       
@<TRIPOS>BOND
   1    1    2 ar
   2    1    6 ar
   3    1   34 1
   4    2    3 ar
   5    2   35 1
   6    3    4 ar
   7    3   24 1
   8    4    5 ar
   9    5    7 1
  10    5    6 ar
  11    6    9 1
  12    7    8 1
  13    7   11 1
  14    8    9 2
  15    8   10 1
  16   10   19 ar
  17   10   18 ar
  18   11   12 ar
  19   11   16 ar
  20   12   13 ar
  21   12   36 1
  22   13   14 ar
  23   13   37 1
  24   14   15 ar
  25   14   22 1
  26   15   16 ar
  27   15   38 1
  28   16   39 1
  29   17   18 ar
  30   17   21 ar
  31   18   23 1
  32   19   20 ar
  33   19   40 1
  34   20   21 ar
  35   20   41 1
  36   21   42 1
  37   22   30 1
  38   22   31 1
  39   22   33 1
  40   23   43 1
  41   23   44 1
  42   24   25 ar
  43   24   29 ar
  44   25   26 ar
  45   25   45 1
  46   26   27 ar
  47   26   46 1
  48   27   28 ar
  49   27   47 1
  50   28   29 ar
  51   29   48 1
  52   30   32 1
  53   30   49 1
  54   30   50 1
  55   31   32 1
  56   31   51 1
  57   31   52 1
  58   32   53 1
  59   32   54 1
  60   33   55 1
  61   33   56 1

#	End of record

