#	Name: ASD01882964
#	Creating user name:	WinNT
#	Creation time:	15. 06. 2019 19:45

#	Modifying user name:	WinNT
#	Modification time:	15. 06. 2019 19:45

#	Program:	/corina/corina34_cracker 3.40 0067  02.08.2006

@<TRIPOS>MOLECULE
ASD01882964
  55   56    0    0    0
SMALL
NO_CHARGES


@<TRIPOS>ATOM
   1 C1            -0.7834     0.8461    -0.0059 C.2     
   2 C2            -0.4480    -0.3121    -0.7294 C.2     
   3 C3            -1.3288    -0.7614    -1.7330 C.2     
   4 C4            -2.4704    -0.0814    -1.9837 C.2     
   5 N5            -2.7951     1.0371    -1.2855 N.am    
   6 C6            -1.9962     1.5114    -0.3116 C.2     
   7 C7            -4.0434     1.7387    -1.5946 C.3     
   8 O8            -5.0057     1.4714    -0.5725 O.3     
   9 C9             0.8038    -1.0432    -0.4432 C.ar    
  10 C10            0.0809     1.3398     1.0236 C.1     
  11 N11            0.7666     1.7315     1.8403 N.1     
  12 O12           -2.3114     2.5177     0.3003 O.2     
  13 C13           -6.2012     2.1105    -0.6683 C.ar    
  14 C14           -7.2188     1.8191     0.2285 C.ar    
  15 C15           -8.4331     2.4701     0.1290 C.ar    
  16 C16           -8.6348     3.4115    -0.8634 C.ar    
  17 C17           -7.6225     3.7034    -1.7587 C.ar    
  18 C18           -6.4042     3.0596    -1.6596 C.ar    
  19 C19            0.7547    -2.3427     0.0664 C.ar    
  20 C20            1.9239    -3.0216     0.3323 C.ar    
  21 C21            3.1509    -2.4154     0.0947 C.ar    
  22 C22            3.2046    -1.1213    -0.4123 C.ar    
  23 C23            2.0395    -0.4384    -0.6870 C.ar    
  24 Cl24           4.7410    -0.3685    -0.7068 Cl      
  25 O25            4.3008    -3.0877     0.3585 O.3     
  26 C26            4.1733    -4.3969     0.9168 C.3     
  27 C27            3.9366    -5.4093    -0.2056 C.3     
  28 C28            5.4566    -4.7584     1.6674 C.3     
  29 H29           -1.0922    -1.6483    -2.3021 H       
  30 H30           -3.1378    -0.4351    -2.7557 H       
  31 H31           -3.8548     2.8110    -1.6445 H       
  32 H32           -4.4270     1.3921    -2.5542 H       
  33 H33           -7.0618     1.0835     1.0036 H       
  34 H34           -9.2257     2.2433     0.8267 H       
  35 H35           -9.5849     3.9194    -0.9395 H       
  36 H36           -7.7827     4.4387    -2.5334 H       
  37 H37           -5.6137     3.2880    -2.3591 H       
  38 H38           -0.1987    -2.8148     0.2523 H       
  39 H39            1.8863    -4.0264     0.7263 H       
  40 H40            2.0815     0.5664    -1.0807 H       
  41 H41            3.3304    -4.4168     1.6077 H       
  42 H42            4.7795    -5.3894    -0.8965 H       
  43 H43            3.8394    -6.4079     0.2203 H       
  44 H44            3.0224    -5.1518    -0.7404 H       
  45 H45            5.6252    -4.0371     2.4671 H       
  46 H46            5.3594    -5.7570     2.0933 H       
  47 H47            6.2995    -4.7385     0.9766 H       
  48 C48           12.3013    11.3458     8.3723 C.3     
  49 C49           12.3220     9.8159     8.3639 C.3     
  50 H50           13.3239    11.7231     8.3646 H       
  51 H51           11.7741    11.7069     7.4893 H       
  52 H52           11.7911    11.6973     9.2691 H       
  53 H53           12.8492     9.4549     9.2470 H       
  54 H54           11.2995     9.4387     8.3716 H       
  55 H55           12.8322     9.4644     7.4671 H       
@<TRIPOS>BOND
   1    1    2 2
   2    1   10 1
   3    1    6 1
   4    2    3 1
   5    2    9 1
   6    3    4 2
   7    3   29 1
   8    4    5 1
   9    4   30 1
  10    5    7 1
  11    5    6 am
  12    6   12 2
  13    7    8 1
  14    7   31 1
  15    7   32 1
  16    8   13 1
  17    9   19 ar
  18    9   23 ar
  19   10   11 3
  20   13   14 ar
  21   13   18 ar
  22   14   15 ar
  23   14   33 1
  24   15   16 ar
  25   15   34 1
  26   16   17 ar
  27   16   35 1
  28   17   18 ar
  29   17   36 1
  30   18   37 1
  31   19   20 ar
  32   19   38 1
  33   20   21 ar
  34   20   39 1
  35   21   22 ar
  36   21   25 1
  37   22   23 ar
  38   22   24 1
  39   23   40 1
  40   25   26 1
  41   26   27 1
  42   26   28 1
  43   26   41 1
  44   27   42 1
  45   27   43 1
  46   27   44 1
  47   28   45 1
  48   28   46 1
  49   28   47 1
  50   48   49 1
  51   48   50 1
  52   48   51 1
  53   48   52 1
  54   49   53 1
  55   49   54 1
  56   49   55 1

#	End of record

