#	Name: ASD05143086
#	Creating user name:	WinNT
#	Creation time:	15. 06. 2019 20:57

#	Modifying user name:	WinNT
#	Modification time:	15. 06. 2019 20:57

#	Program:	/corina/corina34_cracker 3.40 0067  02.08.2006

@<TRIPOS>MOLECULE
ASD05143086
 148  151    0    0    0
SMALL
NO_CHARGES


@<TRIPOS>ATOM
   1 C1             0.8389     2.8959     2.0159 C.2     
   2 C2             1.0691     1.4188     2.2062 C.3     
   3 N3             1.7423     3.7835     2.4768 N.am    
   4 O4            -0.1568     3.2857     1.4437 O.2     
   5 C5             1.5186     5.2195     2.2918 C.3     
   6 C6             1.4222     5.5323     0.7973 C.3     
   7 C7             0.2350     5.6196     2.9725 C.2     
   8 C8             2.7672     5.2427     0.1279 C.3     
   9 C9             2.6709     5.5555    -1.3667 C.3     
  10 N10            3.9588     5.2783    -2.0076 N.pl3   
  11 C11            4.1135     5.4861    -3.3578 C.2     
  12 N12            3.0597     5.9540    -4.1066 N.pl3   
  13 N13            5.2593     5.2394    -3.9281 N.2     
  14 O14           -0.6003     4.7799     3.2336 O.2     
  15 N15            0.0153     6.9106     3.2912 N.am    
  16 C16           -1.2326     7.2996     3.9530 C.3     
  17 C17           -1.0098     8.5906     4.7432 C.3     
  18 C18            0.2151     8.4310     5.6458 C.3     
  19 C19            1.0484     9.7135     5.6060 C.3     
  20 N20            1.2341    10.1332     4.2104 N.3     
  21 C21            2.2201    11.2178     4.1131 C.3     
  22 C22            1.8958    12.0935     2.9010 C.3     
  23 C23            3.1400    12.8870     2.4971 C.3     
  24 C24            2.7150    14.1684     1.7770 C.3     
  25 N25            2.7022    13.9171     0.3222 N.am    
  26 C26            3.6930    15.2714     2.0901 C.2     
  27 N27            3.6044    15.9394     3.2574 N.am    
  28 O28            4.5599    15.5579     1.2918 O.2     
  29 C29            1.4948    14.0051    -0.3011 C.2     
  30 O30            0.4938    14.2701     0.3303 O.2     
  31 C31            1.4216    13.7685    -1.7876 C.3     
  32 N32            0.0077    13.5429    -2.1643 N.am    
  33 C33            1.9610    14.9933    -2.5292 C.3     
  34 C34           -0.2762    12.2965    -2.6466 C.2     
  35 O35            0.5942    11.4568    -2.7378 O.2     
  36 C36           -1.6902    11.9837    -3.0628 C.3     
  37 N37           -1.8480    10.5183    -3.1532 N.am    
  38 C38           -2.6655    12.5411    -2.0240 C.3     
  39 C39           -2.7763     9.9544    -2.3329 C.2     
  40 O40           -3.4276    10.6437    -1.5769 O.2     
  41 C41           -2.9848     8.4626    -2.3765 C.3     
  42 C42            2.0013    14.7075    -4.0083 C.2     
  43 C43            0.8953    14.8626    -4.9562 C.ar    
  44 C44            1.4022    14.4789    -6.2111 C.ar    
  45 N45            2.7184    14.1200    -6.0250 N.pl3   
  46 C46            3.0592    14.2681    -4.7081 C.2     
  47 C47           -0.4317    15.2808    -4.8391 C.ar    
  48 C48           -1.2322    15.3152    -5.9458 C.ar    
  49 C49           -0.7368    14.9371    -7.1864 C.ar    
  50 C50            0.5693    14.5221    -7.3247 C.ar    
  51 N51           -3.6937     8.0484    -1.1439 N.am    
  52 C52           -1.6296     7.7565    -2.4516 C.3     
  53 C53           -1.8391     6.3006    -2.7791 C.ar    
  54 C54           -2.3565     5.9362    -4.0079 C.ar    
  55 C55           -2.5488     4.6005    -4.3084 C.ar    
  56 C56           -2.2232     3.6295    -3.3802 C.ar    
  57 C57           -1.7048     3.9939    -2.1514 C.ar    
  58 C58           -1.5085     5.3290    -1.8527 C.ar    
  59 C59           -2.3026     7.5237     2.9156 C.2     
  60 O60           -2.9351     8.5584     2.8978 O.2     
  61 C61           -4.0798    12.5537    -2.6075 C.3     
  62 C62           -5.0805    12.9242    -1.5110 C.3     
  63 N63           -6.4348    12.9362    -2.0696 N.pl3   
  64 C64           -7.5071    13.2442    -1.2662 C.2     
  65 N65           -7.3085    13.5409     0.0615 N.pl3   
  66 N66           -8.7120    13.2549    -1.7632 N.2     
  67 N67           -2.5489     6.5481     1.9984 N.am    
  68 C68           -3.6056     6.8266     1.0055 C.3     
  69 C69           -2.9604     7.2919    -0.2744 C.2     
  70 O70           -1.8110     6.9996    -0.5281 O.2     
  71 C71           -4.5343     7.9196     1.5382 C.3     
  72 C72           -4.8811     7.6277     2.9754 C.2     
  73 O73           -4.4298     6.6424     3.5200 O.2     
  74 N74           -5.6926     8.4614     3.6556 N.am    
  75 C75           -2.7115     6.9949    -5.0199 C.3     
  76 H76            1.1378     1.1959     3.2709 H       
  77 H77            0.2386     0.8626     1.7713 H       
  78 H78            1.9975     1.1293     1.7138 H       
  79 H79            2.5407     3.4716     2.9309 H       
  80 H80            2.3491     5.7756     2.7267 H       
  81 H81            0.6499     4.9103     0.3449 H       
  82 H82            1.1678     6.5835     0.6617 H       
  83 H83            3.5396     5.8648     0.5803 H       
  84 H84            3.0217     4.1916     0.2634 H       
  85 H85            1.8986     4.9335    -1.8191 H       
  86 H86            2.4165     6.6067    -1.5022 H       
  87 H87            4.7023     4.9481    -1.4794 H       
  88 H88            2.2069     6.1376    -3.6822 H       
  89 H89            3.1688     6.1006    -5.0592 H       
  90 H90            5.3685     5.3860    -4.8807 H       
  91 H91            0.6833     7.5822     3.0825 H       
  92 H92           -1.5457     6.5071     4.6326 H       
  93 H93           -0.8459     9.4166     4.0510 H       
  94 H94           -1.8876     8.7981     5.3552 H       
  95 H95           -0.1097     8.2404     6.6687 H       
  96 H96            0.8189     7.5944     5.2944 H       
  97 H97            0.5317    10.4998     6.1563 H       
  98 H98            2.0209     9.5293     6.0625 H       
  99 H99            1.4981     9.3514     3.6298 H       
 100 H100           2.1849    11.8234     5.0187 H       
 101 H101           3.2174    10.7932     3.9983 H       
 102 H102           1.5822    11.4618     2.0700 H       
 103 H103           1.0917    12.7837     3.1562 H       
 104 H104           3.7125    13.1437     3.3884 H       
 105 H105           3.7558    12.2829     1.8309 H       
 106 H106           1.7172    14.4585     2.1062 H       
 107 H107           3.5127    13.7006    -0.1648 H       
 108 H108           2.9111    15.7102     3.8959 H       
 109 H109           4.2339    16.6493     3.4589 H       
 110 H110           2.0137    12.8911    -2.0477 H       
 111 H111          -0.6696    14.2315    -2.0747 H       
 112 H112           1.3101    15.8473    -2.3418 H       
 113 H113           2.9669    15.2186    -2.1751 H       
 114 H114          -1.8927    12.4335    -4.0348 H       
 115 H115          -1.3177     9.9851    -3.7659 H       
 116 H116          -2.6455    11.9133    -1.1332 H       
 117 H117          -2.3726    13.5571    -1.7592 H       
 118 H118          -3.5847     8.2023    -3.2486 H       
 119 H119           3.3161    13.8117    -6.7240 H       
 120 H120           4.0329    14.0555    -4.2920 H       
 121 H121          -0.8241    15.5757    -3.8771 H       
 122 H122          -2.2585    15.6387    -5.8547 H       
 123 H123          -1.3819    14.9693    -8.0520 H       
 124 H124           0.9454    14.2302    -8.2941 H       
 125 H125          -4.6142     8.2973    -0.9662 H       
 126 H126          -1.0210     8.2198    -3.2283 H       
 127 H127          -1.1210     7.8434    -1.4914 H       
 128 H128          -2.9537     4.3158    -5.2683 H       
 129 H129          -2.3741     2.5861    -3.6147 H       
 130 H130          -1.4507     3.2352    -1.4260 H       
 131 H131          -1.1036     5.6137    -0.8928 H       
 132 H132          -4.1344    13.2870    -3.4121 H       
 133 H133          -4.3199    11.5655    -2.9997 H       
 134 H134          -5.0259    12.1909    -0.7064 H       
 135 H135          -4.8405    13.9125    -1.1188 H       
 136 H136          -6.5749    12.7269    -3.0064 H       
 137 H137          -6.4118    13.5329     0.4314 H       
 138 H138          -8.0651    13.7582     0.6283 H       
 139 H139          -9.4685    13.4722    -1.1964 H       
 140 H140          -2.0557     5.7128     1.9975 H       
 141 H141          -4.1780     5.9184     0.8168 H       
 142 H142          -4.0329     8.8853     1.4743 H       
 143 H143          -5.4465     7.9437     0.9420 H       
 144 H144          -6.0535     9.2494     3.2200 H       
 145 H145          -5.9158     8.2735     4.5806 H       
 146 H146          -1.8458     7.2004    -5.6497 H       
 147 H147          -3.5363     6.6431    -5.6396 H       
 148 H148          -3.0090     7.9069    -4.5025 H       
@<TRIPOS>BOND
   1    1    2 1
   2    1    3 am
   3    1    4 2
   4    2   76 1
   5    2   77 1
   6    2   78 1
   7    3    5 1
   8    3   79 1
   9    5    6 1
  10    5    7 1
  11    5   80 1
  12    6    8 1
  13    6   81 1
  14    6   82 1
  15    7   14 2
  16    7   15 am
  17    8    9 1
  18    8   83 1
  19    8   84 1
  20    9   10 1
  21    9   85 1
  22    9   86 1
  23   10   11 1
  24   10   87 1
  25   11   12 1
  26   11   13 2
  27   12   88 1
  28   12   89 1
  29   13   90 1
  30   15   16 1
  31   15   91 1
  32   16   17 1
  33   16   59 1
  34   16   92 1
  35   17   18 1
  36   17   93 1
  37   17   94 1
  38   18   19 1
  39   18   95 1
  40   18   96 1
  41   19   20 1
  42   19   97 1
  43   19   98 1
  44   20   21 1
  45   20   99 1
  46   21   22 1
  47   21  100 1
  48   21  101 1
  49   22   23 1
  50   22  102 1
  51   22  103 1
  52   23   24 1
  53   23  104 1
  54   23  105 1
  55   24   25 1
  56   24   26 1
  57   24  106 1
  58   25   29 am
  59   25  107 1
  60   26   27 am
  61   26   28 2
  62   27  108 1
  63   27  109 1
  64   29   30 2
  65   29   31 1
  66   31   32 1
  67   31   33 1
  68   31  110 1
  69   32   34 am
  70   32  111 1
  71   33   42 1
  72   33  112 1
  73   33  113 1
  74   34   35 2
  75   34   36 1
  76   36   37 1
  77   36   38 1
  78   36  114 1
  79   37   39 am
  80   37  115 1
  81   38   61 1
  82   38  116 1
  83   38  117 1
  84   39   40 2
  85   39   41 1
  86   41   51 1
  87   41   52 1
  88   41  118 1
  89   42   43 1
  90   42   46 2
  91   43   44 ar
  92   43   47 ar
  93   44   45 1
  94   44   50 ar
  95   45   46 1
  96   45  119 1
  97   46  120 1
  98   47   48 ar
  99   47  121 1
 100   48   49 ar
 101   48  122 1
 102   49   50 ar
 103   49  123 1
 104   50  124 1
 105   51   69 am
 106   51  125 1
 107   52   53 1
 108   52  126 1
 109   52  127 1
 110   53   54 ar
 111   53   58 ar
 112   54   55 ar
 113   54   75 1
 114   55   56 ar
 115   55  128 1
 116   56   57 ar
 117   56  129 1
 118   57   58 ar
 119   57  130 1
 120   58  131 1
 121   59   60 2
 122   59   67 am
 123   61   62 1
 124   61  132 1
 125   61  133 1
 126   62   63 1
 127   62  134 1
 128   62  135 1
 129   63   64 1
 130   63  136 1
 131   64   65 1
 132   64   66 2
 133   65  137 1
 134   65  138 1
 135   66  139 1
 136   67   68 1
 137   67  140 1
 138   68   69 1
 139   68   71 1
 140   68  141 1
 141   69   70 2
 142   71   72 1
 143   71  142 1
 144   71  143 1
 145   72   73 2
 146   72   74 am
 147   74  144 1
 148   74  145 1
 149   75  146 1
 150   75  147 1
 151   75  148 1

#	End of record

