#	Name: ASD06710066
#	Creating user name:	WinNT
#	Creation time:	15. 06. 2019 21:08

#	Modifying user name:	WinNT
#	Modification time:	15. 06. 2019 21:08

#	Program:	/corina/corina34_cracker 3.40 0067  02.08.2006

@<TRIPOS>MOLECULE
ASD06710066
  48   50    0    0    0
SMALL
NO_CHARGES


@<TRIPOS>ATOM
   1 C1            -0.1625     0.2759    -1.8851 C.1     
   2 C2            -0.1470     1.6481    -1.4759 C.ar    
   3 C3             0.1608     1.9816    -0.1539 C.ar    
   4 C4             0.1752     3.3023     0.2357 C.ar    
   5 C5            -0.1162     4.3037    -0.6843 C.ar    
   6 C6            -0.4229     3.9759    -2.0002 C.ar    
   7 C7            -0.4340     2.6574    -2.3987 C.ar    
   8 N8            -0.1748    -0.8127    -2.2096 N.1     
   9 C9             0.4762     0.8972     0.8440 C.3     
  10 F10            0.7498     1.4741     2.0888 F       
  11 F11           -0.6207     0.0367     0.9597 F       
  12 F12            1.5923     0.1741     0.4097 F       
  13 C13            0.9801     6.4302    -0.3336 C.2     
  14 N14            0.7292     7.6763     0.1069 N.am    
  15 C15           -0.6925     7.7090     0.4916 C.3     
  16 C16           -1.1739     6.3024     0.1960 C.2     
  17 N17           -0.1011     5.6436    -0.2848 N.am    
  18 S18            2.5099     5.9111    -0.9000 S.2     
  19 O19           -2.2915     5.8615     0.3589 O.2     
  20 C20           -0.8400     8.0266     1.9810 C.3     
  21 C21           -1.4562     8.7285    -0.3558 C.3     
  22 C22            1.6405     8.7344     0.1849 C.ar    
  23 C23            1.7959     9.5993    -0.8904 C.ar    
  24 C24            2.6976    10.6449    -0.8096 C.ar    
  25 C25            3.4448    10.8283     0.3424 C.ar    
  26 C26            3.2909     9.9680     1.4133 C.ar    
  27 C27            2.3875     8.9255     1.3401 C.ar    
  28 C28            4.4276    11.9675     0.4281 C.3     
  29 O29            5.0707    11.9469     1.7040 O.3     
  30 C30            6.0276    12.9919     1.8896 C.3     
  31 F31            2.8502    11.4873    -1.8547 F       
  32 H32            0.4126     3.5607     1.2571 H       
  33 H33           -0.6489     4.7563    -2.7117 H       
  34 H34           -0.6680     2.4039    -3.4221 H       
  35 H35           -0.3949     8.9992     2.1909 H       
  36 H36           -1.8972     8.0461     2.2454 H       
  37 H37           -0.3328     7.2606     2.5678 H       
  38 H38           -1.3813     8.4551    -1.4083 H       
  39 H39           -2.5042     8.7376    -0.0564 H       
  40 H40           -1.0271     9.7193    -0.2065 H       
  41 H41            1.2136     9.4555    -1.7886 H       
  42 H42            3.8750    10.1132     2.3100 H       
  43 H43            2.2653     8.2566     2.1791 H       
  44 H44            5.1757    11.8619    -0.3576 H       
  45 H45            3.8998    12.9129     0.3026 H       
  46 H46            6.4708    12.9067     2.8818 H       
  47 H47            6.8088    12.9075     1.1342 H       
  48 H48            5.5330    13.9585     1.7944 H       
@<TRIPOS>BOND
   1    1    2 1
   2    1    8 3
   3    2    3 ar
   4    2    7 ar
   5    3    4 ar
   6    3    9 1
   7    4    5 ar
   8    4   32 1
   9    5    6 ar
  10    5   17 1
  11    6    7 ar
  12    6   33 1
  13    7   34 1
  14    9   10 1
  15    9   11 1
  16    9   12 1
  17   13   14 am
  18   13   17 am
  19   13   18 2
  20   14   15 1
  21   14   22 1
  22   15   16 1
  23   15   20 1
  24   15   21 1
  25   16   17 am
  26   16   19 2
  27   20   35 1
  28   20   36 1
  29   20   37 1
  30   21   38 1
  31   21   39 1
  32   21   40 1
  33   22   23 ar
  34   22   27 ar
  35   23   24 ar
  36   23   41 1
  37   24   25 ar
  38   24   31 1
  39   25   26 ar
  40   25   28 1
  41   26   27 ar
  42   26   42 1
  43   27   43 1
  44   28   29 1
  45   28   44 1
  46   28   45 1
  47   29   30 1
  48   30   46 1
  49   30   47 1
  50   30   48 1

#	End of record

