#	Name: ASD01510031
#	Creating user name:	WinNT
#	Creation time:	15. 06. 2019 19:21

#	Modifying user name:	WinNT
#	Modification time:	15. 06. 2019 19:21

#	Program:	/corina/corina34_cracker 3.40 0067  02.08.2006

@<TRIPOS>MOLECULE
ASD01510031
  49   50    0    0    0
SMALL
NO_CHARGES


@<TRIPOS>ATOM
   1 C1             0.2790     1.9672    -0.5481 C.3     
   2 C2             0.4036     0.4437    -0.4840 C.3     
   3 O3             0.9606    -0.0406    -1.7076 O.3     
   4 C4             1.1385    -1.3809    -1.8153 C.ar    
   5 N5             0.8023    -2.1877    -0.8144 N.ar    
   6 C6             0.9728    -3.4973    -0.9114 C.ar    
   7 N7             0.6095    -4.3051     0.1550 N.pl3   
   8 N8             1.4803    -4.0566    -1.9992 N.ar    
   9 C9             1.8402    -3.3154    -3.0416 C.ar    
  10 C10            1.6715    -1.9322    -2.9804 C.ar    
  11 S11            2.1324    -0.9055    -4.3361 S.3     
  12 C12            0.6189    -0.8921    -5.2382 C.ar    
  13 N13            0.5472    -0.2039    -6.3685 N.ar    
  14 C14           -0.5786    -0.1712    -7.0754 C.ar    
  15 N15           -0.6454     0.5532    -8.2610 N.am    
  16 C16            0.3996     1.3117    -8.6471 C.2     
  17 O17            1.3599     1.4375    -7.9172 O.2     
  18 C18            0.3747     2.0036    -9.9856 C.3     
  19 C19           -1.6890    -0.8716    -6.6138 C.ar    
  20 C20           -1.5760    -1.5829    -5.4230 C.ar    
  21 N21           -0.4167    -1.5748    -4.7716 N.ar    
  22 N22           -2.6600    -2.2971    -4.9233 N.am    
  23 C23           -2.5128    -3.0649    -3.8254 C.2     
  24 O24           -1.4622    -3.0617    -3.2197 O.2     
  25 C25           -3.6537    -3.9272    -3.3504 C.3     
  26 O26            2.3593    -3.8963    -4.1519 O.3     
  27 C27            2.4940    -5.3188    -4.1371 C.3     
  28 C28            3.0924    -5.7883    -5.4647 C.3     
  29 H29            1.2653     2.4065    -0.6973 H       
  30 H30           -0.3713     2.2440    -1.3780 H       
  31 H31           -0.1459     2.3366     0.3852 H       
  32 H32            1.0539     0.1669     0.3459 H       
  33 H33           -0.5827     0.0044    -0.3348 H       
  34 H34            0.2362    -3.9094     0.9581 H       
  35 H35            0.7287    -5.2661     0.0981 H       
  36 H36           -1.4441     0.5124    -8.8100 H       
  37 H37           -0.4748     2.6853   -10.0265 H       
  38 H38            1.2986     2.5659   -10.1212 H       
  39 H39            0.2824     1.2601   -10.7773 H       
  40 H40           -2.6168    -0.8631    -7.1665 H       
  41 H41           -3.5219    -2.2426    -5.3649 H       
  42 H42           -3.5887    -4.9078    -3.8219 H       
  43 H43           -3.5976    -4.0402    -2.2678 H       
  44 H44           -4.6002    -3.4574    -3.6181 H       
  45 H45            3.1507    -5.6131    -3.3184 H       
  46 H46            1.5139    -5.7752    -3.9988 H       
  47 H47            3.1952    -6.8733    -5.4535 H       
  48 H48            2.4357    -5.4940    -6.2835 H       
  49 H49            4.0725    -5.3319    -5.6031 H       
@<TRIPOS>BOND
   1    1    2 1
   2    1   29 1
   3    1   30 1
   4    1   31 1
   5    2    3 1
   6    2   32 1
   7    2   33 1
   8    3    4 1
   9    4    5 ar
  10    4   10 ar
  11    5    6 ar
  12    6    7 1
  13    6    8 ar
  14    7   34 1
  15    7   35 1
  16    8    9 ar
  17    9   10 ar
  18    9   26 1
  19   10   11 1
  20   11   12 1
  21   12   13 ar
  22   12   21 ar
  23   13   14 ar
  24   14   15 1
  25   14   19 ar
  26   15   16 am
  27   15   36 1
  28   16   17 2
  29   16   18 1
  30   18   37 1
  31   18   38 1
  32   18   39 1
  33   19   20 ar
  34   19   40 1
  35   20   21 ar
  36   20   22 1
  37   22   23 am
  38   22   41 1
  39   23   24 2
  40   23   25 1
  41   25   42 1
  42   25   43 1
  43   25   44 1
  44   26   27 1
  45   27   28 1
  46   27   45 1
  47   27   46 1
  48   28   47 1
  49   28   48 1
  50   28   49 1

#	End of record

