#	Name: ASD01916065
#	Creating user name:	WinNT
#	Creation time:	15. 06. 2019 20:06

#	Modifying user name:	WinNT
#	Modification time:	15. 06. 2019 20:06

#	Program:	/corina/corina34_cracker 3.40 0067  02.08.2006

@<TRIPOS>MOLECULE
ASD01916065
  45   47    0    0    0
SMALL
NO_CHARGES


@<TRIPOS>ATOM
   1 C1            -0.0169     1.3969     0.0097 C.ar    
   2 C2             0.0021    -0.0041     0.0020 C.ar    
   3 N3            -1.1459    -0.6583     0.0090 N.ar    
   4 C4            -2.2953    -0.0124     0.0230 C.ar    
   5 C5            -3.5770    -0.8051     0.0310 C.3     
   6 C6             1.2009     2.1501     0.0021 C.1     
   7 C7             2.1994     2.7677    -0.0041 C.1     
   8 C8             3.4172     3.5209    -0.0117 C.ar    
   9 C9             3.3782     4.9179    -0.0038 C.ar    
  10 C10            5.8187     3.5929    -0.0285 C.ar    
  11 C11            4.5542     5.6375    -0.0112 C.ar    
  12 N12           -2.3599     1.3046     0.0307 N.ar    
  13 C13           -1.2618     2.0396     0.0192 C.ar    
  14 C14            4.6496     2.8621    -0.0212 C.ar    
  15 C15            5.7734     4.9782    -0.0264 C.ar    
  16 C16           -4.3774    -0.4649     1.2906 C.3     
  17 C17           -4.3804    -0.4668    -1.1919 C.2     
  18 N18           -5.6997    -0.2734    -1.1756 N.am    
  19 C19           -6.5177    -0.3188     0.0299 C.3     
  20 C20           -5.7830    -1.0609     1.1473 C.3     
  21 O21           -3.7982    -0.3636    -2.2508 O.2     
  22 C22           -6.3689     0.0025    -2.4493 C.3     
  23 C23           -6.8244     1.1087     0.4870 C.3     
  24 C24           -7.8315    -1.0401    -0.2772 C.3     
  25 F25            6.9224     5.6889    -0.0332 F       
  26 H26            0.9395    -0.5403    -0.0098 H       
  27 H27           -3.3441    -1.8699     0.0265 H       
  28 H28            2.4288     5.4326     0.0077 H       
  29 H29            6.7717     3.0849    -0.0404 H       
  30 H30            4.5253     6.7171    -0.0055 H       
  31 H31           -1.3229     3.1178     0.0255 H       
  32 H32            4.6862     1.7827    -0.0225 H       
  33 H33           -3.8852    -0.8916     2.1645 H       
  34 H34           -4.4471     0.6173     1.4000 H       
  35 H35           -5.7084    -2.1189     0.8961 H       
  36 H36           -6.3273    -0.9426     2.0842 H       
  37 H37           -5.6330     0.0049    -3.2534 H       
  38 H38           -7.1152    -0.7682    -2.6421 H       
  39 H39           -6.8565     0.9762    -2.4002 H       
  40 H40           -7.3643     1.6343    -0.3006 H       
  41 H41           -7.4361     1.0780     1.3886 H       
  42 H42           -5.8913     1.6309     0.6986 H       
  43 H43           -7.6189    -2.0553    -0.6124 H       
  44 H44           -8.4455    -1.0757     0.6227 H       
  45 H45           -8.3662    -0.5033    -1.0609 H       
@<TRIPOS>BOND
   1    1    2 ar
   2    1    6 1
   3    1   13 ar
   4    2    3 ar
   5    2   26 1
   6    3    4 ar
   7    4   12 ar
   8    4    5 1
   9    5   16 1
  10    5   17 1
  11    5   27 1
  12    6    7 3
  13    7    8 1
  14    8    9 ar
  15    8   14 ar
  16    9   11 ar
  17    9   28 1
  18   10   15 ar
  19   10   14 ar
  20   10   29 1
  21   11   15 ar
  22   11   30 1
  23   12   13 ar
  24   13   31 1
  25   14   32 1
  26   15   25 1
  27   16   20 1
  28   16   33 1
  29   16   34 1
  30   17   18 am
  31   17   21 2
  32   18   19 1
  33   18   22 1
  34   19   20 1
  35   19   23 1
  36   19   24 1
  37   20   35 1
  38   20   36 1
  39   22   37 1
  40   22   38 1
  41   22   39 1
  42   23   40 1
  43   23   41 1
  44   23   42 1
  45   24   43 1
  46   24   44 1
  47   24   45 1

#	End of record

