#	Name: ASD01180203
#	Creating user name:	WinNT
#	Creation time:	15. 06. 2019 19:07

#	Modifying user name:	WinNT
#	Modification time:	15. 06. 2019 19:07

#	Program:	/corina/corina34_cracker 3.40 0067  02.08.2006

@<TRIPOS>MOLECULE
ASD01180203
  60   62    0    0    0
SMALL
NO_CHARGES


@<TRIPOS>ATOM
   1 C1             0.6283     1.2744    -0.5730 C.ar    
   2 C2             0.5632    -0.1053    -0.4850 C.ar    
   3 C3             1.7456    -0.8420    -0.5146 C.ar    
   4 N4             2.9179    -0.2312    -0.6251 N.ar    
   5 C5             3.0079     1.0806    -0.7106 C.ar    
   6 C6             1.8752     1.8728    -0.6879 C.ar    
   7 C7             1.6929    -2.3216    -0.4212 C.ar    
   8 C8             2.8703    -3.0665    -0.4500 C.ar    
   9 C9             2.8154    -4.4427    -0.3623 C.ar    
  10 C10            1.5947    -5.0828    -0.2460 C.ar    
  11 C11            0.4228    -4.3484    -0.2169 C.ar    
  12 C12            0.4662    -2.9714    -0.2986 C.ar    
  13 C13            1.5412    -6.5858    -0.1511 C.3     
  14 C14            1.3629    -6.9985     1.3113 C.3     
  15 N15            0.4125    -7.0851    -0.9405 N.pl3   
  16 C16            0.4592    -8.3558    -1.4885 C.ar    
  17 N17           -0.5098    -8.7531    -2.3017 N.ar    
  18 C18           -0.5069    -9.9522    -2.8456 C.ar    
  19 C19            0.5282   -10.8493    -2.5780 C.ar    
  20 C20            1.5670   -10.4550    -1.7206 C.ar    
  21 C21            1.5273    -9.1975    -1.1820 C.ar    
  22 C22            0.5300   -12.1931    -3.1872 C.2     
  23 N23           -0.4727   -12.5619    -4.0089 N.am    
  24 O24            1.4362   -12.9678    -2.9481 O.2     
  25 C25           -0.4708   -13.8961    -4.6138 C.3     
  26 C26           -1.7104   -14.0579    -5.4959 C.3     
  27 C27           -1.7085   -15.4304    -6.1182 C.2     
  28 O28           -2.7071   -15.7977    -6.9365 O.3     
  29 O29           -0.8081   -16.2002    -5.8805 O.2     
  30 C30            2.6096    -6.6073     2.1073 C.3     
  31 C31            2.3790    -6.8977     3.5916 C.3     
  32 C32            3.8079    -7.4178     1.6092 C.3     
  33 H33           -0.2714     1.8716    -0.5572 H       
  34 H34           -0.3905    -0.6038    -0.3942 H       
  35 H35            3.9798     1.5432    -0.7992 H       
  36 H36            1.9598     2.9472    -0.7590 H       
  37 H37            3.8239    -2.5678    -0.5411 H       
  38 H38            3.7272    -5.0211    -0.3849 H       
  39 H39           -0.5276    -4.8533    -0.1263 H       
  40 H40           -0.4493    -2.3989    -0.2754 H       
  41 H41            2.4692    -7.0075    -0.5371 H       
  42 H42            0.4921    -6.4924     1.7281 H       
  43 H43            1.2185    -8.0774     1.3694 H       
  44 H44           -0.3675    -6.5255    -1.0793 H       
  45 H45           -1.3119   -10.2440    -3.5038 H       
  46 H46            2.3816   -11.1271    -1.4946 H       
  47 H47            2.3114    -8.8637    -0.5186 H       
  48 H48           -1.1955   -11.9438    -4.1996 H       
  49 H49            0.4259   -14.0184    -5.2213 H       
  50 H50           -0.4830   -14.6514    -3.8280 H       
  51 H51           -2.6071   -13.9356    -4.8884 H       
  52 H52           -1.6982   -13.3026    -6.2817 H       
  53 H53           -2.6624   -16.6878    -7.3117 H       
  54 H54            2.8084    -5.5442     1.9717 H       
  55 H55            2.1801    -7.9608     3.7273 H       
  56 H56            3.2671    -6.6189     4.1587 H       
  57 H57            1.5253    -6.3202     3.9465 H       
  58 H58            4.0318    -7.1398     0.5793 H       
  59 H59            4.6736    -7.2101     2.2380 H       
  60 H60            3.5719    -8.4809     1.6554 H       
@<TRIPOS>BOND
   1    1    2 ar
   2    1    6 ar
   3    1   33 1
   4    2    3 ar
   5    2   34 1
   6    3    4 ar
   7    3    7 1
   8    4    5 ar
   9    5    6 ar
  10    5   35 1
  11    6   36 1
  12    7    8 ar
  13    7   12 ar
  14    8    9 ar
  15    8   37 1
  16    9   10 ar
  17    9   38 1
  18   10   11 ar
  19   10   13 1
  20   11   12 ar
  21   11   39 1
  22   12   40 1
  23   13   14 1
  24   13   15 1
  25   13   41 1
  26   14   30 1
  27   14   42 1
  28   14   43 1
  29   15   16 1
  30   15   44 1
  31   16   17 ar
  32   16   21 ar
  33   17   18 ar
  34   18   19 ar
  35   18   45 1
  36   19   20 ar
  37   19   22 1
  38   20   21 ar
  39   20   46 1
  40   21   47 1
  41   22   23 am
  42   22   24 2
  43   23   25 1
  44   23   48 1
  45   25   26 1
  46   25   49 1
  47   25   50 1
  48   26   27 1
  49   26   51 1
  50   26   52 1
  51   27   28 1
  52   27   29 2
  53   28   53 1
  54   30   31 1
  55   30   32 1
  56   30   54 1
  57   31   55 1
  58   31   56 1
  59   31   57 1
  60   32   58 1
  61   32   59 1
  62   32   60 1

#	End of record

