#	Name: ASD01200013
#	Creating user name:	WinNT
#	Creation time:	15. 06. 2019 19:08

#	Modifying user name:	WinNT
#	Modification time:	15. 06. 2019 19:08

#	Program:	/corina/corina34_cracker 3.40 0067  02.08.2006

@<TRIPOS>MOLECULE
ASD01200013
  36   38    0    0    0
SMALL
NO_CHARGES


@<TRIPOS>ATOM
   1 C1            -0.0168     1.3848     0.0097 C.ar    
   2 C2             0.0021    -0.0041     0.0020 C.ar    
   3 C3            -1.2085    -0.6815     0.0099 C.ar    
   4 C4            -2.3949     0.0529     0.0251 C.ar    
   5 N5            -2.3672     1.3757     0.0320 N.ar    
   6 C6            -1.2297     2.0453     0.0306 C.ar    
   7 O7            -1.2386    -2.0411     0.0024 O.3     
   8 C8             0.0199    -2.7177    -0.0136 C.3     
   9 C9            -0.2105    -4.2070    -0.0199 C.ar    
  10 N10           -3.6196    -0.6127     0.0327 N.pl3   
  11 C11           -4.8025     0.1116     0.0479 C.2     
  12 N12           -5.9912    -0.4071     0.0560 N.2     
  13 C13           -7.0095     0.4338     0.0707 C.2     
  14 C14           -6.6650     1.7222     0.0752 C.2     
  15 S15           -4.9059     1.8180     0.0660 S.3     
  16 Br16           1.6023     2.3617    -0.0006 Br      
  17 C17           -0.3278    -4.8832    -1.2198 C.ar    
  18 C18           -0.5391    -6.2493    -1.2256 C.ar    
  19 C19           -0.6328    -6.9392    -0.0314 C.ar    
  20 C20           -0.5146    -6.2631     1.1686 C.ar    
  21 C21           -0.2989    -4.8977     1.1742 C.ar    
  22 C22           -8.4448    -0.0254     0.0807 C.3     
  23 H23            0.9374    -0.5440    -0.0101 H       
  24 H24           -1.2477     3.1251     0.0367 H       
  25 H25            0.5746    -2.4321    -0.9074 H       
  26 H26            0.5919    -2.4423     0.8724 H       
  27 H27           -3.6447    -1.5824     0.0274 H       
  28 H28           -7.3457     2.5606     0.0864 H       
  29 H29           -0.2546    -4.3442    -2.1528 H       
  30 H30           -0.6315    -6.7775    -2.1631 H       
  31 H31           -0.7987    -8.0064    -0.0359 H       
  32 H32           -0.5881    -6.8021     2.1016 H       
  33 H33           -0.2065    -4.3695     2.1117 H       
  34 H34           -8.7817    -0.1424     1.1107 H       
  35 H35           -9.0666     0.7147    -0.4231 H       
  36 H36           -8.5243    -0.9806    -0.4383 H       
@<TRIPOS>BOND
   1    1    2 ar
   2    1   16 1
   3    1    6 ar
   4    2    3 ar
   5    2   23 1
   6    3    4 ar
   7    3    7 1
   8    4    5 ar
   9    4   10 1
  10    5    6 ar
  11    6   24 1
  12    7    8 1
  13    8    9 1
  14    8   25 1
  15    8   26 1
  16    9   17 ar
  17    9   21 ar
  18   10   11 1
  19   10   27 1
  20   11   12 2
  21   11   15 1
  22   12   13 1
  23   13   14 2
  24   13   22 1
  25   14   15 1
  26   14   28 1
  27   17   18 ar
  28   17   29 1
  29   18   19 ar
  30   18   30 1
  31   19   20 ar
  32   19   31 1
  33   20   21 ar
  34   20   32 1
  35   21   33 1
  36   22   34 1
  37   22   35 1
  38   22   36 1

#	End of record

