#	Name: ASD00960261
#	Creating user name:	WinNT
#	Creation time:	15. 06. 2019 18:53

#	Modifying user name:	WinNT
#	Modification time:	15. 06. 2019 18:53

#	Program:	/corina/corina34_cracker 3.40 0067  02.08.2006

@<TRIPOS>MOLECULE
ASD00960261
  34   36    0    0    0
SMALL
NO_CHARGES


@<TRIPOS>ATOM
   1 C1            -0.0168     1.3853     0.0097 C.2     
   2 C2             0.0021    -0.0041     0.0020 C.2     
   3 N3             1.2844     1.8117    -0.0005 N.pl3   
   4 C4             2.0995     0.7201     0.0003 C.2     
   5 C5             1.3488    -0.3950    -0.0055 C.2     
   6 N6             1.8045     3.1145     0.0033 N.2     
   7 C7             3.0721     3.2747    -0.2332 C.2     
   8 N8             3.8976     2.2101    -0.5250 N.pl3   
   9 C9             3.6043     0.8716     0.0185 C.3     
  10 N10            4.1049     0.7668     1.3956 N.3     
  11 F11           -1.0727    -0.8226     0.0023 F       
  12 C12           -1.1703     2.2092     0.0198 C.2     
  13 O13           -2.2778     1.7054     0.0230 O.2     
  14 O14           -1.0400     3.5523     0.0260 O.3     
  15 C15           -2.2446     4.3209     0.0362 C.3     
  16 C16           -1.9038     5.7889     0.0419 C.ar    
  17 C17           -1.7538     6.4683    -1.1527 C.ar    
  18 C18           -1.4411     7.8148    -1.1474 C.ar    
  19 C19           -1.2790     8.4820     0.0523 C.ar    
  20 C20           -1.4300     7.8029     1.2468 C.ar    
  21 C21           -1.7469     6.4574     1.2416 C.ar    
  22 H22            1.7169    -1.4103    -0.0147 H       
  23 H23            3.4905     4.2698    -0.2005 H       
  24 H24            4.6747     2.3424    -1.0902 H       
  25 H25            4.0639     0.1058    -0.6064 H       
  26 H26            5.1026     0.9129     1.4298 H       
  27 H27            3.6239     1.4112     2.0052 H       
  28 H28           -2.8319     4.0877    -0.8520 H       
  29 H29           -2.8227     4.0787     0.9280 H       
  30 H30           -1.8804     5.9469    -2.0900 H       
  31 H31           -1.3232     8.3454    -2.0807 H       
  32 H32           -1.0341     9.5339     0.0564 H       
  33 H33           -1.3030     8.3242     2.1841 H       
  34 H34           -1.8685     5.9276     2.1749 H       
@<TRIPOS>BOND
   1    1    2 2
   2    1    3 1
   3    1   12 1
   4    2   11 1
   5    2    5 1
   6    3    4 1
   7    3    6 1
   8    4    5 2
   9    4    9 1
  10    5   22 1
  11    6    7 2
  12    7    8 1
  13    7   23 1
  14    8    9 1
  15    8   24 1
  16    9   10 1
  17    9   25 1
  18   10   26 1
  19   10   27 1
  20   12   13 2
  21   12   14 1
  22   14   15 1
  23   15   16 1
  24   15   28 1
  25   15   29 1
  26   16   17 ar
  27   16   21 ar
  28   17   18 ar
  29   17   30 1
  30   18   19 ar
  31   18   31 1
  32   19   20 ar
  33   19   32 1
  34   20   21 ar
  35   20   33 1
  36   21   34 1

#	End of record

