#	Name: ASD01940347
#	Creating user name:	WinNT
#	Creation time:	15. 06. 2019 20:12

#	Modifying user name:	WinNT
#	Modification time:	15. 06. 2019 20:12

#	Program:	/corina/corina34_cracker 3.40 0067  02.08.2006

@<TRIPOS>MOLECULE
ASD01940347
  41   42    0    0    0
SMALL
NO_CHARGES


@<TRIPOS>ATOM
   1 C1            -0.5568     1.4971     0.1497 C.3     
   2 C2            -0.4497    -0.0287     0.1141 C.3     
   3 C3             0.2000    -0.5247     1.4074 C.3     
   4 C4             0.4209    -2.0362     1.3202 C.3     
   5 S5            -2.1077    -0.7477    -0.0440 S.o2    
   6 O6            -2.0243    -2.1477    -0.2725 O.2     
   7 O7            -2.9776    -0.2175     0.9466 O.2     
   8 N8            -2.6894    -0.1353    -1.4684 N.am    
   9 C9            -2.0253    -0.4085    -2.6717 C.ar    
  10 C10           -1.9657     0.5607    -3.6723 C.ar    
  11 C11           -1.3060     0.2848    -4.8621 C.ar    
  12 C12           -0.7092    -0.9518    -5.0517 C.ar    
  13 C13           -0.7702    -1.9124    -4.0572 C.ar    
  14 C14           -1.4212    -1.6410    -2.8673 C.ar    
  15 N15           -2.5706     1.8100    -3.4775 N.pl3   
  16 C16           -2.8514     2.6297    -4.5751 C.ar    
  17 C17           -3.8986     2.3106    -5.4340 C.ar    
  18 C18           -4.1730     3.1238    -6.5176 C.ar    
  19 C19           -3.4071     4.2532    -6.7479 C.ar    
  20 C20           -2.3657     4.5719    -5.8957 C.ar    
  21 C21           -2.0896     3.7668    -4.8071 C.ar    
  22 I22           -3.8260     5.4826    -8.3917 I       
  23 F23           -4.6456     1.2075    -5.2095 F       
  24 F24           -0.0672    -1.2202    -6.2097 F       
  25 F25           -1.2461     1.2207    -5.8346 F       
  26 H26            0.4395     1.9291     0.2447 H       
  27 H27           -1.0196     1.8505    -0.7717 H       
  28 H28           -1.1663     1.7988     1.0014 H       
  29 H29            0.1599    -0.3304    -0.7377 H       
  30 H30            1.1585    -0.0249     1.5474 H       
  31 H31           -0.4530    -0.3010     2.2511 H       
  32 H32           -0.5376    -2.5359     1.1802 H       
  33 H33            1.0739    -2.2598     0.4766 H       
  34 H34            0.8838    -2.3895     2.2416 H       
  35 H35           -3.4900     0.4124    -1.4698 H       
  36 H36           -0.3046    -2.8750    -4.2089 H       
  37 H37           -1.4626    -2.3913    -2.0916 H       
  38 H38           -2.7945     2.1060    -2.5813 H       
  39 H39           -4.9855     2.8774    -7.1851 H       
  40 H40           -1.7697     5.4537    -6.0790 H       
  41 H41           -1.2787     4.0195    -4.1400 H       
@<TRIPOS>BOND
   1    1    2 1
   2    1   26 1
   3    1   27 1
   4    1   28 1
   5    2    3 1
   6    2    5 1
   7    2   29 1
   8    3    4 1
   9    3   30 1
  10    3   31 1
  11    4   32 1
  12    4   33 1
  13    4   34 1
  14    5    6 2
  15    5    7 2
  16    5    8 am
  17    8    9 1
  18    8   35 1
  19    9   10 ar
  20    9   14 ar
  21   10   11 ar
  22   10   15 1
  23   11   12 ar
  24   11   25 1
  25   12   13 ar
  26   12   24 1
  27   13   14 ar
  28   13   36 1
  29   14   37 1
  30   15   16 1
  31   15   38 1
  32   16   17 ar
  33   16   21 ar
  34   17   18 ar
  35   17   23 1
  36   18   19 ar
  37   18   39 1
  38   19   20 ar
  39   19   22 1
  40   20   21 ar
  41   20   40 1
  42   21   41 1

#	End of record

