#	Name: ASD01910778
#	Creating user name:	WinNT
#	Creation time:	15. 06. 2019 19:56

#	Modifying user name:	WinNT
#	Modification time:	15. 06. 2019 19:56

#	Program:	/corina/corina34_cracker 3.40 0067  02.08.2006

@<TRIPOS>MOLECULE
ASD01910778
  53   56    0    0    0
SMALL
NO_CHARGES


@<TRIPOS>ATOM
   1 C1             0.0754     1.7556    -0.3708 C.ar    
   2 C2             0.0178     0.3710    -0.3970 C.ar    
   3 N3             1.1433    -0.3225    -0.3512 N.ar    
   4 C4             2.3150     0.2919    -0.2811 C.ar    
   5 N5             2.4047     1.6135    -0.2544 N.ar    
   6 C6             1.3176     2.3659    -0.2972 C.ar    
   7 N7             3.4729    -0.4649    -0.2343 N.3     
   8 C8             4.6614     0.3953    -0.1594 C.3     
   9 C9             5.9025    -0.4730     0.0727 C.3     
  10 N10            5.9495    -1.5091    -0.9701 N.am    
  11 C11            4.7453    -2.3222    -1.1979 C.3     
  12 C12            3.5497    -1.3811    -1.3799 C.3     
  13 C13            7.0665    -1.7084    -1.6974 C.2     
  14 C14            7.1353    -2.8346    -2.6532 C.ar    
  15 O15            8.0174    -0.9625    -1.5676 O.2     
  16 C16            7.7574    -2.6640    -3.8920 C.ar    
  17 C17            7.8226    -3.7141    -4.7868 C.ar    
  18 C18            7.2743    -4.9390    -4.4646 C.ar    
  19 C19            6.6484    -5.1245    -3.2278 C.ar    
  20 C20            6.5849    -4.0695    -2.3175 C.ar    
  21 C21            6.0790    -6.3955    -2.8946 C.1     
  22 C22            5.6122    -7.4375    -2.6215 C.1     
  23 C23            5.0428    -8.7085    -2.2884 C.ar    
  24 N24            4.4492    -8.8776    -1.1108 N.ar    
  25 C25            3.9138   -10.0310    -0.7676 C.ar    
  26 C26            3.9501   -11.1149    -1.6257 C.ar    
  27 C27            4.5601   -10.9832    -2.8661 C.ar    
  28 C28            5.1099    -9.7606    -3.2057 C.ar    
  29 C29            1.4285     3.8685    -0.2669 C.3     
  30 C30           -1.3108    -0.3357    -0.4760 C.3     
  31 H31           -0.8280     2.3462    -0.4114 H       
  32 H32            4.7718     0.9453    -1.0939 H       
  33 H33            4.5499     1.0985     0.6660 H       
  34 H34            6.7981     0.1456     0.0149 H       
  35 H35            5.8418    -0.9436     1.0540 H       
  36 H36            4.8758    -2.9263    -2.0957 H       
  37 H37            4.5734    -2.9706    -0.3387 H       
  38 H38            2.6320    -1.9663    -1.4398 H       
  39 H39            3.6756    -0.8064    -2.2975 H       
  40 H40            8.1883    -1.7082    -4.1511 H       
  41 H41            8.3046    -3.5760    -5.7433 H       
  42 H42            7.3285    -5.7558    -5.1690 H       
  43 H43            6.1028    -4.2066    -1.3608 H       
  44 H44            3.4401   -10.1319     0.1977 H       
  45 H45            3.5080   -12.0560    -1.3333 H       
  46 H46            4.6006   -11.8162    -3.5524 H       
  47 H47            5.5916    -9.6233    -4.1625 H       
  48 H48            1.5073     4.2477    -1.2858 H       
  49 H49            0.5428     4.2887     0.2096 H       
  50 H50            2.3156     4.1561     0.2974 H       
  51 H51           -1.5792    -0.4889    -1.5213 H       
  52 H52           -1.2396    -1.3006     0.0259 H       
  53 H53           -2.0747     0.2712     0.0100 H       
@<TRIPOS>BOND
   1    1    2 ar
   2    1    6 ar
   3    1   31 1
   4    2    3 ar
   5    2   30 1
   6    3    4 ar
   7    4    5 ar
   8    4    7 1
   9    5    6 ar
  10    6   29 1
  11    7    8 1
  12    7   12 1
  13    8    9 1
  14    8   32 1
  15    8   33 1
  16    9   10 1
  17    9   34 1
  18    9   35 1
  19   10   11 1
  20   10   13 am
  21   11   12 1
  22   11   36 1
  23   11   37 1
  24   12   38 1
  25   12   39 1
  26   13   14 1
  27   13   15 2
  28   14   16 ar
  29   14   20 ar
  30   16   17 ar
  31   16   40 1
  32   17   18 ar
  33   17   41 1
  34   18   19 ar
  35   18   42 1
  36   19   20 ar
  37   19   21 1
  38   20   43 1
  39   21   22 3
  40   22   23 1
  41   23   24 ar
  42   23   28 ar
  43   24   25 ar
  44   25   26 ar
  45   25   44 1
  46   26   27 ar
  47   26   45 1
  48   27   28 ar
  49   27   46 1
  50   28   47 1
  51   29   48 1
  52   29   49 1
  53   29   50 1
  54   30   51 1
  55   30   52 1
  56   30   53 1

#	End of record

