#	Name: ASD01916212
#	Creating user name:	WinNT
#	Creation time:	15. 06. 2019 20:06

#	Modifying user name:	WinNT
#	Modification time:	15. 06. 2019 20:06

#	Program:	/corina/corina34_cracker 3.40 0067  02.08.2006

@<TRIPOS>MOLECULE
ASD01916212
  39   41    0    0    0
SMALL
NO_CHARGES


@<TRIPOS>ATOM
   1 C1             0.2320     1.3181    -0.2595 C.ar    
   2 C2             0.3511    -0.0591    -0.2600 C.ar    
   3 C3             1.5778    -0.6501    -0.0349 C.ar    
   4 C4             2.7028     0.1438     0.1936 C.ar    
   5 C5             2.5814     1.5338     0.1933 C.ar    
   6 C6             1.3457     2.1164    -0.0332 C.ar    
   7 O7             1.2230     3.4698    -0.0348 O.3     
   8 C8             1.6758     4.1502    -1.1204 C.ar    
   9 C9             1.5677     5.5320    -1.1802 C.ar    
  10 N10            2.0057     6.1961    -2.2315 N.ar    
  11 C11            2.5588     5.5829    -3.2594 C.ar    
  12 C12            2.7013     4.2078    -3.2729 C.ar    
  13 C13            2.2598     3.4714    -2.1857 C.ar    
  14 C14            4.0183    -0.4858     0.4355 C.2     
  15 N15            4.1328    -1.8287     0.4356 N.am    
  16 O16            4.9967     0.2077     0.6342 O.2     
  17 C17            5.3931    -2.4230     0.5552 C.ar    
  18 C18            6.3683    -1.8328     1.3484 C.ar    
  19 C19            7.6119    -2.4226     1.4647 C.ar    
  20 C20            7.8863    -3.5993     0.7925 C.ar    
  21 C21            6.9173    -4.1894     0.0013 C.ar    
  22 C22            5.6702    -3.6079    -0.1146 C.ar    
  23 C23            7.2209    -5.4716    -0.7299 C.3     
  24 H24           -0.7297     1.7751    -0.4403 H       
  25 H25           -0.5186    -0.6745    -0.4366 H       
  26 H26            1.6671    -1.7264    -0.0353 H       
  27 H27            3.4482     2.1534     0.3698 H       
  28 H28            1.1199     6.0691    -0.3572 H       
  29 H29            2.9048     6.1627    -4.1023 H       
  30 H30            3.1553     3.7139    -4.1192 H       
  31 H31            2.3584     2.3960    -2.1691 H       
  32 H32            3.3411    -2.3830     0.3529 H       
  33 H33            6.1548    -0.9135     1.8734 H       
  34 H34            8.3709    -1.9639     2.0811 H       
  35 H35            8.8594    -4.0584     0.8851 H       
  36 H36            4.9141    -4.0692    -0.7326 H       
  37 H37            6.9624    -6.3207    -0.0972 H       
  38 H38            6.6370    -5.5125    -1.6494 H       
  39 H39            8.2830    -5.5091    -0.9721 H       
@<TRIPOS>BOND
   1    1    2 ar
   2    1    6 ar
   3    1   24 1
   4    2    3 ar
   5    2   25 1
   6    3    4 ar
   7    3   26 1
   8    4    5 ar
   9    4   14 1
  10    5    6 ar
  11    5   27 1
  12    6    7 1
  13    7    8 1
  14    8    9 ar
  15    8   13 ar
  16    9   10 ar
  17    9   28 1
  18   10   11 ar
  19   11   12 ar
  20   11   29 1
  21   12   13 ar
  22   12   30 1
  23   13   31 1
  24   14   15 am
  25   14   16 2
  26   15   17 1
  27   15   32 1
  28   17   18 ar
  29   17   22 ar
  30   18   19 ar
  31   18   33 1
  32   19   20 ar
  33   19   34 1
  34   20   21 ar
  35   20   35 1
  36   21   22 ar
  37   21   23 1
  38   22   36 1
  39   23   37 1
  40   23   38 1
  41   23   39 1

#	End of record

