#	Name: ASD03092013
#	Creating user name:	WinNT
#	Creation time:	15. 06. 2019 20:31

#	Modifying user name:	WinNT
#	Modification time:	15. 06. 2019 20:31

#	Program:	/corina/corina34_cracker 3.40 0067  02.08.2006

@<TRIPOS>MOLECULE
ASD03092013
  48   50    0    0    0
SMALL
NO_CHARGES


@<TRIPOS>ATOM
   1 N1            -0.0334     1.2239    -0.2320 N.pl3   
   2 C2            -0.0877    -0.1231    -0.0309 C.2     
   3 C3            -1.3948    -0.4519     0.1888 C.2     
   4 C4            -2.1500     0.7259     0.1188 C.2     
   5 N5            -1.3364     1.7268    -0.1264 N.2     
   6 C6             1.1742     2.0074    -0.5041 C.3     
   7 C7             1.4766     1.9679    -1.9799 C.2     
   8 N8             2.5495     2.6232    -2.4657 N.am    
   9 O9             0.7546     1.3465    -2.7305 O.2     
  10 C10            2.8436     2.5848    -3.9004 C.3     
  11 C11            3.4217     3.3739    -1.5590 C.3     
  12 N12           -3.5367     0.8206     0.2877 N.pl3   
  13 C13           -4.1542     2.0749     0.3101 C.ar    
  14 C14           -5.4862     2.2007    -0.0617 C.ar    
  15 C15           -6.0949     3.4426    -0.0382 C.ar    
  16 C16           -5.3750     4.5603     0.3559 C.ar    
  17 C17           -4.0471     4.4353     0.7261 C.ar    
  18 C18           -3.4376     3.1959     0.7098 C.ar    
  19 F19           -7.3907     3.5666    -0.3996 F       
  20 F20           -5.9703     5.7729     0.3781 F       
  21 C21            1.0592    -1.0579    -0.0480 C.ar    
  22 C22            2.2049    -0.7740     0.6958 C.ar    
  23 C23            3.2728    -1.6480     0.6781 C.ar    
  24 C24            3.2119    -2.8060    -0.0749 C.ar    
  25 C25            2.0766    -3.0974    -0.8183 C.ar    
  26 C26            0.9965    -2.2293    -0.8035 C.ar    
  27 O27            2.0222    -4.2371    -1.5572 O.3     
  28 C28            3.1694    -5.0884    -1.5220 C.3     
  29 Cl29          -0.4247    -2.5914    -1.7323 Cl      
  30 H30           -1.7780    -1.4430     0.3817 H       
  31 H31            1.0150     3.0400    -0.1934 H       
  32 H32            2.0130     1.5864     0.0501 H       
  33 H33            2.3403     3.4146    -4.3967 H       
  34 H34            3.9196     2.6688    -4.0531 H       
  35 H35            2.4897     1.6426    -4.3187 H       
  36 H36            4.2142     2.7208    -1.1936 H       
  37 H37            3.8621     4.2160    -2.0928 H       
  38 H38            2.8378     3.7433    -0.7160 H       
  39 H39           -4.0689     0.0160     0.3891 H       
  40 H40           -6.0462     1.3300    -0.3693 H       
  41 H41           -3.4881     5.3072     1.0324 H       
  42 H42           -2.4015     3.0997     0.9989 H       
  43 H43            2.2562     0.1298     1.2849 H       
  44 H44            4.1591    -1.4266     1.2541 H       
  45 H45            4.0509    -3.4860    -0.0851 H       
  46 H46            2.9946    -5.9599    -2.1530 H       
  47 H47            4.0384    -4.5424    -1.8892 H       
  48 H48            3.3502    -5.4122    -0.4971 H       
@<TRIPOS>BOND
   1    1    2 1
   2    1    6 1
   3    1    5 1
   4    2    3 2
   5    2   21 1
   6    3    4 1
   7    3   30 1
   8    4    5 2
   9    4   12 1
  10    6    7 1
  11    6   31 1
  12    6   32 1
  13    7    8 am
  14    7    9 2
  15    8   10 1
  16    8   11 1
  17   10   33 1
  18   10   34 1
  19   10   35 1
  20   11   36 1
  21   11   37 1
  22   11   38 1
  23   12   13 1
  24   12   39 1
  25   13   14 ar
  26   13   18 ar
  27   14   15 ar
  28   14   40 1
  29   15   16 ar
  30   15   19 1
  31   16   17 ar
  32   16   20 1
  33   17   18 ar
  34   17   41 1
  35   18   42 1
  36   21   22 ar
  37   21   26 ar
  38   22   23 ar
  39   22   43 1
  40   23   24 ar
  41   23   44 1
  42   24   25 ar
  43   24   45 1
  44   25   26 ar
  45   25   27 1
  46   26   29 1
  47   27   28 1
  48   28   46 1
  49   28   47 1
  50   28   48 1

#	End of record

