#	Name: ASD01410109
#	Creating user name:	WinNT
#	Creation time:	15. 06. 2019 19:16

#	Modifying user name:	WinNT
#	Modification time:	15. 06. 2019 19:16

#	Program:	/corina/corina34_cracker 3.40 0067  02.08.2006

@<TRIPOS>MOLECULE
ASD01410109
  57   60    0    0    0
SMALL
NO_CHARGES


@<TRIPOS>ATOM
   1 C1            -0.0169     1.3985     0.0097 C.ar    
   2 C2             0.0021    -0.0041     0.0020 C.ar    
   3 C3            -1.1621    -0.7095     0.0093 C.ar    
   4 C4            -2.3912    -0.0350     0.0242 C.ar    
   5 C5            -2.4205     1.3747     0.0321 C.ar    
   6 C6            -1.2300     2.0848     0.0308 C.ar    
   7 C7            -3.7375    -0.4726     0.0346 C.2     
   8 C8            -4.5316     0.6279     0.0481 C.2     
   9 N9            -3.7458     1.7562     0.0467 N.pl3   
  10 C10           -6.0101     0.6154     0.0621 C.ar    
  11 C11           -6.7285     1.4539     0.9226 C.ar    
  12 C12           -8.1089    -0.2101    -0.7426 C.ar    
  13 C13           -6.7305    -0.2310    -0.7889 C.ar    
  14 C14           -4.2056    -1.9051     0.0306 C.3     
  15 C15           -3.6900    -2.6065    -1.2276 C.3     
  16 C16           -4.1651    -4.0609    -1.2317 C.3     
  17 C17           -3.6264    -4.7769     0.0084 C.3     
  18 C18           -4.1419    -4.0755     1.2666 C.3     
  19 C19           -3.6668    -2.6211     1.2707 C.3     
  20 C20            1.2517     2.1500     0.0017 C.2     
  21 O21            2.4261     1.4893    -0.0131 O.3     
  22 C22           -4.2359     3.1368     0.0588 C.3     
  23 C23           -4.3904     3.6025     1.4837 C.2     
  24 N24           -4.8313     4.8499     1.7409 N.am    
  25 O25            1.2381     3.3650     0.0083 O.2     
  26 O26           -4.1180     2.8548     2.3990 O.2     
  27 C27           -8.1069     1.4095     0.9026 C.ar    
  28 N28           -8.7469     0.5923     0.0880 N.ar    
  29 C29           -4.9816     5.3026     3.1261 C.3     
  30 C30           -5.1603     5.7530     0.6353 C.3     
  31 H31            0.9466    -0.5277    -0.0102 H       
  32 H32           -1.1389    -1.7892     0.0033 H       
  33 H33           -1.2424     3.1647     0.0371 H       
  34 H34           -6.2113     2.1250     1.5922 H       
  35 H35           -8.6736    -0.8594    -1.3952 H       
  36 H36           -6.2148    -0.8901    -1.4716 H       
  37 H37           -5.2952    -1.9314     0.0406 H       
  38 H38           -4.0738    -2.0964    -2.1111 H       
  39 H39           -2.6003    -2.5803    -1.2375 H       
  40 H40           -5.2548    -4.0872    -1.2217 H       
  41 H41           -3.7978    -4.5606    -2.1280 H       
  42 H42           -3.9649    -5.8130     0.0055 H       
  43 H43           -2.5367    -4.7507    -0.0015 H       
  44 H44           -5.2316    -4.1018     1.2766 H       
  45 H45           -3.7581    -4.5856     2.1501 H       
  46 H46           -2.5772    -2.5949     1.2608 H       
  47 H47           -4.0341    -2.1214     2.1671 H       
  48 H48            3.2311     2.0250    -0.0179 H       
  49 H49           -3.5236     3.7797    -0.4583 H       
  50 H50           -5.2010     3.1842    -0.4456 H       
  51 H51           -8.6701     2.0523     1.5630 H       
  52 H52           -4.0504     5.7587     3.4622 H       
  53 H53           -5.7865     6.0353     3.1835 H       
  54 H54           -5.2195     4.4507     3.7630 H       
  55 H55           -4.9870     5.2445    -0.3131 H       
  56 H56           -6.2081     6.0455     0.7046 H       
  57 H57           -4.5307     6.6410     0.6918 H       
@<TRIPOS>BOND
   1    1    2 ar
   2    1   20 1
   3    1    6 ar
   4    2    3 ar
   5    2   31 1
   6    3    4 ar
   7    3   32 1
   8    4    5 ar
   9    4    7 1
  10    5    6 ar
  11    5    9 1
  12    6   33 1
  13    7    8 2
  14    7   14 1
  15    8    9 1
  16    8   10 1
  17    9   22 1
  18   10   11 ar
  19   10   13 ar
  20   11   27 ar
  21   11   34 1
  22   12   13 ar
  23   12   28 ar
  24   12   35 1
  25   13   36 1
  26   14   15 1
  27   14   19 1
  28   14   37 1
  29   15   16 1
  30   15   38 1
  31   15   39 1
  32   16   17 1
  33   16   40 1
  34   16   41 1
  35   17   18 1
  36   17   42 1
  37   17   43 1
  38   18   19 1
  39   18   44 1
  40   18   45 1
  41   19   46 1
  42   19   47 1
  43   20   21 1
  44   20   25 2
  45   21   48 1
  46   22   23 1
  47   22   49 1
  48   22   50 1
  49   23   24 am
  50   23   26 2
  51   24   29 1
  52   24   30 1
  53   27   28 ar
  54   27   51 1
  55   29   52 1
  56   29   53 1
  57   29   54 1
  58   30   55 1
  59   30   56 1
  60   30   57 1

#	End of record

