#	Name: ASD02560418
#	Creating user name:	WinNT
#	Creation time:	15. 06. 2019 20:25

#	Modifying user name:	WinNT
#	Modification time:	15. 06. 2019 20:25

#	Program:	/corina/corina34_cracker 3.40 0067  02.08.2006

@<TRIPOS>MOLECULE
ASD02560418
  40   43    0    0    0
SMALL
NO_CHARGES


@<TRIPOS>ATOM
   1 C1             0.1330     1.3901     1.0935 C.2     
   2 C2             0.1542    -0.0161     1.0831 C.2     
   3 C3             1.2834    -0.6779     0.7607 C.2     
   4 N4             2.4246     0.0066     0.4391 N.pl3   
   5 C5             2.4340     1.3828     0.4402 C.2     
   6 C6             1.2571     2.0853     0.7762 C.2     
   7 C7             3.6776    -0.4086     0.0823 C.2     
   8 C8             4.4298     0.7279    -0.1281 C.2     
   9 N9             3.6432     1.7960     0.0981 N.2     
  10 C10            5.8550     0.7663    -0.5318 C.ar    
  11 N11            4.1119    -1.7285    -0.0442 N.3     
  12 C12            2.9884    -2.6666     0.0816 C.3     
  13 C13            3.3173    -3.9831    -0.6440 C.3     
  14 C14            6.3151     1.7736    -1.3788 C.ar    
  15 C15            6.7419    -0.2019    -0.0610 C.ar    
  16 C16            7.6456     1.8046    -1.7515 C.ar    
  17 C17            8.5208     0.8361    -1.2842 C.ar    
  18 C18            8.0682    -0.1624    -0.4389 C.ar    
  19 C19            2.7630    -3.0254     1.5649 C.3     
  20 C20            2.3694    -4.5232     1.5378 C.3     
  21 C21            3.2803    -5.0959     0.4237 C.3     
  22 F22            8.0938     2.7794    -2.5725 F       
  23 Cl23          10.1910     0.8795    -1.7554 Cl      
  24 H24           -0.7752     1.9161     1.3485 H       
  25 H25           -0.7389    -0.5686     1.3351 H       
  26 H26            1.2879    -1.7579     0.7565 H       
  27 H27            1.2496     3.1652     0.7810 H       
  28 H28            4.6020    -1.8660    -0.9153 H       
  29 H29            2.0846    -2.2247    -0.3380 H       
  30 H30            2.5726    -4.1805    -1.4151 H       
  31 H31            4.3105    -3.9259    -1.0895 H       
  32 H32            5.6333     2.5278    -1.7430 H       
  33 H33            6.3908    -0.9815     0.5988 H       
  34 H34            8.7541    -0.9142    -0.0775 H       
  35 H35            3.6806    -2.8823     2.1357 H       
  36 H36            1.9547    -2.4260     1.9838 H       
  37 H37            2.5859    -4.9969     2.4954 H       
  38 H38            1.3179    -4.6416     1.2761 H       
  39 H39            2.8495    -6.0076     0.0097 H       
  40 H40            4.2814    -5.2872     0.8101 H       
@<TRIPOS>BOND
   1    1    2 1
   2    1    6 2
   3    1   24 1
   4    2    3 2
   5    2   25 1
   6    3    4 1
   7    3   26 1
   8    4    5 1
   9    4    7 1
  10    5    6 1
  11    5    9 2
  12    6   27 1
  13    7    8 2
  14    7   11 1
  15    8    9 1
  16    8   10 1
  17   10   14 ar
  18   10   15 ar
  19   11   12 1
  20   11   28 1
  21   12   13 1
  22   12   19 1
  23   12   29 1
  24   13   21 1
  25   13   30 1
  26   13   31 1
  27   14   16 ar
  28   14   32 1
  29   15   18 ar
  30   15   33 1
  31   16   17 ar
  32   16   22 1
  33   17   18 ar
  34   17   23 1
  35   18   34 1
  36   19   20 1
  37   19   35 1
  38   19   36 1
  39   20   21 1
  40   20   37 1
  41   20   38 1
  42   21   39 1
  43   21   40 1

#	End of record

