#	Name: ASD01900582
#	Creating user name:	WinNT
#	Creation time:	15. 06. 2019 19:52

#	Modifying user name:	WinNT
#	Modification time:	15. 06. 2019 19:52

#	Program:	/corina/corina34_cracker 3.40 0067  02.08.2006

@<TRIPOS>MOLECULE
ASD01900582
  42   45    0    0    0
SMALL
NO_CHARGES


@<TRIPOS>ATOM
   1 C1             0.9846     3.1564     0.7507 C.ar    
   2 C2             2.0473     3.6068     1.5297 C.ar    
   3 C3             3.2479     2.9140     1.4984 C.ar    
   4 C4             3.3446     1.7943     0.6889 C.ar    
   5 C5             2.2447     1.4008    -0.0624 C.ar    
   6 N6             1.1162     2.0781    -0.0131 N.ar    
   7 C7            -0.3058     3.8830     0.7788 C.2     
   8 O8            -0.4336     4.8676     1.4798 O.2     
   9 N9            -1.3382     3.4523     0.0271 N.am    
  10 F10            2.3335     0.3095    -0.8537 F       
  11 C11           -2.5856     4.0788     0.1267 C.ar    
  12 C12           -2.6593     5.4499     0.3376 C.ar    
  13 C13           -3.8906     6.0678     0.4359 C.ar    
  14 C14           -5.0551     5.3176     0.3238 C.ar    
  15 C15           -4.9807     3.9479     0.1136 C.ar    
  16 C16           -3.7498     3.3309     0.0091 C.ar    
  17 S17           -9.6772     9.2191     0.7120 S.3     
  18 C18           -8.3320     8.5201    -0.2896 C.3     
  19 C19           -8.2726     7.0076    -0.0506 C.3     
  20 N20           -8.1359     6.7615     1.3958 N.am    
  21 C21           -9.0933     7.1711     2.4239 C.3     
  22 C22           -9.2327     8.6981     2.3943 C.3     
  23 C23           -6.9741     6.1139     1.5722 C.2     
  24 N24           -6.3066     5.9453     0.4236 N.am    
  25 C25           -6.9849     6.4535    -0.6251 C.2     
  26 O26           -6.5730     5.7250     2.6516 O.2     
  27 O27           -6.6368     6.4642    -1.7864 O.2     
  28 Cl28          -3.9836     7.7811     0.7000 Cl      
  29 H29            1.9379     4.4842     2.1498 H       
  30 H30            4.0892     3.2404     2.0919 H       
  31 H31            4.2661     1.2331     0.6420 H       
  32 H32           -1.2167     2.7080    -0.5829 H       
  33 H33           -1.7541     6.0325     0.4250 H       
  34 H34           -5.8858     3.3651     0.0268 H       
  35 H35           -3.6924     2.2656    -0.1593 H       
  36 H36           -8.5225     8.7160    -1.3448 H       
  37 H37           -7.3851     8.9737     0.0030 H       
  38 H38           -9.1516     6.5080    -0.4577 H       
  39 H39          -10.0617     6.7124     2.2244 H       
  40 H40           -8.7337     6.8565     3.4036 H       
  41 H41           -8.2859     9.1563     2.6798 H       
  42 H42          -10.0132     9.0066     3.0898 H       
@<TRIPOS>BOND
   1    1    2 ar
   2    1    6 ar
   3    1    7 1
   4    2    3 ar
   5    2   29 1
   6    3    4 ar
   7    3   30 1
   8    4    5 ar
   9    4   31 1
  10    5    6 ar
  11    5   10 1
  12    7    8 2
  13    7    9 am
  14    9   11 1
  15    9   32 1
  16   11   12 ar
  17   11   16 ar
  18   12   13 ar
  19   12   33 1
  20   13   14 ar
  21   13   28 1
  22   14   15 ar
  23   14   24 1
  24   15   16 ar
  25   15   34 1
  26   16   35 1
  27   17   18 1
  28   17   22 1
  29   18   19 1
  30   18   36 1
  31   18   37 1
  32   19   20 1
  33   19   25 1
  34   19   38 1
  35   20   21 1
  36   20   23 am
  37   21   22 1
  38   21   39 1
  39   21   40 1
  40   22   41 1
  41   22   42 1
  42   23   24 am
  43   23   26 2
  44   24   25 am
  45   25   27 2

#	End of record

