#	Name: ASD05143258
#	Creating user name:	WinNT
#	Creation time:	15. 06. 2019 20:57

#	Modifying user name:	WinNT
#	Modification time:	15. 06. 2019 20:57

#	Program:	/corina/corina34_cracker 3.40 0067  02.08.2006

@<TRIPOS>MOLECULE
ASD05143258
  48   50    0    0    0
SMALL
NO_CHARGES


@<TRIPOS>ATOM
   1 C1             0.4113     1.2206     0.1164 C.2     
   2 N2             0.3676    -0.0497    -0.2335 N.2     
   3 S3            -1.2821    -0.4316    -0.3752 S.3     
   4 C4            -1.8304     1.1460     0.0458 C.2     
   5 N5            -0.7393     1.8460     0.2677 N.2     
   6 N6            -3.1387     1.5823     0.1357 N.pl3   
   7 C7            -3.4154     2.8758     0.5950 C.ar    
   8 C8            -4.7317     3.2648     0.8366 C.ar    
   9 C9            -4.9994     4.5453     1.2908 C.ar    
  10 C10           -3.9619     5.4350     1.5036 C.ar    
  11 C11           -2.6561     5.0500     1.2641 C.ar    
  12 C12           -2.3798     3.7716     0.8161 C.ar    
  13 C13            1.4328    -0.8890    -0.4405 C.ar    
  14 C14            2.3963    -0.5749    -1.4003 C.ar    
  15 C15            1.5609    -2.0580     0.3118 C.ar    
  16 C16            2.6346    -2.8972     0.0989 C.ar    
  17 C17            3.5836    -2.5826    -0.8579 C.ar    
  18 C18            3.4654    -1.4231    -1.6032 C.ar    
  19 C19            1.7011     1.9156     0.3366 C.ar    
  20 C20            1.8233     3.2737     0.0445 C.ar    
  21 C21            2.7960     1.2155     0.8423 C.ar    
  22 C22            3.9946     1.8683     1.0457 C.ar    
  23 C23            4.1111     3.2146     0.7495 C.ar    
  24 C24            3.0271     3.9155     0.2522 C.ar    
  25 C25            0.5287    -2.4020     1.3546 C.3     
  26 O26           -5.7508     2.3891     0.6265 O.3     
  27 C27           -7.0740     2.8570     0.8954 C.3     
  28 H28           -3.8653     0.9925    -0.1194 H       
  29 H29           -6.0185     4.8495     1.4785 H       
  30 H30           -4.1727     6.4333     1.8575 H       
  31 H31           -1.8493     5.7482     1.4314 H       
  32 H32           -1.3587     3.4734     0.6299 H       
  33 H33            2.3050     0.3298    -1.9830 H       
  34 H34            2.7352    -3.8017     0.6805 H       
  35 H35            4.4226    -3.2430    -1.0204 H       
  36 H36            4.2093    -1.1836    -2.3486 H       
  37 H37            0.9777     3.8219    -0.3438 H       
  38 H38            2.7060     0.1646     1.0746 H       
  39 H39            4.8433     1.3272     1.4373 H       
  40 H40            5.0511     3.7214     0.9107 H       
  41 H41            3.1241     4.9664     0.0225 H       
  42 H42           -0.2204    -3.0638     0.9198 H       
  43 H43            1.0125    -2.9022     2.1935 H       
  44 H44            0.0475    -1.4887     1.7045 H       
  45 H45           -7.1502     3.1493     1.9427 H       
  46 H46           -7.2911     3.7167     0.2615 H       
  47 H47           -7.7898     2.0619     0.6871 H       
  48 Br48          10.0511    11.4333     7.1935 Br      
@<TRIPOS>BOND
   1    1    2 2
   2    1   19 1
   3    1    5 1
   4    2    3 1
   5    2   13 1
   6    3    4 1
   7    4    5 2
   8    4    6 1
   9    6    7 1
  10    6   28 1
  11    7    8 ar
  12    7   12 ar
  13    8    9 ar
  14    8   26 1
  15    9   10 ar
  16    9   29 1
  17   10   11 ar
  18   10   30 1
  19   11   12 ar
  20   11   31 1
  21   12   32 1
  22   13   14 ar
  23   13   15 ar
  24   14   18 ar
  25   14   33 1
  26   15   16 ar
  27   15   25 1
  28   16   17 ar
  29   16   34 1
  30   17   18 ar
  31   17   35 1
  32   18   36 1
  33   19   20 ar
  34   19   21 ar
  35   20   24 ar
  36   20   37 1
  37   21   22 ar
  38   21   38 1
  39   22   23 ar
  40   22   39 1
  41   23   24 ar
  42   23   40 1
  43   24   41 1
  44   25   42 1
  45   25   43 1
  46   25   44 1
  47   26   27 1
  48   27   45 1
  49   27   46 1
  50   27   47 1

#	End of record

