#	Name: ASD01917812
#	Creating user name:	WinNT
#	Creation time:	15. 06. 2019 20:10

#	Modifying user name:	WinNT
#	Modification time:	15. 06. 2019 20:10

#	Program:	/corina/corina34_cracker 3.40 0067  02.08.2006

@<TRIPOS>MOLECULE
ASD01917812
  49   52    0    0    0
SMALL
NO_CHARGES


@<TRIPOS>ATOM
   1 C1            -0.0162     1.3427     0.0094 C.2     
   2 C2             0.0021    -0.0041     0.0020 C.2     
   3 C3            -1.2280    -0.8758     0.0045 C.3     
   4 C4            -2.4278    -0.0382     0.4643 C.3     
   5 N5            -2.4050     1.2582    -0.2296 N.am    
   6 C6            -1.2771     2.1710     0.0315 C.3     
   7 C7            -3.3897     1.6029    -1.0828 C.2     
   8 O8            -4.3102     0.8400    -1.2865 O.2     
   9 O9             1.2559     1.7620    -0.0005 O.3     
  10 C10            2.0406     0.6728    -0.0103 C.2     
  11 N11            1.2847    -0.3909    -0.0084 N.2     
  12 C12            3.5475     0.6778    -0.0221 C.3     
  13 O13            4.0133     0.6844    -1.3731 O.3     
  14 C14            5.3591     0.6895    -1.5618 C.ar    
  15 C15            5.8805     0.6961    -2.8473 C.ar    
  16 C16            7.2489     0.7013    -3.0364 C.ar    
  17 C17            8.0987     0.6998    -1.9458 C.ar    
  18 C18            7.5816     0.6928    -0.6635 C.ar    
  19 C19            6.2139     0.6939    -0.4690 C.ar    
  20 C20           -3.3470     2.9364    -1.7836 C.3     
  21 C21           -4.5732     3.0768    -2.6878 C.3     
  22 C22           -4.5305     4.4102    -3.3886 C.ar    
  23 C23           -3.9011     4.5273    -4.6138 C.ar    
  24 C24           -3.8619     5.7505    -5.2566 C.ar    
  25 C25           -4.4525     6.8565    -4.6744 C.ar    
  26 C26           -5.0828     6.7392    -3.4497 C.ar    
  27 C27           -5.1257     5.5150    -2.8090 C.ar    
  28 H28           -1.4102    -1.2532    -1.0017 H       
  29 H29           -1.0821    -1.7114     0.6891 H       
  30 H30           -3.3522    -0.5636     0.2246 H       
  31 H31           -2.3681     0.1236     1.5406 H       
  32 H32           -1.3965     2.6382     1.0090 H       
  33 H33           -1.2321     2.9362    -0.7434 H       
  34 H34            3.9120     1.5670     0.4922 H       
  35 H35            3.9178    -0.2130     0.4854 H       
  36 H36            5.2171     0.6969    -3.6996 H       
  37 H37            7.6553     0.7060    -4.0371 H       
  38 H38            9.1683     0.7038    -2.0957 H       
  39 H39            8.2474     0.6910     0.1868 H       
  40 H40            5.8104     0.6884     0.5327 H       
  41 H41           -3.3482     3.7362    -1.0430 H       
  42 H42           -2.4414     3.0010    -2.3867 H       
  43 H43           -4.5720     2.2769    -3.4283 H       
  44 H44           -5.4788     3.0121    -2.0847 H       
  45 H45           -3.4396     3.6633    -5.0686 H       
  46 H46           -3.3695     5.8421    -6.2134 H       
  47 H47           -4.4213     7.8123    -5.1763 H       
  48 H48           -5.5439     7.6033    -2.9948 H       
  49 H49           -5.6181     5.4234    -1.8521 H       
@<TRIPOS>BOND
   1    1    2 2
   2    1    9 1
   3    1    6 1
   4    2    3 1
   5    2   11 1
   6    3    4 1
   7    3   28 1
   8    3   29 1
   9    4    5 1
  10    4   30 1
  11    4   31 1
  12    5    6 1
  13    5    7 am
  14    6   32 1
  15    6   33 1
  16    7    8 2
  17    7   20 1
  18    9   10 1
  19   10   11 2
  20   10   12 1
  21   12   13 1
  22   12   34 1
  23   12   35 1
  24   13   14 1
  25   14   15 ar
  26   14   19 ar
  27   15   16 ar
  28   15   36 1
  29   16   17 ar
  30   16   37 1
  31   17   18 ar
  32   17   38 1
  33   18   19 ar
  34   18   39 1
  35   19   40 1
  36   20   21 1
  37   20   41 1
  38   20   42 1
  39   21   22 1
  40   21   43 1
  41   21   44 1
  42   22   23 ar
  43   22   27 ar
  44   23   24 ar
  45   23   45 1
  46   24   25 ar
  47   24   46 1
  48   25   26 ar
  49   25   47 1
  50   26   27 ar
  51   26   48 1
  52   27   49 1

#	End of record

