#	Name: ASD01230040
#	Creating user name:	WinNT
#	Creation time:	15. 06. 2019 19:11

#	Modifying user name:	WinNT
#	Modification time:	15. 06. 2019 19:11

#	Program:	/corina/corina34_cracker 3.40 0067  02.08.2006

@<TRIPOS>MOLECULE
ASD01230040
  42   45    0    0    0
SMALL
NO_CHARGES


@<TRIPOS>ATOM
   1 O1            -0.9437    -0.4503     0.9376 O.2     
   2 N2            -0.0162     1.3415     0.0094 N.am    
   3 N3             4.6624     1.4032    -1.0943 N.ar    
   4 N4             1.5145    -2.6983    -2.4027 N.1     
   5 C5             1.2897    -0.6099     0.4864 C.2     
   6 C6             2.3007     1.3282    -0.5204 C.2     
   7 C7             0.0559     0.0876     0.4925 C.2     
   8 C8             2.4163     0.0153    -0.0228 C.2     
   9 C9             1.0796     1.9640    -0.4916 C.2     
  10 C10            1.3735    -1.9876     1.0172 C.ar    
  11 C11           -1.2448     2.0129     0.0188 C.ar    
  12 C12            3.4892     2.0231    -1.0717 C.ar    
  13 C13            1.4749    -3.0819     0.1362 C.ar    
  14 C14            1.3585    -2.2114     2.3924 C.ar    
  15 C15           -2.1041     1.9067    -1.0670 C.ar    
  16 C16           -1.6093     2.7817     1.1164 C.ar    
  17 C17            3.3652     3.3218    -1.5612 C.ar    
  18 C18            1.5531    -4.3761     0.6526 C.ar    
  19 C19            1.4374    -3.4986     2.8830 C.ar    
  20 C20           -3.3153     2.5703    -1.0546 C.ar    
  21 C21           -2.8219     3.4428     1.1226 C.ar    
  22 C22            1.5309    -4.5760     2.0170 C.ar    
  23 C23           -3.6728     3.3397     0.0374 C.ar    
  24 C24            4.4832     3.9573    -2.0725 C.ar    
  25 C25            5.7419     1.9853    -1.5759 C.ar    
  26 C26            5.6904     3.2725    -2.0776 C.ar    
  27 C27            1.4970    -2.8679    -1.2796 C.1     
  28 H28            3.3678    -0.4955    -0.0379 H       
  29 H29            0.9934     2.9707    -0.8729 H       
  30 H30            1.2856    -1.3772     3.0744 H       
  31 H31           -1.8254     1.3063    -1.9203 H       
  32 H32           -0.9453     2.8624     1.9644 H       
  33 H33            2.4099     3.8252    -1.5422 H       
  34 H34            1.6306    -5.2207    -0.0160 H       
  35 H35            1.4262    -3.6675     3.9497 H       
  36 H36           -3.9839     2.4884    -1.8989 H       
  37 H37           -3.1060     4.0406     1.9760 H       
  38 H38            1.5916    -5.5789     2.4132 H       
  39 H39           -4.6205     3.8576     0.0447 H       
  40 H40            4.4178     4.9636    -2.4592 H       
  41 H41            6.6799     1.4500    -1.5778 H       
  42 H42            6.5810     3.7407    -2.4701 H       
@<TRIPOS>BOND
   1    1    7 2
   2    2    7 am
   3    2    9 1
   4    2   11 1
   5    3   12 ar
   6    3   25 ar
   7    4   27 3
   8    5    7 1
   9    5    8 2
  10    5   10 1
  11    6    8 1
  12    6    9 2
  13    6   12 1
  14    8   28 1
  15    9   29 1
  16   10   13 ar
  17   10   14 ar
  18   11   15 ar
  19   11   16 ar
  20   12   17 ar
  21   13   18 ar
  22   13   27 1
  23   14   19 ar
  24   14   30 1
  25   15   20 ar
  26   15   31 1
  27   16   21 ar
  28   16   32 1
  29   17   24 ar
  30   17   33 1
  31   18   22 ar
  32   18   34 1
  33   19   22 ar
  34   19   35 1
  35   20   23 ar
  36   20   36 1
  37   21   23 ar
  38   21   37 1
  39   22   38 1
  40   23   39 1
  41   24   26 ar
  42   24   40 1
  43   25   26 ar
  44   25   41 1
  45   26   42 1

#	End of record

