#	Name: ASD01870638
#	Creating user name:	WinNT
#	Creation time:	15. 06. 2019 19:39

#	Modifying user name:	WinNT
#	Modification time:	15. 06. 2019 19:39

#	Program:	/corina/corina34_cracker 3.40 0067  02.08.2006

@<TRIPOS>MOLECULE
ASD01870638
  40   43    0    0    0
SMALL
NO_CHARGES


@<TRIPOS>ATOM
   1 C1             0.0354     1.3480    -0.2739 C.ar    
   2 C2             0.0509    -0.0351    -0.1517 C.ar    
   3 C3             1.2347    -0.7027     0.0935 C.ar    
   4 C4             2.4248    -0.0016     0.2209 C.ar    
   5 C5             1.2177     2.0615    -0.1489 C.ar    
   6 C6             1.5706     3.4942    -0.2176 C.2     
   7 C7             2.4259     1.3780     0.1012 C.ar    
   8 C8             3.4715     2.4201     0.1755 C.2     
   9 N9             2.8952     3.6199    -0.0195 N.am    
  10 C10            3.5852     4.8420    -0.0170 C.ar    
  11 C11            3.7397     5.5494     1.1674 C.ar    
  12 C12            4.4184     6.7515     1.1703 C.ar    
  13 C13            4.9467     7.2541    -0.0120 C.ar    
  14 C14            4.7925     6.5470    -1.1972 C.ar    
  15 C15            4.1185     5.3409    -1.1988 C.ar    
  16 O16            0.7945     4.4064    -0.4197 O.2     
  17 O17            4.6529     2.2258     0.3798 O.2     
  18 N18            5.6339     8.4734    -0.0089 N.am    
  19 Cl19           3.9320     4.4526    -2.6786 Cl      
  20 C20            5.5291     9.3088    -1.0614 C.2     
  21 C21            6.1653    10.6290    -1.0157 C.2     
  22 O22            4.9062     8.9672    -2.0497 O.2     
  23 O23            6.8857    11.1268     0.0106 O.3     
  24 C24            6.1374    11.5680    -2.0069 C.2     
  25 C25            6.8705    12.6700    -1.5395 C.2     
  26 C26            7.3111    12.3580    -0.3007 C.2     
  27 C27            5.4523    11.4449    -3.3435 C.3     
  28 Cl28          -1.4558     2.1792    -0.5887 Cl      
  29 H29           -0.8691    -0.5925    -0.2488 H       
  30 H30            1.2338    -1.7787     0.1872 H       
  31 H31            3.3471    -0.5297     0.4130 H       
  32 H32            3.3286     5.1594     2.0867 H       
  33 H33            4.5384     7.3015     2.0920 H       
  34 H34            5.2031     6.9375    -2.1166 H       
  35 H35            6.1857     8.7172     0.7507 H       
  36 H36            7.0512    13.5924    -2.0714 H       
  37 H37            7.9098    12.9956     0.3329 H       
  38 H38            4.4301    11.8146    -3.2632 H       
  39 H39            5.9940    12.0322    -4.0849 H       
  40 H40            5.4373    10.3987    -3.6491 H       
@<TRIPOS>BOND
   1    1    2 ar
   2    1    5 ar
   3    1   28 1
   4    2    3 ar
   5    2   29 1
   6    3    4 ar
   7    3   30 1
   8    4    7 ar
   9    4   31 1
  10    5    7 ar
  11    5    6 1
  12    6    9 am
  13    6   16 2
  14    7    8 1
  15    8    9 am
  16    8   17 2
  17    9   10 1
  18   10   11 ar
  19   10   15 ar
  20   11   12 ar
  21   11   32 1
  22   12   13 ar
  23   12   33 1
  24   13   14 ar
  25   13   18 1
  26   14   15 ar
  27   14   34 1
  28   15   19 1
  29   18   20 am
  30   18   35 1
  31   20   21 1
  32   20   22 2
  33   21   24 2
  34   21   23 1
  35   23   26 1
  36   24   25 1
  37   24   27 1
  38   25   26 2
  39   25   36 1
  40   26   37 1
  41   27   38 1
  42   27   39 1
  43   27   40 1

#	End of record

