#	Name: ASD01200119
#	Creating user name:	WinNT
#	Creation time:	15. 06. 2019 19:08

#	Modifying user name:	WinNT
#	Modification time:	15. 06. 2019 19:08

#	Program:	/corina/corina34_cracker 3.40 0067  02.08.2006

@<TRIPOS>MOLECULE
ASD01200119
  37   39    0    0    0
SMALL
NO_CHARGES


@<TRIPOS>ATOM
   1 C1            -0.0167     1.3792     0.0096 C.ar    
   2 C2             0.0021    -0.0041     0.0020 C.ar    
   3 C3             1.2087    -0.6842    -0.0132 C.ar    
   4 C4             2.3920     0.0166    -0.0208 C.ar    
   5 C5             2.3846     1.4137    -0.0132 C.ar    
   6 C6             1.1648     2.0919     0.0022 C.ar    
   7 C7             3.8409    -0.4021    -0.0369 C.3     
   8 N8             4.6266     0.8371    -0.0378 N.am    
   9 C9             3.7832     1.8837    -0.0241 C.2     
  10 O10            4.1240     3.0505    -0.0207 O.2     
  11 S11            4.2232    -1.3815     1.4413 S.3     
  12 C12            6.0892     0.9201    -0.0514 C.3     
  13 C13            6.5770     0.9561    -1.4768 C.ar    
  14 C14            3.6289    -3.0373     0.9988 C.3     
  15 C15            3.8791    -3.9837     2.1445 C.2     
  16 O16            4.4044    -3.5824     3.1559 O.2     
  17 O17            3.5183    -5.2725     2.0415 O.3     
  18 C18            6.7331     2.1679    -2.1234 C.ar    
  19 C19            7.1806     2.2010    -3.4309 C.ar    
  20 C20            7.4725     1.0223    -4.0916 C.ar    
  21 C21            7.3173    -0.1894    -3.4446 C.ar    
  22 C22            6.8739    -0.2222    -2.1357 C.ar    
  23 H23           -0.9607     1.9038     0.0169 H       
  24 H24           -0.9267    -0.5552     0.0083 H       
  25 H25            1.2202    -1.7641    -0.0188 H       
  26 H26            1.1457     3.1718     0.0078 H       
  27 H27            4.0535    -0.9810    -0.9357 H       
  28 H28            6.4065     1.8264     0.4643 H       
  29 H29            6.5072     0.0493     0.4538 H       
  30 H30            2.5601    -2.9956     0.7887 H       
  31 H31            4.1596    -3.3894     0.1142 H       
  32 H32            3.6992    -5.8412     2.8024 H       
  33 H33            6.5050     3.0887    -1.6073 H       
  34 H34            7.3018     3.1477    -3.9364 H       
  35 H35            7.8214     1.0482    -5.1134 H       
  36 H36            7.5450    -1.1102    -3.9609 H       
  37 H37            6.7527    -1.1689    -1.6302 H       
@<TRIPOS>BOND
   1    1    2 ar
   2    1    6 ar
   3    1   23 1
   4    2    3 ar
   5    2   24 1
   6    3    4 ar
   7    3   25 1
   8    4    5 ar
   9    4    7 1
  10    5    6 ar
  11    5    9 1
  12    6   26 1
  13    7    8 1
  14    7   11 1
  15    7   27 1
  16    8    9 am
  17    8   12 1
  18    9   10 2
  19   11   14 1
  20   12   13 1
  21   12   28 1
  22   12   29 1
  23   13   18 ar
  24   13   22 ar
  25   14   15 1
  26   14   30 1
  27   14   31 1
  28   15   16 2
  29   15   17 1
  30   17   32 1
  31   18   19 ar
  32   18   33 1
  33   19   20 ar
  34   19   34 1
  35   20   21 ar
  36   20   35 1
  37   21   22 ar
  38   21   36 1
  39   22   37 1

#	End of record

