#	Name: ASD01940257
#	Creating user name:	WinNT
#	Creation time:	15. 06. 2019 20:12

#	Modifying user name:	WinNT
#	Modification time:	15. 06. 2019 20:12

#	Program:	/corina/corina34_cracker 3.40 0067  02.08.2006

@<TRIPOS>MOLECULE
ASD01940257
  42   44    0    0    0
SMALL
NO_CHARGES


@<TRIPOS>ATOM
   1 C1             1.0651    -0.2024     0.5984 C.2     
   2 C2            -0.0277     0.0838    -0.1108 C.2     
   3 C3             0.0764     1.2050    -0.9159 C.2     
   4 C4             1.2539     1.8294    -0.8604 C.2     
   5 S5             2.3166     0.9858     0.2587 S.3     
   6 S6            -1.4928    -0.8917    -0.0295 S.o2    
   7 O7            -2.4362    -0.2717    -0.8925 O.2     
   8 O8            -1.0822    -2.2448    -0.1706 O.2     
   9 N9            -2.0956    -0.7438     1.5058 N.am    
  10 C10            1.6181     3.0676    -1.6384 C.3     
  11 C11            1.2040    -1.3626     1.5501 C.3     
  12 C12           -2.4671     0.5160     1.9943 C.ar    
  13 C13           -2.2903     0.8221     3.3431 C.ar    
  14 C14           -2.6596     2.0718     3.8214 C.ar    
  15 C15           -3.2023     3.0105     2.9579 C.ar    
  16 C16           -3.3772     2.7041     1.6196 C.ar    
  17 C17           -3.0057     1.4624     1.1362 C.ar    
  18 N18           -1.7417    -0.1296     4.2136 N.pl3   
  19 C19           -1.8957     0.0162     5.5959 C.ar    
  20 C20           -3.1511    -0.1327     6.1772 C.ar    
  21 C21           -3.2989     0.0118     7.5439 C.ar    
  22 C22           -2.2001     0.3045     8.3326 C.ar    
  23 C23           -0.9516     0.4533     7.7568 C.ar    
  24 C24           -0.7955     0.3042     6.3919 C.ar    
  25 I25           -2.4286     0.5233    10.4036 I       
  26 F26           -4.2239    -0.4176     5.4070 F       
  27 F27           -3.5617     4.2267     3.4236 F       
  28 F28           -2.4907     2.3727     5.1276 F       
  29 H29           -0.7341     1.5481    -1.5417 H       
  30 H30           -2.1916    -1.5291     2.0670 H       
  31 H31            1.3592     3.9518    -1.0561 H       
  32 H32            2.6891     3.0671    -1.8415 H       
  33 H33            1.0697     3.0793    -2.5803 H       
  34 H34            1.4904    -2.2557     0.9948 H       
  35 H35            1.9698    -1.1346     2.2915 H       
  36 H36            0.2524    -1.5365     2.0523 H       
  37 H37           -3.8010     3.4379     0.9500 H       
  38 H38           -3.1392     1.2286     0.0903 H       
  39 H39           -1.2552    -0.8894     3.8573 H       
  40 H40           -4.2727    -0.1035     7.9966 H       
  41 H41           -0.0965     0.6825     8.3754 H       
  42 H42            0.1809     0.4163     5.9443 H       
@<TRIPOS>BOND
   1    1    2 2
   2    1    5 1
   3    1   11 1
   4    2    3 1
   5    2    6 1
   6    3    4 2
   7    3   29 1
   8    4    5 1
   9    4   10 1
  10    6    7 2
  11    6    8 2
  12    6    9 am
  13    9   12 1
  14    9   30 1
  15   10   31 1
  16   10   32 1
  17   10   33 1
  18   11   34 1
  19   11   35 1
  20   11   36 1
  21   12   13 ar
  22   12   17 ar
  23   13   14 ar
  24   13   18 1
  25   14   15 ar
  26   14   28 1
  27   15   16 ar
  28   15   27 1
  29   16   17 ar
  30   16   37 1
  31   17   38 1
  32   18   19 1
  33   18   39 1
  34   19   20 ar
  35   19   24 ar
  36   20   21 ar
  37   20   26 1
  38   21   22 ar
  39   21   40 1
  40   22   23 ar
  41   22   25 1
  42   23   24 ar
  43   23   41 1
  44   24   42 1

#	End of record

