#	Name: ASD07300217
#	Creating user name:	WinNT
#	Creation time:	15. 06. 2019 21:09

#	Modifying user name:	WinNT
#	Modification time:	15. 06. 2019 21:09

#	Program:	/corina/corina34_cracker 3.40 0067  02.08.2006

@<TRIPOS>MOLECULE
ASD07300217
  48   52    0    0    0
SMALL
NO_CHARGES


@<TRIPOS>ATOM
   1 C1            -0.8591     0.9898    -0.1281 C.ar    
   2 C2            -1.0219    -0.3810    -0.3509 C.ar    
   3 C3             0.0634    -1.2294    -0.1905 C.ar    
   4 C4             1.2781    -0.6765     0.1884 C.ar    
   5 C5             1.3672     0.6876     0.3918 C.ar    
   6 N6             0.3190     1.4721     0.2316 N.ar    
   7 C7            -2.9729     0.6164    -0.6988 C.2     
   8 N8            -2.0976     1.5793    -0.3547 N.am    
   9 N9            -2.3517    -0.5784    -0.7108 N.am    
  10 O10           -4.1464     0.7985    -0.9638 O.2     
  11 C11           -2.9709    -1.8652    -1.0378 C.3     
  12 C12           -3.5346    -2.4983     0.2359 C.3     
  13 C13           -2.3866     2.9474    -0.2432 C.ar    
  14 C14           -3.6709     3.4089    -0.4982 C.ar    
  15 C15           -3.9548     4.7556    -0.3883 C.ar    
  16 C16           -2.9568     5.6477    -0.0235 C.ar    
  17 C17           -1.6731     5.1871     0.2311 C.ar    
  18 C18           -1.3898     3.8396     0.1279 C.ar    
  19 O19           -3.2368     6.9738     0.0842 O.3     
  20 C20           -3.9128     7.3935     1.1785 C.2     
  21 N21           -4.2397     6.6380     2.1943 N.2     
  22 C22           -4.9108     7.3778     3.1166 C.ar    
  23 C23           -4.9945     8.6865     2.6138 C.ar    
  24 N24           -4.3493     8.6691     1.3881 N.pl3   
  25 C25           -5.4748     7.0800     4.3595 C.ar    
  26 C26           -6.1071     8.0710     5.0798 C.ar    
  27 C27           -6.1874     9.3650     4.5771 C.ar    
  28 C28           -5.6336     9.6728     3.3498 C.ar    
  29 C29           -4.1720     9.8077     0.4834 C.3     
  30 F30           -6.8106    10.3263     5.2931 F       
  31 F31           -6.6525     7.7829     6.2818 F       
  32 H32           -0.0346    -2.2922    -0.3559 H       
  33 H33            2.1453    -1.3059     0.3233 H       
  34 H34            2.3122     1.1191     0.6871 H       
  35 H35           -3.7780    -1.7086    -1.7535 H       
  36 H36           -2.2231    -2.5282    -1.4729 H       
  37 H37           -2.7275    -2.6549     0.9516 H       
  38 H38           -4.2824    -1.8353     0.6709 H       
  39 H39           -3.9953    -3.4557    -0.0074 H       
  40 H40           -4.4476     2.7146    -0.7829 H       
  41 H41           -4.9539     5.1147    -0.5867 H       
  42 H42           -0.8964     5.8820     0.5144 H       
  43 H43           -0.3917     3.4804     0.3311 H       
  44 H44           -5.4161     6.0766     4.7546 H       
  45 H45           -5.6981    10.6796     2.9642 H       
  46 H46           -5.0175     9.8619    -0.2024 H       
  47 H47           -4.1159    10.7282     1.0645 H       
  48 H48           -3.2507     9.6801    -0.0850 H       
@<TRIPOS>BOND
   1    1    2 ar
   2    1    6 ar
   3    1    8 1
   4    2    3 ar
   5    2    9 1
   6    3    4 ar
   7    3   32 1
   8    4    5 ar
   9    4   33 1
  10    5    6 ar
  11    5   34 1
  12    7    8 am
  13    7    9 am
  14    7   10 2
  15    8   13 1
  16    9   11 1
  17   11   12 1
  18   11   35 1
  19   11   36 1
  20   12   37 1
  21   12   38 1
  22   12   39 1
  23   13   14 ar
  24   13   18 ar
  25   14   15 ar
  26   14   40 1
  27   15   16 ar
  28   15   41 1
  29   16   17 ar
  30   16   19 1
  31   17   18 ar
  32   17   42 1
  33   18   43 1
  34   19   20 1
  35   20   21 2
  36   20   24 1
  37   21   22 1
  38   22   23 ar
  39   22   25 ar
  40   23   24 1
  41   23   28 ar
  42   24   29 1
  43   25   26 ar
  44   25   44 1
  45   26   27 ar
  46   26   31 1
  47   27   28 ar
  48   27   30 1
  49   28   45 1
  50   29   46 1
  51   29   47 1
  52   29   48 1

#	End of record

