#	Name: ASD01911187
#	Creating user name:	WinNT
#	Creation time:	15. 06. 2019 19:57

#	Modifying user name:	WinNT
#	Modification time:	15. 06. 2019 19:57

#	Program:	/corina/corina34_cracker 3.40 0067  02.08.2006

@<TRIPOS>MOLECULE
ASD01911187
  43   44    0    0    0
SMALL
NO_CHARGES


@<TRIPOS>ATOM
   1 N1            -0.0169     1.3965     0.0097 N.2     
   2 N2             0.0021    -0.0041     0.0020 N.pl3   
   3 C3             1.2284     1.8226     0.0001 C.2     
   4 C4             2.0722     0.6950    -0.0140 C.2     
   5 C5             1.2909    -0.4070    -0.0125 C.2     
   6 C6             1.7727    -1.8348    -0.0243 C.3     
   7 C7             1.6661     3.2408     0.0036 C.ar    
   8 C8             3.0187     3.5548    -0.1133 C.ar    
   9 C9             3.4212     4.8744    -0.1096 C.ar    
  10 C10            2.4827     5.8868     0.0101 C.ar    
  11 C11            1.1372     5.5790     0.1269 C.ar    
  12 C12            0.7253     4.2619     0.1179 C.ar    
  13 C13           -1.1724    -0.8798     0.0093 C.3     
  14 C14           -1.5891    -1.1729    -1.4090 C.2     
  15 O15           -2.6495    -1.9606    -1.6477 O.3     
  16 O16           -0.9688    -0.6990    -2.3312 O.2     
  17 C17           -2.9934    -2.1997    -3.0380 C.3     
  18 C18            2.0687    -2.2850     1.4077 C.3     
  19 C19            2.4379    -3.7698     1.4095 C.3     
  20 C20            3.2352    -1.4688     1.9681 C.3     
  21 F21            2.8811     7.1777     0.0132 F       
  22 C22            0.1211     6.6842     0.2577 C.3     
  23 H23            3.1521     0.7089    -0.0246 H       
  24 H24            1.0022    -2.4747    -0.4544 H       
  25 H25            2.6808    -1.9069    -0.6229 H       
  26 H26            3.7509     2.7664    -0.2062 H       
  27 H27            4.4693     5.1187    -0.1997 H       
  28 H28           -0.3240     4.0227     0.2090 H       
  29 H29           -0.9266    -1.8130     0.5160 H       
  30 H30           -1.9905    -0.3861     0.5337 H       
  31 H31           -3.8665    -2.8500    -3.0897 H       
  32 H32           -3.2178    -1.2508    -3.5252 H       
  33 H33           -2.1539    -2.6777    -3.5429 H       
  34 H34            1.1856    -2.1295     2.0274 H       
  35 H35            3.3210    -3.9254     0.7898 H       
  36 H36            2.6488    -4.0906     2.4296 H       
  37 H37            1.6069    -4.3513     1.0102 H       
  38 H38            4.1183    -1.6244     1.3484 H       
  39 H39            2.9723    -0.4110     1.9668 H       
  40 H40            3.4462    -1.7896     2.9882 H       
  41 H41           -0.2201     6.9833    -0.7334 H       
  42 H42           -0.7277     6.3300     0.8427 H       
  43 H43            0.5762     7.5388     0.7585 H       
@<TRIPOS>BOND
   1    1    2 1
   2    1    3 2
   3    2   13 1
   4    2    5 1
   5    3    4 1
   6    3    7 1
   7    4    5 2
   8    4   23 1
   9    5    6 1
  10    6   18 1
  11    6   24 1
  12    6   25 1
  13    7    8 ar
  14    7   12 ar
  15    8    9 ar
  16    8   26 1
  17    9   10 ar
  18    9   27 1
  19   10   11 ar
  20   10   21 1
  21   11   12 ar
  22   11   22 1
  23   12   28 1
  24   13   14 1
  25   13   29 1
  26   13   30 1
  27   14   15 1
  28   14   16 2
  29   15   17 1
  30   17   31 1
  31   17   32 1
  32   17   33 1
  33   18   19 1
  34   18   20 1
  35   18   34 1
  36   19   35 1
  37   19   36 1
  38   19   37 1
  39   20   38 1
  40   20   39 1
  41   20   40 1
  42   22   41 1
  43   22   42 1
  44   22   43 1

#	End of record

