#	Name: ASD04590492
#	Creating user name:	WinNT
#	Creation time:	15. 06. 2019 20:50

#	Modifying user name:	WinNT
#	Modification time:	15. 06. 2019 20:50

#	Program:	/corina/corina34_cracker 3.40 0067  02.08.2006

@<TRIPOS>MOLECULE
ASD04590492
  66   71    0    0    0
SMALL
NO_CHARGES


@<TRIPOS>ATOM
   1 C1            -0.0167     1.3832     0.0096 C.ar    
   2 C2             0.0021    -0.0041     0.0020 C.ar    
   3 C3             2.4020     0.0223    -0.0207 C.ar    
   4 C4             2.3769     1.4283    -0.0129 C.ar    
   5 C5             1.1624     2.0986     0.0022 C.ar    
   6 N6             3.7040    -0.3552    -0.0352 N.2     
   7 C7             4.4709     0.7083    -0.0368 C.2     
   8 N8             3.6969     1.8375    -0.0233 N.pl3   
   9 C9             5.9482     0.6906    -0.0505 C.2     
  10 C10            6.7657    -0.4631    -0.0645 C.2     
  11 C11            8.0578    -0.0540    -0.0750 C.2     
  12 N12            8.0646     1.3050    -0.0680 N.pl3   
  13 N13            6.7361     1.7480    -0.0577 N.2     
  14 N14            6.3187    -1.7946    -0.0666 N.am    
  15 C15            7.2107    -2.8048    -0.0806 C.2     
  16 O16            8.4028    -2.5635    -0.0914 O.2     
  17 C17            1.1969    -0.6870    -0.0130 C.ar    
  18 C18            6.7417    -4.2019    -0.0829 C.2     
  19 C19            5.3486    -4.6717    -0.0717 C.2     
  20 C20           -1.2962    -0.7693     0.0108 C.3     
  21 N21           -1.7317    -1.0105    -1.3713 N.3     
  22 C22           -2.8603    -1.9518    -1.4113 C.3     
  23 C23           -0.6175    -1.4976    -2.1974 C.3     
  24 C24           -1.0994    -1.6784    -3.6393 C.3     
  25 O25           -2.2160    -2.5719    -3.6550 O.3     
  26 C26           -3.3197    -2.1280    -2.8611 C.3     
  27 C27            5.4113    -6.0120    -0.0797 C.2     
  28 O28            6.6984    -6.3920    -0.0944 O.3     
  29 C29            7.5093    -5.3294    -0.1018 C.2     
  30 C30            9.0157    -5.3702    -0.1184 C.3     
  31 O31            9.5067    -5.3845     1.2235 O.3     
  32 C32           10.8554    -5.4211     1.3866 C.ar    
  33 C33           11.4008    -5.4368     2.6621 C.ar    
  34 C34           12.7720    -5.4740     2.8253 C.ar    
  35 C35           13.6008    -5.4955     1.7188 C.ar    
  36 C36           13.0597    -5.4795     0.4465 C.ar    
  37 C37           11.6889    -5.4485     0.2780 C.ar    
  38 C38           15.0963    -5.5361     1.8997 C.3     
  39 H39           -0.9614     1.9066     0.0169 H       
  40 H40            1.1403     3.1784     0.0079 H       
  41 H41            4.0156     2.7537    -0.0215 H       
  42 H42            8.9275    -0.6943    -0.0862 H       
  43 H43            8.8529     1.8702    -0.0724 H       
  44 H44            5.3680    -1.9870    -0.0580 H       
  45 H45            1.2037    -1.7669    -0.0185 H       
  46 H46            4.4569    -4.0625    -0.0591 H       
  47 H47           -1.1522    -1.7232     0.5181 H       
  48 H48           -2.0559    -0.1898     0.5353 H       
  49 H49           -2.5453    -2.9149    -1.0097 H       
  50 H50           -3.6831    -1.5591    -0.8140 H       
  51 H51            0.1968    -0.7734    -2.1739 H       
  52 H52           -0.2667    -2.4535    -1.8083 H       
  53 H53           -1.4000    -0.7130    -4.0463 H       
  54 H54           -0.2926    -2.0935    -4.2433 H       
  55 H55           -4.1186    -2.8683    -2.9023 H       
  56 H56           -3.6848    -1.1756    -3.2455 H       
  57 H57            4.5616    -6.6787    -0.0744 H       
  58 H58            9.3491    -6.2691    -0.6369 H       
  59 H59            9.3973    -4.4898    -0.6356 H       
  60 H60           10.7539    -5.4196     3.5268 H       
  61 H61           13.1971    -5.4858     3.8181 H       
  62 H62           13.7091    -5.4956    -0.4163 H       
  63 H63           11.2667    -5.4360    -0.7160 H       
  64 H64           15.4291    -6.5731     1.9425 H       
  65 H65           15.5776    -5.0344     1.0602 H       
  66 H66           15.3639    -5.0300     2.8273 H       
@<TRIPOS>BOND
   1    1    2 ar
   2    1    5 ar
   3    1   39 1
   4    2   17 ar
   5    2   20 1
   6    3    4 ar
   7    3    6 1
   8    3   17 ar
   9    4    5 ar
  10    4    8 1
  11    5   40 1
  12    6    7 2
  13    7    8 1
  14    7    9 1
  15    8   41 1
  16    9   10 1
  17    9   13 2
  18   10   11 2
  19   10   14 1
  20   11   12 1
  21   11   42 1
  22   12   13 1
  23   12   43 1
  24   14   15 am
  25   14   44 1
  26   15   16 2
  27   15   18 1
  28   17   45 1
  29   18   19 1
  30   18   29 2
  31   19   27 2
  32   19   46 1
  33   20   21 1
  34   20   47 1
  35   20   48 1
  36   21   22 1
  37   21   23 1
  38   22   26 1
  39   22   49 1
  40   22   50 1
  41   23   24 1
  42   23   51 1
  43   23   52 1
  44   24   25 1
  45   24   53 1
  46   24   54 1
  47   25   26 1
  48   26   55 1
  49   26   56 1
  50   27   28 1
  51   27   57 1
  52   28   29 1
  53   29   30 1
  54   30   31 1
  55   30   58 1
  56   30   59 1
  57   31   32 1
  58   32   33 ar
  59   32   37 ar
  60   33   34 ar
  61   33   60 1
  62   34   35 ar
  63   34   61 1
  64   35   36 ar
  65   35   38 1
  66   36   37 ar
  67   36   62 1
  68   37   63 1
  69   38   64 1
  70   38   65 1
  71   38   66 1

#	End of record

