#	Name: ASD03430835
#	Creating user name:	WinNT
#	Creation time:	15. 06. 2019 20:41

#	Modifying user name:	WinNT
#	Modification time:	15. 06. 2019 20:41

#	Program:	/corina/corina34_cracker 3.40 0067  02.08.2006

@<TRIPOS>MOLECULE
ASD03430835
  48   53    0    0    0
SMALL
NO_CHARGES


@<TRIPOS>ATOM
   1 C1            -0.0166     1.3733     0.0096 C.ar    
   2 C2             0.0021    -0.0041     0.0020 C.ar    
   3 C3             1.2044    -0.6793    -0.0035 C.ar    
   4 C4             2.4066     0.0235     0.0071 C.ar    
   5 C5             2.3788     1.4129     0.0043 C.ar    
   6 C6             1.1695     2.0976     0.0022 C.ar    
   7 O7             3.4729    -0.8259     0.0323 O.3     
   8 C8             1.5604    -2.1407    -0.0318 C.3     
   9 C9             3.0507    -2.1332    -0.4005 C.3     
  10 C10            0.4385    -3.8645     1.0128 C.ar    
  11 C11            1.3134    -2.8156     1.2848 C.ar    
  12 C12            0.7439    -2.9082    -1.0316 C.2     
  13 N13            0.1260    -3.8921    -0.3484 N.am    
  14 O14            0.6572    -2.6859    -2.2208 O.2     
  15 C15            1.7593    -2.5904     2.5685 C.ar    
  16 C16            1.3398    -3.4107     3.6022 C.ar    
  17 C17            0.4731    -4.4560     3.3426 C.ar    
  18 C18            0.0227    -4.6846     2.0585 C.ar    
  19 C19           -1.1520     2.3777     0.0365 C.3     
  20 C20           -0.4178     3.6802     0.4337 C.3     
  21 O21            0.9259     3.4375    -0.0164 O.3     
  22 Br22           2.9458    -1.1602     2.9192 Br      
  23 C23           -0.7696    -4.8757    -0.9620 C.3     
  24 C24           -2.2045    -4.3454    -0.9354 C.3     
  25 C25           -3.1551    -5.3735    -1.5790 C.3     
  26 C26           -4.1768    -5.6968    -0.4618 C.3     
  27 C27           -4.0433    -4.4634     0.4673 C.3     
  28 O28           -2.6322    -4.1607     0.4244 O.3     
  29 H29           -0.9263    -0.5559     0.0007 H       
  30 H30            3.3064     1.9661     0.0046 H       
  31 H31            3.1837    -2.2464    -1.4764 H       
  32 H32            3.5873    -2.9122     0.1410 H       
  33 H33            1.6885    -3.2341     4.6090 H       
  34 H34            0.1467    -5.0965     4.1486 H       
  35 H35           -0.6547    -5.5029     1.8637 H       
  36 H36           -1.6105     2.4737    -0.9477 H       
  37 H37           -1.8951     2.1054     0.7860 H       
  38 H38           -0.8485     4.5388    -0.0814 H       
  39 H39           -0.4432     3.8239     1.5139 H       
  40 H40           -0.4656    -5.0498    -1.9942 H       
  41 H41           -0.7177    -5.8114    -0.4052 H       
  42 H42           -2.2602    -3.4003    -1.4755 H       
  43 H43           -3.6588    -4.9390    -2.4425 H       
  44 H44           -2.6079    -6.2711    -1.8670 H       
  45 H45           -5.1859    -5.7710    -0.8671 H       
  46 H46           -3.9020    -6.6113     0.0638 H       
  47 H47           -4.6271    -3.6275     0.0819 H       
  48 H48           -4.3517    -4.7125     1.4827 H       
@<TRIPOS>BOND
   1    1    2 ar
   2    1    6 ar
   3    1   19 1
   4    2    3 ar
   5    2   29 1
   6    3    4 ar
   7    3    8 1
   8    4    5 ar
   9    4    7 1
  10    5    6 ar
  11    5   30 1
  12    6   21 1
  13    7    9 1
  14    8    9 1
  15    8   11 1
  16    8   12 1
  17    9   31 1
  18    9   32 1
  19   10   11 ar
  20   10   13 1
  21   10   18 ar
  22   11   15 ar
  23   12   13 am
  24   12   14 2
  25   13   23 1
  26   15   16 ar
  27   15   22 1
  28   16   17 ar
  29   16   33 1
  30   17   18 ar
  31   17   34 1
  32   18   35 1
  33   19   20 1
  34   19   36 1
  35   19   37 1
  36   20   21 1
  37   20   38 1
  38   20   39 1
  39   23   24 1
  40   23   40 1
  41   23   41 1
  42   24   25 1
  43   24   28 1
  44   24   42 1
  45   25   26 1
  46   25   43 1
  47   25   44 1
  48   26   27 1
  49   26   45 1
  50   26   46 1
  51   27   28 1
  52   27   47 1
  53   27   48 1

#	End of record

