#	Name: ASD05060040
#	Creating user name:	WinNT
#	Creation time:	15. 06. 2019 20:56

#	Modifying user name:	WinNT
#	Modification time:	15. 06. 2019 20:56

#	Program:	/corina/corina34_cracker 3.40 0067  02.08.2006

@<TRIPOS>MOLECULE
ASD05060040
  29   30    0    0    0
SMALL
NO_CHARGES


@<TRIPOS>ATOM
   1 C1             0.0597     1.3392     0.4151 C.2     
   2 C2             0.0459    -0.0340     0.2048 C.2     
   3 C3            -1.1435    -0.9121     0.2208 C.2     
   4 N4             1.3716     1.7279     0.3074 N.pl3   
   5 C5             2.0993     0.6264     0.0443 C.2     
   6 N6             1.3147    -0.4149    -0.0162 N.2     
   7 C7            -1.0987     2.2030     0.6911 C.2     
   8 O8            -2.2438    -0.4412     0.4338 O.2     
   9 O9            -2.2134     1.7229     0.7543 O.2     
  10 N10           -1.0078    -2.2346    -0.0007 N.am    
  11 C11           -2.1172    -3.0800     0.1106 C.ar    
  12 C12           -3.3728    -2.6349    -0.2817 C.ar    
  13 C13           -4.4664    -3.4710    -0.1710 C.ar    
  14 C14           -4.3116    -4.7524     0.3307 C.ar    
  15 C15           -3.0606    -5.1981     0.7229 C.ar    
  16 C16           -1.9632    -4.3675     0.6081 C.ar    
  17 O17           -0.9237     3.5272     0.8740 O.3     
  18 F18           -5.3828    -5.5686     0.4382 F       
  19 C19           -2.1114     4.3182     1.1424 C.3     
  20 H20            1.7120     2.6312     0.4031 H       
  21 H21            3.1700     0.6072    -0.0952 H       
  22 H22           -0.1411    -2.6003    -0.2373 H       
  23 H23           -3.4941    -1.6355    -0.6727 H       
  24 H24           -5.4432    -3.1251    -0.4756 H       
  25 H25           -2.9421    -6.1977     1.1142 H       
  26 H26           -0.9876    -4.7156     0.9137 H       
  27 H27           -2.8051     4.2271     0.3066 H       
  28 H28           -2.5901     3.9576     2.0529 H       
  29 H29           -1.8306     5.3638     1.2693 H       
@<TRIPOS>BOND
   1    1    2 2
   2    1    4 1
   3    1    7 1
   4    2    3 1
   5    2    6 1
   6    3    8 2
   7    3   10 am
   8    4    5 1
   9    4   20 1
  10    5    6 2
  11    5   21 1
  12    7    9 2
  13    7   17 1
  14   10   11 1
  15   10   22 1
  16   11   12 ar
  17   11   16 ar
  18   12   13 ar
  19   12   23 1
  20   13   14 ar
  21   13   24 1
  22   14   15 ar
  23   14   18 1
  24   15   16 ar
  25   15   25 1
  26   16   26 1
  27   17   19 1
  28   19   27 1
  29   19   28 1
  30   19   29 1

#	End of record

