#	Name: ASD01948267
#	Creating user name:	WinNT
#	Creation time:	15. 06. 2019 20:14

#	Modifying user name:	WinNT
#	Modification time:	15. 06. 2019 20:14

#	Program:	/corina/corina34_cracker 3.40 0067  02.08.2006

@<TRIPOS>MOLECULE
ASD01948267
  49   52    0    0    0
SMALL
NO_CHARGES


@<TRIPOS>ATOM
   1 C1            -0.3293     3.6683     1.9982 C.ar    
   2 C2            -1.0555     3.8459     0.8335 C.ar    
   3 C3            -0.4025     4.0655    -0.3656 C.ar    
   4 C4             0.9780     4.1086    -0.4054 C.ar    
   5 C5             1.7109     3.9311     0.7602 C.ar    
   6 C6             1.0519     3.7101     1.9657 C.ar    
   7 C7             3.2373     1.5651     0.9138 C.ar    
   8 C8             3.8526     2.8137     0.9809 C.ar    
   9 N9             3.1080     3.9742     0.7229 N.pl3   
  10 C10            3.9602     0.4174     1.1657 C.ar    
  11 C11            5.3179     0.5064     1.4901 C.ar    
  12 C12            5.9377     1.7620     1.5582 C.ar    
  13 C13            5.2010     2.9138     1.3028 C.ar    
  14 N14            5.8174     4.1731     1.3694 N.am    
  15 I15           -3.1488     3.7810     0.8870 I       
  16 F16            3.3578    -0.7901     1.0995 F       
  17 F17            1.7609     3.5373     3.1027 F       
  18 F18            1.9247     1.4786     0.6060 F       
  19 O19            7.2288     1.5293     1.8868 O.3     
  20 C20            7.3950     0.2029     2.0141 C.2     
  21 N21            6.2763    -0.4150     1.7835 N.2     
  22 S22            7.4056     4.2946     1.8224 S.o2    
  23 O23            7.5946     5.6813     2.0687 O.2     
  24 O24            7.5467     3.3394     2.8650 O.2     
  25 C25            8.3361     3.7764     0.3540 C.3     
  26 C26            9.8572     3.6727     0.4817 C.3     
  27 C27            9.0087     2.4027     0.3923 C.3     
  28 C28            7.7703     4.2493    -0.9866 C.3     
  29 C29            6.4334     3.5535    -1.2499 C.3     
  30 C30            5.8843     4.0003    -2.6063 C.3     
  31 O31            4.5832     3.4422    -2.8008 O.3     
  32 O32            6.6266     2.1376    -1.2573 O.3     
  33 H33           -0.8423     3.5014     2.9338 H       
  34 H34           -0.9726     4.2033    -1.2725 H       
  35 H35            1.4865     4.2799    -1.3427 H       
  36 H36            3.5623     4.8065     0.5187 H       
  37 H37            5.3131     4.9721     1.1501 H       
  38 H38            8.3258    -0.2808     2.2714 H       
  39 H39           10.4549     3.9410    -0.3894 H       
  40 H40           10.2988     3.9159     1.4481 H       
  41 H41            8.8921     1.8104     1.2999 H       
  42 H42            9.0481     1.8355    -0.5376 H       
  43 H43            7.6187     5.3282    -0.9567 H       
  44 H44            8.4714     4.0029    -1.7840 H       
  45 H45            5.7247     3.8194    -0.4656 H       
  46 H46            5.8206     5.0881    -2.6319 H       
  47 H47            6.5493     3.6565    -3.3986 H       
  48 H48            4.1732     3.6842    -3.6424 H       
  49 H49            7.2467     1.8288    -1.9319 H       
@<TRIPOS>BOND
   1    1    2 ar
   2    1    6 ar
   3    1   33 1
   4    2    3 ar
   5    2   15 1
   6    3    4 ar
   7    3   34 1
   8    4    5 ar
   9    4   35 1
  10    5    6 ar
  11    5    9 1
  12    6   17 1
  13    7    8 ar
  14    7   10 ar
  15    7   18 1
  16    8    9 1
  17    8   13 ar
  18    9   36 1
  19   10   11 ar
  20   10   16 1
  21   11   12 ar
  22   11   21 1
  23   12   13 ar
  24   12   19 1
  25   13   14 1
  26   14   22 am
  27   14   37 1
  28   19   20 1
  29   20   21 2
  30   20   38 1
  31   22   23 2
  32   22   24 2
  33   22   25 1
  34   25   26 1
  35   25   28 1
  36   25   27 1
  37   26   27 1
  38   26   39 1
  39   26   40 1
  40   27   41 1
  41   27   42 1
  42   28   29 1
  43   28   43 1
  44   28   44 1
  45   29   30 1
  46   29   32 1
  47   29   45 1
  48   30   31 1
  49   30   46 1
  50   30   47 1
  51   31   48 1
  52   32   49 1

#	End of record

