#	Name: ASD02500791
#	Creating user name:	WinNT
#	Creation time:	15. 06. 2019 20:23

#	Modifying user name:	WinNT
#	Modification time:	15. 06. 2019 20:23

#	Program:	/corina/corina34_cracker 3.40 0067  02.08.2006

@<TRIPOS>MOLECULE
ASD02500791
  22   23    0    0    0
SMALL
NO_CHARGES


@<TRIPOS>ATOM
   1 N1            -0.0168     1.3855     0.0097 N.pl3   
   2 C2             0.0021    -0.0041     0.0020 C.2     
   3 C3             1.3272    -0.4000    -0.0128 C.2     
   4 C4             2.1273     0.7554    -0.0142 C.2     
   5 C5             1.2851     1.8437    -0.0003 C.2     
   6 C6            -0.8894    -1.0811     0.0047 C.2     
   7 C7            -0.3334    -2.2885    -0.0070 C.2     
   8 S8             1.4175    -2.1580    -0.0236 S.3     
   9 C9             1.6988     3.2459     0.0033 C.2     
  10 O10            2.8816     3.5312    -0.0065 O.2     
  11 O11            0.7689     4.2238     0.0174 O.3     
  12 Br12          -1.2934    -3.9177    -0.0052 Br      
  13 C13            1.2444     5.5713     0.0201 C.3     
  14 C14            0.0540     6.5322     0.0366 C.3     
  15 H15           -0.8121     1.9408     0.0166 H       
  16 H16            3.2069     0.7840    -0.0238 H       
  17 H17           -1.9602    -0.9412     0.0161 H       
  18 H18            1.8584     5.7382     0.9052 H       
  19 H19            1.8414     5.7477    -0.8747 H       
  20 H20            0.4167     7.5601     0.0387 H       
  21 H21           -0.5600     6.3654    -0.8484 H       
  22 H22           -0.5430     6.3558     0.9314 H       
@<TRIPOS>BOND
   1    1    2 1
   2    1    5 1
   3    1   15 1
   4    2    3 2
   5    2    6 1
   6    3    4 1
   7    3    8 1
   8    4    5 2
   9    4   16 1
  10    5    9 1
  11    6    7 2
  12    6   17 1
  13    7    8 1
  14    7   12 1
  15    9   10 2
  16    9   11 1
  17   11   13 1
  18   13   14 1
  19   13   18 1
  20   13   19 1
  21   14   20 1
  22   14   21 1
  23   14   22 1

#	End of record

