#	Name: ASD01948071
#	Creating user name:	WinNT
#	Creation time:	15. 06. 2019 20:13

#	Modifying user name:	WinNT
#	Modification time:	15. 06. 2019 20:13

#	Program:	/corina/corina34_cracker 3.40 0067  02.08.2006

@<TRIPOS>MOLECULE
ASD01948071
  84   89    0    0    0
SMALL
NO_CHARGES


@<TRIPOS>ATOM
   1 C1             0.7000     1.5261    -0.0871 C.3     
   2 C2             0.8258    -0.0033    -0.1874 C.3     
   3 C3             2.1087     0.1260     0.6506 C.3     
   4 C4             2.2251     1.5600     0.1076 C.3     
   5 S5             0.1462     2.3122    -1.6252 S.o2    
   6 O6             1.1799     2.2841    -2.5999 O.2     
   7 O7            -1.1756     1.9016    -1.9472 O.2     
   8 N8            -0.0069     3.9150    -1.2383 N.am    
   9 C9            -1.7573     3.3903     0.3287 C.2     
  10 C10           -0.9798     4.3248    -0.3042 C.2     
  11 C11           -1.1509     5.6908    -0.0229 C.2     
  12 C12           -2.1172     6.0756     0.8983 C.2     
  13 C13           -2.8852     5.0944     1.5216 C.2     
  14 N14           -2.6918     3.7930     1.2406 N.am    
  15 O15           -1.7532     2.0390     0.1810 O.3     
  16 C16           -3.3496     2.5857     1.7796 C.3     
  17 C17           -2.3904     1.4589     1.3329 C.3     
  18 O18           -3.7418     5.4187     2.3310 O.2     
  19 C19           -2.3310     7.5325     1.2189 C.3     
  20 N20           -0.3654     6.6421    -0.6560 N.pl3   
  21 C21           -0.4139     6.7756    -2.0478 C.ar    
  22 C22            0.4797     7.6201    -2.6988 C.ar    
  23 C23            0.4284     7.7492    -4.0742 C.ar    
  24 C24           -0.5104     7.0395    -4.8021 C.ar    
  25 C25           -1.3998     6.1999    -4.1569 C.ar    
  26 C26           -1.3500     6.0615    -2.7829 C.ar    
  27 I27           -0.5849     7.2380    -6.8864 I       
  28 F28            1.3959     8.3133    -1.9879 F       
  29 C29            1.2209    -1.2822     2.5137 C.3     
  30 C30            1.8643     0.0600     2.1595 C.3     
  31 C31            3.1969     0.1975     2.8986 C.3     
  32 O32            3.7418     1.4969     2.6603 O.3     
  33 C33            4.9934     1.7302     3.3092 C.3     
  34 C34            5.4723     3.1232     2.9908 C.ar    
  35 C35            5.1153     4.1802     3.8069 C.ar    
  36 C36            5.5546     5.4580     3.5148 C.ar    
  37 C37            6.3513     5.6786     2.4069 C.ar    
  38 C38            6.7091     4.6214     1.5913 C.ar    
  39 C39            6.2734     3.3429     1.8858 C.ar    
  40 O40            0.8862    -1.2982     3.9029 O.3     
  41 C41            0.2759    -2.5142     4.3397 C.3     
  42 C42           -0.0327    -2.4208     5.8118 C.ar    
  43 C43           -1.2538    -1.9277     6.2321 C.ar    
  44 C44           -1.5369    -1.8419     7.5824 C.ar    
  45 C45           -0.5990    -2.2497     8.5125 C.ar    
  46 C46            0.6217    -2.7437     8.0922 C.ar    
  47 C47            0.9031    -2.8335     6.7418 C.ar    
  48 H48            0.1408     1.8618     0.7862 H       
  49 H49            0.0252    -0.5415     0.3199 H       
  50 H50            1.0013    -0.3613    -1.2019 H       
  51 H51            2.9132    -0.5320     0.3219 H       
  52 H52            2.7830     1.6294    -0.8262 H       
  53 H53            2.5541     2.2839     0.8532 H       
  54 H54            0.5730     4.5719    -1.6545 H       
  55 H55           -3.4137     2.6318     2.8667 H       
  56 H56           -4.3369     2.4521     1.3374 H       
  57 H57           -2.9462     0.5623     1.0583 H       
  58 H58           -1.6595     1.2402     2.1115 H       
  59 H59           -3.1372     7.9262     0.5999 H       
  60 H60           -2.5959     7.6379     2.2709 H       
  61 H61           -1.4145     8.0871     1.0177 H       
  62 H62            0.2177     7.2150    -0.1338 H       
  63 H63            1.1212     8.4047    -4.5810 H       
  64 H64           -2.1316     5.6481    -4.7281 H       
  65 H65           -2.0419     5.4014    -2.2809 H       
  66 H66            0.3168    -1.4195     1.9206 H       
  67 H67            1.9219    -2.0890     2.2996 H       
  68 H68            1.1992     0.8711     2.4557 H       
  69 H69            3.0351     0.0618     3.9679 H       
  70 H70            3.8925    -0.5600     2.5374 H       
  71 H71            4.8688     1.6263     4.3871 H       
  72 H72            5.7263     1.0045     2.9565 H       
  73 H73            4.4928     4.0079     4.6725 H       
  74 H74            5.2750     6.2839     4.1520 H       
  75 H75            6.6939     6.6769     2.1783 H       
  76 H76            7.3312     4.7938     0.7255 H       
  77 H77            6.5560     2.5164     1.2507 H       
  78 H78           -0.6478    -2.6771     3.7845 H       
  79 H79            0.9573    -3.3465     4.1635 H       
  80 H80           -1.9866    -1.6091     5.5055 H       
  81 H81           -2.4907    -1.4560     7.9108 H       
  82 H82           -0.8199    -2.1820     9.5675 H       
  83 H83            1.3546    -3.0619     8.8189 H       
  84 H84            1.8554    -3.2228     6.4133 H       
@<TRIPOS>BOND
   1    1    2 1
   2    1    4 1
   3    1    5 1
   4    1   48 1
   5    2    3 1
   6    2   49 1
   7    2   50 1
   8    3    4 1
   9    3   30 1
  10    3   51 1
  11    4   52 1
  12    4   53 1
  13    5    6 2
  14    5    7 2
  15    5    8 am
  16    8   10 1
  17    8   54 1
  18    9   10 2
  19    9   14 1
  20    9   15 1
  21   10   11 1
  22   11   12 2
  23   11   20 1
  24   12   13 1
  25   12   19 1
  26   13   14 am
  27   13   18 2
  28   14   16 1
  29   15   17 1
  30   16   17 1
  31   16   55 1
  32   16   56 1
  33   17   57 1
  34   17   58 1
  35   19   59 1
  36   19   60 1
  37   19   61 1
  38   20   21 1
  39   20   62 1
  40   21   22 ar
  41   21   26 ar
  42   22   23 ar
  43   22   28 1
  44   23   24 ar
  45   23   63 1
  46   24   25 ar
  47   24   27 1
  48   25   26 ar
  49   25   64 1
  50   26   65 1
  51   29   30 1
  52   29   40 1
  53   29   66 1
  54   29   67 1
  55   30   31 1
  56   30   68 1
  57   31   32 1
  58   31   69 1
  59   31   70 1
  60   32   33 1
  61   33   34 1
  62   33   71 1
  63   33   72 1
  64   34   35 ar
  65   34   39 ar
  66   35   36 ar
  67   35   73 1
  68   36   37 ar
  69   36   74 1
  70   37   38 ar
  71   37   75 1
  72   38   39 ar
  73   38   76 1
  74   39   77 1
  75   40   41 1
  76   41   42 1
  77   41   78 1
  78   41   79 1
  79   42   43 ar
  80   42   47 ar
  81   43   44 ar
  82   43   80 1
  83   44   45 ar
  84   44   81 1
  85   45   46 ar
  86   45   82 1
  87   46   47 ar
  88   46   83 1
  89   47   84 1

#	End of record

