#	Name: ASD04590324
#	Creating user name:	WinNT
#	Creation time:	15. 06. 2019 20:50

#	Modifying user name:	WinNT
#	Modification time:	15. 06. 2019 20:50

#	Program:	/corina/corina34_cracker 3.40 0067  02.08.2006

@<TRIPOS>MOLECULE
ASD04590324
  36   39    0    0    0
SMALL
NO_CHARGES


@<TRIPOS>ATOM
   1 C1            -0.0167     1.3834     0.0096 C.ar    
   2 C2             0.0021    -0.0041     0.0020 C.ar    
   3 C3             1.1863    -0.6848    -0.0130 C.ar    
   4 C4             2.3948     0.0191    -0.0208 C.ar    
   5 C5             2.3756     1.4250    -0.0131 C.ar    
   6 C6             1.1624     2.0987     0.0022 C.ar    
   7 N7             3.6952    -0.3636    -0.0353 N.2     
   8 C8             4.4665     0.6967    -0.0370 C.2     
   9 N9             3.6970     1.8290    -0.0236 N.pl3   
  10 C10            5.9437     0.6731    -0.0518 C.2     
  11 C11            6.7565    -0.4840    -0.0667 C.2     
  12 C12            8.0503    -0.0800    -0.0779 C.2     
  13 N13            8.0626     1.2789    -0.0704 N.pl3   
  14 N14            6.7358     1.7273    -0.0590 N.2     
  15 N15            6.3043    -1.8135    -0.0691 N.am    
  16 C16            7.1922    -2.8273    -0.0841 C.2     
  17 C17            6.7174    -4.2228    -0.0867 C.ar    
  18 O18            8.3852    -2.5907    -0.0956 O.2     
  19 C19            6.0279    -6.1877    -1.2924 C.ar    
  20 C20            5.8242    -6.8489    -0.0914 C.ar    
  21 C21            6.0591    -6.2027     1.1120 C.ar    
  22 C22            6.5038    -4.8953     1.1223 C.ar    
  23 F23            5.3887    -8.1278    -0.0937 F       
  24 F24            6.7327    -4.2671     2.2963 F       
  25 C25            6.4725    -4.8803    -1.2980 C.ar    
  26 F26            6.6701    -4.2372    -2.4696 F       
  27 H27           -0.9614     1.9069     0.0170 H       
  28 H28           -0.9290    -0.5513     0.0084 H       
  29 H29            1.1893    -1.7648    -0.0185 H       
  30 H30            1.1417     3.1785     0.0079 H       
  31 H31            4.0192     2.7439    -0.0215 H       
  32 H32            8.9175    -0.7237    -0.0902 H       
  33 H33            8.8532     1.8409    -0.0749 H       
  34 H34            5.3528    -2.0021    -0.0600 H       
  35 H35            5.8428    -6.6977    -2.2262 H       
  36 H36            5.8981    -6.7242     2.0439 H       
@<TRIPOS>BOND
   1    1    2 ar
   2    1    6 ar
   3    1   27 1
   4    2    3 ar
   5    2   28 1
   6    3    4 ar
   7    3   29 1
   8    4    5 ar
   9    4    7 1
  10    5    6 ar
  11    5    9 1
  12    6   30 1
  13    7    8 2
  14    8    9 1
  15    8   10 1
  16    9   31 1
  17   10   11 1
  18   10   14 2
  19   11   12 2
  20   11   15 1
  21   12   13 1
  22   12   32 1
  23   13   14 1
  24   13   33 1
  25   15   16 am
  26   15   34 1
  27   16   17 1
  28   16   18 2
  29   17   22 ar
  30   17   25 ar
  31   19   20 ar
  32   19   25 ar
  33   19   35 1
  34   20   21 ar
  35   20   23 1
  36   21   22 ar
  37   21   36 1
  38   22   24 1
  39   25   26 1

#	End of record

