#	Name: ASD03330505
#	Creating user name:	WinNT
#	Creation time:	15. 06. 2019 20:37

#	Modifying user name:	WinNT
#	Modification time:	15. 06. 2019 20:37

#	Program:	/corina/corina34_cracker 3.40 0067  02.08.2006

@<TRIPOS>MOLECULE
ASD03330505
  43   45    0    0    0
SMALL
NO_CHARGES


@<TRIPOS>ATOM
   1 C1            -0.4564     1.4453    -0.3093 C.3     
   2 N2            -0.4746    -0.0235    -0.3570 N.3     
   3 C3             0.0962    -0.5220    -1.6213 C.3     
   4 C4             1.4213     0.1627    -1.8361 C.2     
   5 N5             1.8128     1.2756    -1.1627 N.pl3   
   6 C6             0.9865     1.9422    -0.1522 C.3     
   7 C7             2.4274    -0.1679    -2.6868 C.2     
   8 N8             3.4173     0.7392    -2.5227 N.2     
   9 C9             3.0535     1.6090    -1.6069 C.2     
  10 C10            3.8592     2.7577    -1.1380 C.ar    
  11 C11            2.4385    -1.3082    -3.6195 C.2     
  12 O12            1.4816    -2.0582    -3.6750 O.2     
  13 C13            3.6665    -2.6335    -5.2405 C.2     
  14 C14            3.6057    -1.5403    -4.4833 C.2     
  15 C15            2.6223    -3.7103    -5.0945 C.3     
  16 C16            4.7796    -2.7944    -6.2436 C.3     
  17 C17            4.9677     3.1819    -1.8715 C.ar    
  18 C18            5.7147     4.2541    -1.4290 C.ar    
  19 C19            5.3671     4.9080    -0.2604 C.ar    
  20 C20            4.2691     4.4922     0.4715 C.ar    
  21 C21            3.5105     3.4249     0.0366 C.ar    
  22 C22           -1.8346    -0.5400    -0.1535 C.3     
  23 H23           -0.8782     1.8431    -1.2323 H       
  24 H24           -1.0518     1.7878     0.5371 H       
  25 H25            0.2444    -1.6000    -1.5589 H       
  26 H26           -0.5768    -0.2891    -2.4465 H       
  27 H27            1.0221     3.0213    -0.3015 H       
  28 H28            1.3538     1.6958     0.8440 H       
  29 H29            4.4136    -0.8239    -4.5035 H       
  30 H30            1.7510    -3.4557    -5.6979 H       
  31 H31            3.0323    -4.6622    -5.4319 H       
  32 H32            2.3283    -3.7918    -4.0481 H       
  33 H33            5.6246    -3.2956    -5.7714 H       
  34 H34            4.4271    -3.3911    -7.0849 H       
  35 H35            5.0922    -1.8129    -6.5999 H       
  36 H36            5.2405     2.6718    -2.7835 H       
  37 H37            6.5730     4.5835    -1.9959 H       
  38 H38            5.9555     5.7464     0.0821 H       
  39 H39            4.0028     5.0068     1.3829 H       
  40 H40            2.6534     3.1015     0.6087 H       
  41 H41           -2.5042    -0.1018    -0.8936 H       
  42 H42           -1.8316    -1.6245    -0.2632 H       
  43 H43           -2.1773    -0.2770     0.8473 H       
@<TRIPOS>BOND
   1    1    2 1
   2    1    6 1
   3    1   23 1
   4    1   24 1
   5    2    3 1
   6    2   22 1
   7    3    4 1
   8    3   25 1
   9    3   26 1
  10    4    5 1
  11    4    7 2
  12    5    6 1
  13    5    9 1
  14    6   27 1
  15    6   28 1
  16    7    8 1
  17    7   11 1
  18    8    9 2
  19    9   10 1
  20   10   17 ar
  21   10   21 ar
  22   11   12 2
  23   11   14 1
  24   13   14 2
  25   13   15 1
  26   13   16 1
  27   14   29 1
  28   15   30 1
  29   15   31 1
  30   15   32 1
  31   16   33 1
  32   16   34 1
  33   16   35 1
  34   17   18 ar
  35   17   36 1
  36   18   19 ar
  37   18   37 1
  38   19   20 ar
  39   19   38 1
  40   20   21 ar
  41   20   39 1
  42   21   40 1
  43   22   41 1
  44   22   42 1
  45   22   43 1

#	End of record

