#	Name: ASD01920054
#	Creating user name:	WinNT
#	Creation time:	15. 06. 2019 20:11

#	Modifying user name:	WinNT
#	Modification time:	15. 06. 2019 20:11

#	Program:	/corina/corina34_cracker 3.40 0067  02.08.2006

@<TRIPOS>MOLECULE
ASD01920054
  38   40    0    0    0
SMALL
NO_CHARGES


@<TRIPOS>ATOM
   1 C1            -0.0065     1.3661     0.0458 C.ar    
   2 C2            -0.0774     0.1104    -0.5355 C.ar    
   3 C3             1.0432    -0.4129    -1.1619 C.ar    
   4 C4             2.2028     0.3455    -1.1839 C.ar    
   5 C5             2.2021     1.6007    -0.5790 C.ar    
   6 N6             1.1072     2.0649     0.0104 N.ar    
   7 C7             3.4335     2.4238    -0.5938 C.2     
   8 O8             4.4389     2.0036    -1.1320 O.2     
   9 N9             3.4390     3.6387    -0.0103 N.am    
  10 C10            4.6303     4.3689     0.0747 C.ar    
  11 C11            4.6052     5.7537    -0.0295 C.ar    
  12 C12            5.8368     3.7094     0.2690 C.ar    
  13 C13            7.0127     4.4316     0.3533 C.ar    
  14 C14            6.9863     5.8164     0.2436 C.ar    
  15 C15            5.7801     6.4744     0.0548 C.ar    
  16 O16            8.1428     6.5272     0.3269 O.3     
  17 F17            8.1870     3.7911     0.5428 F       
  18 C18            8.9266     6.6001    -0.7780 C.ar    
  19 C19           10.1639     7.2269    -0.7036 C.ar    
  20 C20           10.9540     7.2941    -1.8380 C.ar    
  21 C21           10.4760     6.7290    -3.0121 C.ar    
  22 C22            9.2359     6.1214    -3.0135 C.ar    
  23 N23            8.5075     6.0686    -1.9148 N.ar    
  24 C24           11.3012     6.7785    -4.2721 C.3     
  25 F25           12.1193     5.6456    -4.3386 F       
  26 F26           10.4530     6.8071    -5.3843 F       
  27 F27           12.0975     7.9288    -4.2632 F       
  28 H28           -0.8789     1.7786     0.5307 H       
  29 H29           -0.9967    -0.4554    -0.5006 H       
  30 H30            1.0132    -1.3895    -1.6220 H       
  31 H31            3.0945    -0.0311    -1.6628 H       
  32 H32            2.6176     4.0071     0.3507 H       
  33 H33            3.6664     6.2669    -0.1769 H       
  34 H34            5.8565     2.6330     0.3546 H       
  35 H35            5.7603     7.5508    -0.0308 H       
  36 H36           10.5046     7.6564     0.2269 H       
  37 H37           11.9204     7.7755    -1.8103 H       
  38 H38            8.8594     5.6802    -3.9246 H       
@<TRIPOS>BOND
   1    1    2 ar
   2    1    6 ar
   3    1   28 1
   4    2    3 ar
   5    2   29 1
   6    3    4 ar
   7    3   30 1
   8    4    5 ar
   9    4   31 1
  10    5    6 ar
  11    5    7 1
  12    7    8 2
  13    7    9 am
  14    9   10 1
  15    9   32 1
  16   10   11 ar
  17   10   12 ar
  18   11   15 ar
  19   11   33 1
  20   12   13 ar
  21   12   34 1
  22   13   14 ar
  23   13   17 1
  24   14   15 ar
  25   14   16 1
  26   15   35 1
  27   16   18 1
  28   18   19 ar
  29   18   23 ar
  30   19   20 ar
  31   19   36 1
  32   20   21 ar
  33   20   37 1
  34   21   24 1
  35   21   22 ar
  36   22   23 ar
  37   22   38 1
  38   24   25 1
  39   24   26 1
  40   24   27 1

#	End of record

