#	Name: ASD01412088
#	Creating user name:	WinNT
#	Creation time:	15. 06. 2019 19:20

#	Modifying user name:	WinNT
#	Modification time:	15. 06. 2019 19:20

#	Program:	/corina/corina34_cracker 3.40 0067  02.08.2006

@<TRIPOS>MOLECULE
ASD01412088
  60   63    0    0    0
SMALL
NO_CHARGES


@<TRIPOS>ATOM
   1 C1             0.5532     2.4279     0.0905 C.ar    
   2 C2             0.2030     1.3252    -0.6759 C.ar    
   3 C3             1.1299     0.3356    -0.9553 C.ar    
   4 C4             2.4280     0.4330    -0.4695 C.ar    
   5 C5             2.7974     1.5465     0.3104 C.ar    
   6 C6             1.8474     2.5507     0.5892 C.ar    
   7 C7             0.7289    -0.8533    -1.7900 C.3     
   8 O8            -1.0638     1.2154    -1.1569 O.3     
   9 N9             3.5403    -0.3764    -0.5810 N.pl3   
  10 C10            4.5856     0.1785     0.0933 C.2     
  11 C11            4.1940     1.3446     0.6540 C.2     
  12 C12            5.9898    -0.3621     0.2366 C.3     
  13 O13            6.8300     0.7000     0.7058 O.3     
  14 C14            6.3342     1.3795     1.8625 C.3     
  15 C15            5.1068     2.2182     1.4763 C.3     
  16 C16            6.0001    -1.5129     1.2447 C.3     
  17 C17            6.4934    -0.8582    -1.1203 C.3     
  18 C18           -1.9377     2.3255    -0.9424 C.3     
  19 C19            7.4338    -2.0126     1.4336 C.3     
  20 C20            7.4438    -3.1649     2.4401 C.3     
  21 C21           -3.0423     2.3171    -2.0012 C.3     
  22 N22           -2.4525     2.5380    -3.3239 N.pl3   
  23 N23           -1.6380     3.6162    -3.6934 N.2     
  24 C24           -1.3073     3.4667    -4.9504 C.2     
  25 C25           -1.8998     2.2903    -5.4211 C.2     
  26 C26           -2.5932     1.7359    -4.3999 C.2     
  27 C27           -2.5645     2.2197     0.4493 C.3     
  28 C28            2.2109     3.6880     1.3797 C.1     
  29 N29            2.4993     4.5903     2.0068 N.1     
  30 C30            6.4419     0.2699    -2.1183 C.2     
  31 O31            6.0049     1.3474    -1.7900 O.2     
  32 O32            6.8814     0.0775    -3.3719 O.3     
  33 H33           -0.1787     3.1948     0.2969 H       
  34 H34            0.9127    -0.6370    -2.8424 H       
  35 H35            1.3149    -1.7221    -1.4900 H       
  36 H36           -0.3308    -1.0608    -1.6414 H       
  37 H37            3.5727    -1.2153    -1.0667 H       
  38 H38            6.0510     0.6485     2.6198 H       
  39 H39            7.1104     2.0331     2.2605 H       
  40 H40            5.4193     3.0816     0.8889 H       
  41 H41            4.5886     2.5506     2.3758 H       
  42 H42            5.6086    -1.1628     2.1998 H       
  43 H43            5.3776    -2.3269     0.8733 H       
  44 H44            7.5208    -1.2084    -1.0207 H       
  45 H45            5.8621    -1.6772    -1.4649 H       
  46 H46           -1.3710     3.2536    -1.0161 H       
  47 H47            7.8259    -2.3612     0.4782 H       
  48 H48            8.0560    -1.1990     1.8066 H       
  49 H49            8.4652    -3.5209     2.5747 H       
  50 H50            7.0517    -2.8162     3.3955 H       
  51 H51            6.8217    -3.9785     2.0672 H       
  52 H52           -3.5519     1.3537    -1.9869 H       
  53 H53           -3.7583     3.1101    -1.7855 H       
  54 H54           -0.6848     4.1361    -5.5254 H       
  55 H55           -1.8150     1.8923    -6.4215 H       
  56 H56           -3.1633     0.8195    -4.4408 H       
  57 H57           -3.1313     1.2916     0.5229 H       
  58 H58           -1.7776     2.2257     1.2035 H       
  59 H59           -3.2311     3.0665     0.6129 H       
  60 H60            6.8282     0.8306    -3.9762 H       
@<TRIPOS>BOND
   1    1    2 ar
   2    1    6 ar
   3    1   33 1
   4    2    3 ar
   5    2    8 1
   6    3    4 ar
   7    3    7 1
   8    4    5 ar
   9    4    9 1
  10    5    6 ar
  11    5   11 1
  12    6   28 1
  13    7   34 1
  14    7   35 1
  15    7   36 1
  16    8   18 1
  17    9   10 1
  18    9   37 1
  19   10   11 2
  20   10   12 1
  21   11   15 1
  22   12   13 1
  23   12   16 1
  24   12   17 1
  25   13   14 1
  26   14   15 1
  27   14   38 1
  28   14   39 1
  29   15   40 1
  30   15   41 1
  31   16   19 1
  32   16   42 1
  33   16   43 1
  34   17   30 1
  35   17   44 1
  36   17   45 1
  37   18   21 1
  38   18   27 1
  39   18   46 1
  40   19   20 1
  41   19   47 1
  42   19   48 1
  43   20   49 1
  44   20   50 1
  45   20   51 1
  46   21   22 1
  47   21   52 1
  48   21   53 1
  49   22   23 1
  50   22   26 1
  51   23   24 2
  52   24   25 1
  53   24   54 1
  54   25   26 2
  55   25   55 1
  56   26   56 1
  57   27   57 1
  58   27   58 1
  59   27   59 1
  60   28   29 3
  61   30   31 2
  62   30   32 1
  63   32   60 1

#	End of record

