#	Name: ASD01201044
#	Creating user name:	WinNT
#	Creation time:	15. 06. 2019 19:09

#	Modifying user name:	WinNT
#	Modification time:	15. 06. 2019 19:09

#	Program:	/corina/corina34_cracker 3.40 0067  02.08.2006

@<TRIPOS>MOLECULE
ASD01201044
  43   45    0    0    0
SMALL
NO_CHARGES


@<TRIPOS>ATOM
   1 C1            -0.0167     1.3792     0.0096 C.ar    
   2 C2             0.0021    -0.0041     0.0020 C.ar    
   3 C3             1.2087    -0.6842    -0.0132 C.ar    
   4 C4             2.3920     0.0166    -0.0208 C.ar    
   5 C5             2.3846     1.4137    -0.0132 C.ar    
   6 C6             1.1648     2.0919     0.0022 C.ar    
   7 C7             3.8409    -0.4021    -0.0369 C.3     
   8 N8             4.6266     0.8371    -0.0378 N.am    
   9 C9             3.7832     1.8837    -0.0241 C.2     
  10 O10            4.1240     3.0505    -0.0207 O.2     
  11 C11            6.0892     0.9201    -0.0514 C.3     
  12 S12            4.2232    -1.3815     1.4413 S.3     
  13 C13            3.6289    -3.0373     0.9988 C.3     
  14 C14            6.5845     0.9567    -1.4985 C.3     
  15 C15            3.8791    -3.9837     2.1445 C.2     
  16 O16            4.4064    -3.5808     3.1597 O.2     
  17 N17            3.5169    -5.2777     2.0411 N.am    
  18 C18            3.7476    -6.1506     3.0979 C.2     
  19 N19            3.4393    -7.4097     3.1019 N.2     
  20 C20            3.7311    -8.0929     4.1928 C.2     
  21 C21            4.3138    -7.3771     5.1565 C.2     
  22 S22            4.4861    -5.7216     4.5790 S.3     
  23 C23            8.1120     1.0433    -1.5127 C.3     
  24 C24            8.6073     1.0799    -2.9598 C.3     
  25 H25           -0.9607     1.9038     0.0169 H       
  26 H26           -0.9267    -0.5552     0.0083 H       
  27 H27            1.2202    -1.7641    -0.0188 H       
  28 H28            1.1457     3.1718     0.0078 H       
  29 H29            4.0535    -0.9810    -0.9357 H       
  30 H30            6.4065     1.8264     0.4643 H       
  31 H31            6.5072     0.0493     0.4538 H       
  32 H32            2.5601    -2.9956     0.7887 H       
  33 H33            4.1596    -3.3894     0.1142 H       
  34 H34            6.2672     0.0503    -2.0142 H       
  35 H35            6.1665     1.8274    -2.0037 H       
  36 H36            3.0951    -5.5999     1.2292 H       
  37 H37            3.5158    -9.1461     4.2970 H       
  38 H38            4.6288    -7.7487     6.1204 H       
  39 H39            8.4293     1.9497    -0.9970 H       
  40 H40            8.5300     0.1726    -1.0075 H       
  41 H41            8.2900     0.1736    -3.4755 H       
  42 H42            8.1893     1.9507    -3.4650 H       
  43 H43            9.6955     1.1417    -2.9699 H       
@<TRIPOS>BOND
   1    1    2 ar
   2    1    6 ar
   3    1   25 1
   4    2    3 ar
   5    2   26 1
   6    3    4 ar
   7    3   27 1
   8    4    5 ar
   9    4    7 1
  10    5    6 ar
  11    5    9 1
  12    6   28 1
  13    7    8 1
  14    7   12 1
  15    7   29 1
  16    8    9 am
  17    8   11 1
  18    9   10 2
  19   11   14 1
  20   11   30 1
  21   11   31 1
  22   12   13 1
  23   13   15 1
  24   13   32 1
  25   13   33 1
  26   14   23 1
  27   14   34 1
  28   14   35 1
  29   15   16 2
  30   15   17 am
  31   17   18 1
  32   17   36 1
  33   18   19 2
  34   18   22 1
  35   19   20 1
  36   20   21 2
  37   20   37 1
  38   21   22 1
  39   21   38 1
  40   23   24 1
  41   23   39 1
  42   23   40 1
  43   24   41 1
  44   24   42 1
  45   24   43 1

#	End of record

