#	Name: ASD00890001
#	Creating user name:	WinNT
#	Creation time:	15. 06. 2019 18:53

#	Modifying user name:	WinNT
#	Modification time:	15. 06. 2019 18:53

#	Program:	/corina/corina34_cracker 3.40 0067  02.08.2006

@<TRIPOS>MOLECULE
ASD00890001
  50   53    0    0    0
SMALL
NO_CHARGES


@<TRIPOS>ATOM
   1 C1             0.2168     1.2034    -0.1949 C.ar    
   2 C2             0.3214    -0.1714    -0.3086 C.ar    
   3 C3             1.5632    -0.7658    -0.4041 C.ar    
   4 C4             2.7127     0.0211    -0.3864 C.ar    
   5 C5             2.6017     1.4048    -0.2722 C.ar    
   6 C6             1.3546     1.9892    -0.1768 C.ar    
   7 S7             1.2124     3.7396    -0.0329 S.o2    
   8 O8            -0.0433     3.9908     0.5831 O.2     
   9 O9             2.4461     4.1999     0.5012 O.2     
  10 N10            1.1105     4.3510    -1.5686 N.am    
  11 C11            4.0513    -0.6130    -0.4883 C.2     
  12 C12            4.3040    -1.9488    -0.6037 C.2     
  13 N13            5.6414    -2.1069    -0.6679 N.pl3   
  14 N14            6.2358    -0.8415    -0.5909 N.2     
  15 C15            5.2910     0.0555    -0.4896 C.2     
  16 C16            6.3503    -3.3825    -0.7958 C.3     
  17 C17            7.2610    -3.3331    -1.9955 C.ar    
  18 C18            8.5625    -2.8882    -1.8574 C.ar    
  19 C19            9.3978    -2.8428    -2.9579 C.ar    
  20 C20            8.9317    -3.2427    -4.1964 C.ar    
  21 C21            7.6305    -3.6885    -4.3342 C.ar    
  22 C22            6.7965    -3.7380    -3.2329 C.ar    
  23 C23            0.0680     3.9667    -2.4010 C.ar    
  24 C24           -1.1974     3.7366    -1.8750 C.ar    
  25 C25           -2.2317     3.3549    -2.7043 C.ar    
  26 C26           -2.0192     3.1978    -4.0651 C.ar    
  27 C27           -0.7723     3.4212    -4.6054 C.ar    
  28 C28            0.2852     3.8141    -3.7797 C.ar    
  29 C29            1.6214     4.0552    -4.3508 C.2     
  30 O30            1.8276     3.8971    -5.6731 O.3     
  31 O31            2.5378     4.3967    -3.6294 O.2     
  32 H32           -0.7571     1.6649    -0.1246 H       
  33 H33           -0.5704    -0.7805    -0.3222 H       
  34 H34            1.6437    -1.8392    -0.4921 H       
  35 H35            3.4897     2.0194    -0.2577 H       
  36 H36            1.7793     4.9776    -1.8864 H       
  37 H37            3.5662    -2.7368    -0.6374 H       
  38 H38            5.4358     1.1230    -0.4124 H       
  39 H39            6.9418    -3.5611     0.1022 H       
  40 H40            5.6277    -4.1888    -0.9211 H       
  41 H41            8.9266    -2.5757    -0.8899 H       
  42 H42           10.4144    -2.4946    -2.8502 H       
  43 H43            9.5841    -3.2066    -5.0563 H       
  44 H44            7.2663    -4.0006    -5.3019 H       
  45 H45            5.7799    -4.0862    -3.3406 H       
  46 H46           -1.3713     3.8564    -0.8159 H       
  47 H47           -3.2132     3.1769    -2.2905 H       
  48 H48           -2.8360     2.8982    -4.7051 H       
  49 H49           -0.6125     3.2969    -5.6663 H       
  50 H50            2.7211     4.0668    -6.0015 H       
@<TRIPOS>BOND
   1    1    2 ar
   2    1    6 ar
   3    1   32 1
   4    2    3 ar
   5    2   33 1
   6    3    4 ar
   7    3   34 1
   8    4    5 ar
   9    4   11 1
  10    5    6 ar
  11    5   35 1
  12    6    7 1
  13    7    8 2
  14    7    9 2
  15    7   10 am
  16   10   23 1
  17   10   36 1
  18   11   12 2
  19   11   15 1
  20   12   13 1
  21   12   37 1
  22   13   14 1
  23   13   16 1
  24   14   15 2
  25   15   38 1
  26   16   17 1
  27   16   39 1
  28   16   40 1
  29   17   18 ar
  30   17   22 ar
  31   18   19 ar
  32   18   41 1
  33   19   20 ar
  34   19   42 1
  35   20   21 ar
  36   20   43 1
  37   21   22 ar
  38   21   44 1
  39   22   45 1
  40   23   24 ar
  41   23   28 ar
  42   24   25 ar
  43   24   46 1
  44   25   26 ar
  45   25   47 1
  46   26   27 ar
  47   26   48 1
  48   27   28 ar
  49   27   49 1
  50   28   29 1
  51   29   30 1
  52   29   31 2
  53   30   50 1

#	End of record

