#	Name: ASD01870698
#	Creating user name:	WinNT
#	Creation time:	15. 06. 2019 19:39

#	Modifying user name:	WinNT
#	Modification time:	15. 06. 2019 19:39

#	Program:	/corina/corina34_cracker 3.40 0067  02.08.2006

@<TRIPOS>MOLECULE
ASD01870698
  49   52    0    0    0
SMALL
NO_CHARGES


@<TRIPOS>ATOM
   1 C1            -0.0365     1.5084    -0.0078 C.3     
   2 C2             0.0046    -0.0218    -0.0086 C.3     
   3 N3             0.9776    -0.4715     0.9986 N.am    
   4 C4             2.3936    -0.1303     0.7892 C.3     
   5 C5             1.3856     2.0449    -0.0089 C.2     
   6 C6             0.5844    -1.1737     2.0797 C.2     
   7 C7             1.5929    -1.7270     3.0086 C.ar    
   8 O8            -0.5992    -1.3520     2.2911 O.2     
   9 C9             1.7433     3.3966    -0.3916 C.2     
  10 C10            2.4560     1.3200     0.3464 C.2     
  11 S11            3.9218     2.2779     0.2273 S.3     
  12 C12            3.0720     3.6525    -0.3091 C.2     
  13 C13            0.7833     4.3700    -0.8176 C.1     
  14 N14            0.0216     5.1421    -1.1555 N.1     
  15 C15            3.7107     4.9749    -0.6472 C.3     
  16 N16            3.7571     5.8155     0.5517 N.pl3   
  17 C17            4.3095     7.0967     0.4854 C.ar    
  18 C18            1.3269    -1.7866     4.3777 C.ar    
  19 C19            2.2719    -2.3045     5.2388 C.ar    
  20 C20            3.4813    -2.7643     4.7482 C.ar    
  21 C21            3.7514    -2.7077     3.3926 C.ar    
  22 C22            2.8125    -2.1973     2.5198 C.ar    
  23 C23            4.8102     7.5775    -0.7178 C.ar    
  24 C24            4.3543     7.8951     1.6213 C.ar    
  25 C25            4.9012     9.1613     1.5522 C.ar    
  26 C26            5.4035     9.6348     0.3540 C.ar    
  27 C27            5.3557     8.8447    -0.7799 C.ar    
  28 C28            5.0714    -3.2103     2.8673 C.3     
  29 H29           -0.5590     1.8593    -0.8977 H       
  30 H30           -0.5572     1.8584     0.8835 H       
  31 H31           -0.9825    -0.4137     0.2367 H       
  32 H32            0.3070    -0.3785    -0.9932 H       
  33 H33            2.9460    -0.2567     1.7202 H       
  34 H34            2.8180    -0.7713     0.0165 H       
  35 H35            4.7239     4.8063    -1.0122 H       
  36 H36            3.1251     5.4746    -1.4189 H       
  37 H37            3.4042     5.4824     1.3916 H       
  38 H38            0.3835    -1.4278     4.7618 H       
  39 H39            2.0675    -2.3508     6.2982 H       
  40 H40            4.2178    -3.1688     5.4266 H       
  41 H41            3.0226    -2.1581     1.4611 H       
  42 H42            4.7732     6.9609    -1.6037 H       
  43 H43            3.9616     7.5261     2.5572 H       
  44 H44            4.9364     9.7826     2.4350 H       
  45 H45            5.8300    10.6257     0.3026 H       
  46 H46            5.7452     9.2191    -1.7150 H       
  47 H47            4.9853    -4.2686     2.6210 H       
  48 H48            5.3436    -2.6500     1.9729 H       
  49 H49            5.8402    -3.0758     3.6283 H       
@<TRIPOS>BOND
   1    1    2 1
   2    1    5 1
   3    1   29 1
   4    1   30 1
   5    2    3 1
   6    2   31 1
   7    2   32 1
   8    3    4 1
   9    3    6 am
  10    4   10 1
  11    4   33 1
  12    4   34 1
  13    5   10 2
  14    5    9 1
  15    6    7 1
  16    6    8 2
  17    7   18 ar
  18    7   22 ar
  19    9   12 2
  20    9   13 1
  21   10   11 1
  22   11   12 1
  23   12   15 1
  24   13   14 3
  25   15   16 1
  26   15   35 1
  27   15   36 1
  28   16   17 1
  29   16   37 1
  30   17   24 ar
  31   17   23 ar
  32   18   19 ar
  33   18   38 1
  34   19   20 ar
  35   19   39 1
  36   20   21 ar
  37   20   40 1
  38   21   22 ar
  39   21   28 1
  40   22   41 1
  41   23   27 ar
  42   23   42 1
  43   24   25 ar
  44   24   43 1
  45   25   26 ar
  46   25   44 1
  47   26   27 ar
  48   26   45 1
  49   27   46 1
  50   28   47 1
  51   28   48 1
  52   28   49 1

#	End of record

