#	Name: ASD01884329
#	Creating user name:	WinNT
#	Creation time:	15. 06. 2019 19:48

#	Modifying user name:	WinNT
#	Modification time:	15. 06. 2019 19:48

#	Program:	/corina/corina34_cracker 3.40 0067  02.08.2006

@<TRIPOS>MOLECULE
ASD01884329
  57   59    0    0    0
SMALL
NO_CHARGES


@<TRIPOS>ATOM
   1 C1            -0.3043    -0.9243     1.8668 C.2     
   2 C2             0.1821    -0.1894     0.7723 C.2     
   3 C3            -0.3865     1.0676     0.4952 C.2     
   4 C4            -1.3805     1.5457     1.2751 C.2     
   5 N5            -1.8518     0.8365     2.3335 N.am    
   6 C6            -1.3510    -0.3738     2.6435 C.2     
   7 O7            -1.7916    -0.9904     3.5989 O.2     
   8 C8            -2.9313     1.3973     3.1500 C.3     
   9 C9            -4.2820     0.9626     2.5779 C.3     
  10 C10            0.2445    -2.2078     2.1861 C.1     
  11 N11            0.6798    -3.2260     2.4395 N.1     
  12 N12            1.1960    -0.6894    -0.0135 N.pl3   
  13 N13            2.3740    -0.0068    -0.1246 N.3     
  14 C14            3.1863    -0.1569     1.0909 C.3     
  15 C15            4.5274     0.5543     0.8959 C.3     
  16 N16            4.2878     1.9732     0.5980 N.3     
  17 C17            3.4755     2.1233    -0.6174 C.3     
  18 C18            2.1343     1.4121    -0.4225 C.3     
  19 C19           -5.4093     1.5483     3.4305 C.3     
  20 C20           -5.3941     3.0741     3.3177 C.3     
  21 C21           -6.7544     1.0137     2.9346 C.3     
  22 C22            5.5546     2.7073     0.4785 C.3     
  23 C23            5.2862     4.0874    -0.0641 C.ar    
  24 C24            5.0292     5.1330     0.8028 C.ar    
  25 C25            4.7830     6.3989     0.3050 C.ar    
  26 C26            4.7942     6.6193    -1.0596 C.ar    
  27 C27            5.0521     5.5738    -1.9264 C.ar    
  28 C28            5.3026     4.3088    -1.4285 C.ar    
  29 H29           -0.0282     1.6500    -0.3407 H       
  30 H30           -1.8089     2.5119     1.0529 H       
  31 H31           -2.8373     1.0362     4.1741 H       
  32 H32           -2.8660     2.4853     3.1409 H       
  33 H33           -4.3760     1.3237     1.5537 H       
  34 H34           -4.3473    -0.1254     2.5870 H       
  35 H35            1.0738    -1.5264    -0.4882 H       
  36 H36            2.6599     0.2850     1.9369 H       
  37 H37            3.3606    -1.2155     1.2834 H       
  38 H38            5.1200     0.4690     1.8068 H       
  39 H39            5.0658     0.0945     0.0671 H       
  40 H40            3.3012     3.1819    -0.8099 H       
  41 H41            4.0019     1.6814    -1.4635 H       
  42 H42            1.5418     1.4974    -1.3334 H       
  43 H43            1.5960     1.8719     0.4063 H       
  44 H44           -5.2651     1.2595     4.4716 H       
  45 H45           -5.5384     3.3629     2.2766 H       
  46 H46           -6.1972     3.4914     3.9252 H       
  47 H47           -4.4359     3.4550     3.6710 H       
  48 H48           -6.7652    -0.0733     3.0150 H       
  49 H49           -7.5575     1.4310     3.5421 H       
  50 H50           -6.8987     1.3025     1.8936 H       
  51 H51            6.0221     2.7873     1.4599 H       
  52 H52            6.2212     2.1738    -0.1990 H       
  53 H53            5.0205     4.9608     1.8689 H       
  54 H54            4.5815     7.2157     0.9823 H       
  55 H55            4.6012     7.6081    -1.4485 H       
  56 H56            5.0605     5.7459    -2.9926 H       
  57 H57            5.5041     3.4921    -2.1058 H       
@<TRIPOS>BOND
   1    1    2 2
   2    1   10 1
   3    1    6 1
   4    2    3 1
   5    2   12 1
   6    3    4 2
   7    3   29 1
   8    4    5 1
   9    4   30 1
  10    5    6 am
  11    5    8 1
  12    6    7 2
  13    8    9 1
  14    8   31 1
  15    8   32 1
  16    9   19 1
  17    9   33 1
  18    9   34 1
  19   10   11 3
  20   12   13 1
  21   12   35 1
  22   13   14 1
  23   13   18 1
  24   14   15 1
  25   14   36 1
  26   14   37 1
  27   15   16 1
  28   15   38 1
  29   15   39 1
  30   16   17 1
  31   16   22 1
  32   17   18 1
  33   17   40 1
  34   17   41 1
  35   18   42 1
  36   18   43 1
  37   19   20 1
  38   19   21 1
  39   19   44 1
  40   20   45 1
  41   20   46 1
  42   20   47 1
  43   21   48 1
  44   21   49 1
  45   21   50 1
  46   22   23 1
  47   22   51 1
  48   22   52 1
  49   23   24 ar
  50   23   28 ar
  51   24   25 ar
  52   24   53 1
  53   25   26 ar
  54   25   54 1
  55   26   27 ar
  56   26   55 1
  57   27   28 ar
  58   27   56 1
  59   28   57 1

#	End of record

