#	Name: ASD00311420
#	Creating user name:	WinNT
#	Creation time:	15. 06. 2019 18:34

#	Modifying user name:	WinNT
#	Modification time:	15. 06. 2019 18:34

#	Program:	/corina/corina34_cracker 3.40 0067  02.08.2006

@<TRIPOS>MOLECULE
ASD00311420
  41   44    0    0    0
SMALL
NO_CHARGES


@<TRIPOS>ATOM
   1 C1            -0.0167     1.3779     0.0096 C.2     
   2 C2             0.0021    -0.0041     0.0020 C.2     
   3 C3             1.2591    -0.6766    -0.0136 C.2     
   4 C4             2.4313     0.0672    -0.0208 C.2     
   5 C5             2.3575     1.4749    -0.0126 C.2     
   6 N6             1.1650     2.0904     0.0022 N.am    
   7 C7            -1.3430    -0.5749     0.0123 C.2     
   8 C8            -2.3221     0.3255     0.0268 C.2     
   9 S9            -1.6794     1.9559     0.0358 S.3     
  10 O10            3.3825     2.1369    -0.0188 O.2     
  11 C11            3.7479    -0.6123    -0.0366 C.ar    
  12 C12            4.5927    -0.4741    -1.1376 C.ar    
  13 C13            5.8178    -1.1078    -1.1486 C.ar    
  14 C14            6.2102    -1.8822    -0.0656 C.ar    
  15 C15            5.3720    -2.0220     1.0319 C.ar    
  16 C16            4.1478    -1.3869     1.0521 C.ar    
  17 O17            7.4181    -2.5056    -0.0800 O.3     
  18 C18            7.7588    -3.2867     1.0671 C.3     
  19 O19            1.3092    -2.0293    -0.0209 O.3     
  20 C20           -1.5954    -2.0356     0.0062 C.ar    
  21 C21           -1.2000    -2.8211     1.0942 C.ar    
  22 C22           -1.4391    -4.1845     1.0811 C.ar    
  23 C23           -2.0679    -4.7680    -0.0062 C.ar    
  24 C24           -2.4600    -3.9921    -1.0850 C.ar    
  25 C25           -2.2324    -2.6305    -1.0805 C.ar    
  26 O26           -0.5827    -2.2475     2.1603 O.3     
  27 F27           -2.2995    -6.0989    -0.0152 F       
  28 H28            1.1330     3.0599     0.0073 H       
  29 H29           -3.3746     0.0835     0.0360 H       
  30 H30            4.2879     0.1280    -1.9808 H       
  31 H31            6.4724    -1.0015    -2.0010 H       
  32 H32            5.6804    -2.6256     1.8727 H       
  33 H33            3.4978    -1.4928     1.9081 H       
  34 H34            8.7454    -3.7281     0.9262 H       
  35 H35            7.7689    -2.6490     1.9510 H       
  36 H36            7.0219    -4.0790     1.1991 H       
  37 H37            2.2065    -2.3895    -0.0315 H       
  38 H38           -1.1348    -4.7938     1.9193 H       
  39 H39           -2.9496    -4.4533    -1.9300 H       
  40 H40           -2.5436    -2.0278    -1.9209 H       
  41 H41           -1.1890    -1.9472     2.8511 H       
@<TRIPOS>BOND
   1    1    2 2
   2    1    6 1
   3    1    9 1
   4    2    3 1
   5    2    7 1
   6    3    4 2
   7    3   19 1
   8    4    5 1
   9    4   11 1
  10    5    6 am
  11    5   10 2
  12    6   28 1
  13    7    8 2
  14    7   20 1
  15    8    9 1
  16    8   29 1
  17   11   12 ar
  18   11   16 ar
  19   12   13 ar
  20   12   30 1
  21   13   14 ar
  22   13   31 1
  23   14   15 ar
  24   14   17 1
  25   15   16 ar
  26   15   32 1
  27   16   33 1
  28   17   18 1
  29   18   34 1
  30   18   35 1
  31   18   36 1
  32   19   37 1
  33   20   21 ar
  34   20   25 ar
  35   21   22 ar
  36   21   26 1
  37   22   23 ar
  38   22   38 1
  39   23   24 ar
  40   23   27 1
  41   24   25 ar
  42   24   39 1
  43   25   40 1
  44   26   41 1

#	End of record

