#	Name: ASD01880373
#	Creating user name:	WinNT
#	Creation time:	15. 06. 2019 19:40

#	Modifying user name:	WinNT
#	Modification time:	15. 06. 2019 19:40

#	Program:	/corina/corina34_cracker 3.40 0067  02.08.2006

@<TRIPOS>MOLECULE
ASD01880373
  47   49    0    0    0
SMALL
NO_CHARGES


@<TRIPOS>ATOM
   1 C1            -0.0191     1.3175    -0.0162 C.ar    
   2 N2             0.0001    -0.0031    -0.0106 N.ar    
   3 C3            -1.1232    -0.7056    -0.0046 C.ar    
   4 C4            -2.3633    -0.0170    -0.0043 C.ar    
   5 C5            -2.3268     1.3802    -0.0103 C.ar    
   6 N6            -1.1404     2.0007    -0.0107 N.ar    
   7 C7            -3.7221    -0.5250     0.0010 C.2     
   8 C8            -4.6598     0.4026    -0.0008 C.2     
   9 S9            -3.9664     2.0132    -0.0092 S.3     
  10 C10           -6.1391     0.1148     0.0029 C.3     
  11 N11           -1.0872    -2.0894     0.0007 N.pl3   
  12 C12            0.1347    -2.7571    -0.1205 C.ar    
  13 C13           -6.6297     0.0241     1.4249 C.2     
  14 C14           -7.6404     0.7922     1.8315 C.2     
  15 C15           -8.1172     0.7041     3.2136 C.2     
  16 C16           -9.1401     1.4814     3.6251 C.2     
  17 C17           -9.7738     2.4136     2.6897 C.2     
  18 C18          -10.7845     3.1816     3.0963 C.2     
  19 C19            1.2894     2.0650    -0.0229 C.3     
  20 C20            0.3409    -3.9573     0.5483 C.ar    
  21 C21            1.5487    -4.6171     0.4284 C.ar    
  22 C22            2.5543    -4.0859    -0.3564 C.ar    
  23 C23            2.3539    -2.8873    -1.0273 C.ar    
  24 C24            1.1420    -2.2249    -0.9139 C.ar    
  25 O25            3.3439    -2.3662    -1.7988 O.3     
  26 C26            4.5648    -3.1050    -1.8738 C.3     
  27 H27           -3.9485    -1.5810     0.0057 H       
  28 H28           -6.6666     0.9172    -0.5130 H       
  29 H29           -6.3267    -0.8300    -0.5072 H       
  30 H30           -1.9099    -2.5956     0.0886 H       
  31 H31           -6.1624    -0.6632     2.1145 H       
  32 H32           -8.1077     1.4795     1.1418 H       
  33 H33           -7.6499     0.0167     3.9032 H       
  34 H34           -9.4917     1.4164     4.6442 H       
  35 H35           -9.4222     2.4786     1.6706 H       
  36 H36          -11.2518     3.8690     2.4067 H       
  37 H37          -11.1361     3.1166     4.1154 H       
  38 H38            1.6021     2.2408    -1.0521 H       
  39 H39            1.1647     3.0202     0.4872 H       
  40 H40            2.0477     1.4747     0.4915 H       
  41 H41           -0.4433    -4.3744     1.1626 H       
  42 H42            1.7074    -5.5498     0.9493 H       
  43 H43            3.4977    -4.6037    -0.4476 H       
  44 H44            0.9843    -1.2923    -1.4352 H       
  45 H45            4.9921    -3.2032    -0.8759 H       
  46 H46            4.3655    -4.0955    -2.2828 H       
  47 H47            5.2681    -2.5799    -2.5201 H       
@<TRIPOS>BOND
   1    1    2 ar
   2    1   19 1
   3    1    6 ar
   4    2    3 ar
   5    3    4 ar
   6    3   11 1
   7    4    5 ar
   8    4    7 1
   9    5    6 ar
  10    5    9 1
  11    7    8 2
  12    7   27 1
  13    8    9 1
  14    8   10 1
  15   10   13 1
  16   10   28 1
  17   10   29 1
  18   11   12 1
  19   11   30 1
  20   12   20 ar
  21   12   24 ar
  22   13   14 2
  23   13   31 1
  24   14   15 1
  25   14   32 1
  26   15   16 2
  27   15   33 1
  28   16   17 1
  29   16   34 1
  30   17   18 2
  31   17   35 1
  32   18   36 1
  33   18   37 1
  34   19   38 1
  35   19   39 1
  36   19   40 1
  37   20   21 ar
  38   20   41 1
  39   21   22 ar
  40   21   42 1
  41   22   23 ar
  42   22   43 1
  43   23   24 ar
  44   23   25 1
  45   24   44 1
  46   25   26 1
  47   26   45 1
  48   26   46 1
  49   26   47 1

#	End of record

