#	Name: ASD01885319
#	Creating user name:	WinNT
#	Creation time:	15. 06. 2019 19:49

#	Modifying user name:	WinNT
#	Modification time:	15. 06. 2019 19:49

#	Program:	/corina/corina34_cracker 3.40 0067  02.08.2006

@<TRIPOS>MOLECULE
ASD01885319
  50   53    0    0    0
SMALL
NO_CHARGES


@<TRIPOS>ATOM
   1 C1            -0.0164     1.3565     0.0095 C.ar    
   2 C2             0.0021    -0.0041     0.0020 C.ar    
   3 C3             1.2052    -0.7063    -0.0132 C.ar    
   4 C4             2.3986    -0.0481    -0.0211 C.ar    
   5 C5             2.4181     1.3524    -0.0137 C.ar    
   6 C6             1.1963     2.0715     0.0018 C.ar    
   7 C7             3.6402     2.0714    -0.0215 C.ar    
   8 C8             3.5783     3.4584    -0.0135 C.ar    
   9 C9             2.3315     4.0925     0.0018 C.ar    
  10 N10            1.2047     3.4051     0.0084 N.ar    
  11 C11            4.9416     1.3652    -0.0371 C.2     
  12 C12            2.2743     5.5743     0.0102 C.2     
  13 O13            3.3022     6.2220     0.0039 O.2     
  14 N14            1.0820     6.2025     0.0249 N.am    
  15 C15           -1.2996    -0.7634     0.0109 C.3     
  16 N16           -1.7363    -1.0027    -1.3712 N.3     
  17 C17           -2.8691    -1.9389    -1.4111 C.3     
  18 C18           -3.2525    -2.2057    -2.8691 C.3     
  19 O19           -3.5530    -0.9644    -3.5126 O.3     
  20 C20           -2.4714    -0.0289    -3.4928 C.3     
  21 C21           -2.0801     0.2600    -2.0411 C.3     
  22 C22           -4.4813    -3.1160    -2.9158 C.3     
  23 F23           -5.5485    -2.4929    -2.2600 F       
  24 F24           -4.8310    -3.3594    -4.2484 F       
  25 F25           -4.1881    -4.3282    -2.2818 F       
  26 C26            5.3341     0.3202     0.8248 C.2     
  27 N27            6.5465    -0.0398     0.4987 N.2     
  28 N28            6.9741     0.7520    -0.5737 N.pl3   
  29 C29            5.9803     1.6027    -0.8935 C.2     
  30 C30            8.2772     0.6663    -1.2376 C.3     
  31 H31           -0.9577     1.8859     0.0168 H       
  32 H32            1.1920    -1.7862    -0.0186 H       
  33 H33            3.3247    -0.6037    -0.0325 H       
  34 H34            4.4860     4.0435    -0.0186 H       
  35 H35            0.2613     5.6854     0.0299 H       
  36 H36            1.0445     7.1718     0.0304 H       
  37 H37           -1.1600    -1.7179     0.5182 H       
  38 H38           -2.0567    -0.1805     0.5354 H       
  39 H39           -2.5841    -2.8757    -0.9324 H       
  40 H40           -3.7191    -1.5044    -0.8849 H       
  41 H41           -2.4208    -2.6893    -3.3815 H       
  42 H42           -1.6170    -0.4492    -4.0233 H       
  43 H43           -2.7819     0.8968    -3.9772 H       
  44 H44           -2.9175     0.7296    -1.5251 H       
  45 H45           -1.2192     0.9282    -2.0223 H       
  46 H46            4.7367    -0.1074     1.6164 H       
  47 H47            6.0011     2.3405    -1.6819 H       
  48 H48            8.2186    -0.0431    -2.0630 H       
  49 H49            8.5548     1.6481    -1.6213 H       
  50 H50            9.0279     0.3303    -0.5223 H       
@<TRIPOS>BOND
   1    1    2 ar
   2    1    6 ar
   3    1   31 1
   4    2    3 ar
   5    2   15 1
   6    3    4 ar
   7    3   32 1
   8    4    5 ar
   9    4   33 1
  10    5    7 ar
  11    5    6 ar
  12    6   10 ar
  13    7    8 ar
  14    7   11 1
  15    8    9 ar
  16    8   34 1
  17    9   10 ar
  18    9   12 1
  19   11   26 1
  20   11   29 2
  21   12   13 2
  22   12   14 am
  23   14   35 1
  24   14   36 1
  25   15   16 1
  26   15   37 1
  27   15   38 1
  28   16   17 1
  29   16   21 1
  30   17   18 1
  31   17   39 1
  32   17   40 1
  33   18   19 1
  34   18   22 1
  35   18   41 1
  36   19   20 1
  37   20   21 1
  38   20   42 1
  39   20   43 1
  40   21   44 1
  41   21   45 1
  42   22   23 1
  43   22   24 1
  44   22   25 1
  45   26   27 2
  46   26   46 1
  47   27   28 1
  48   28   29 1
  49   28   30 1
  50   29   47 1
  51   30   48 1
  52   30   49 1
  53   30   50 1

#	End of record

