#	Name: ASD01885602
#	Creating user name:	WinNT
#	Creation time:	15. 06. 2019 19:49

#	Modifying user name:	WinNT
#	Modification time:	15. 06. 2019 19:49

#	Program:	/corina/corina34_cracker 3.40 0067  02.08.2006

@<TRIPOS>MOLECULE
ASD01885602
  50   54    0    0    0
SMALL
NO_CHARGES


@<TRIPOS>ATOM
   1 C1            -0.0168     1.3907     0.0097 C.ar    
   2 C2             0.0021    -0.0041     0.0020 C.ar    
   3 C3            -1.1833    -0.7080     0.0100 C.ar    
   4 C4            -2.3951    -0.0301     0.0257 C.ar    
   5 C5            -2.4176     1.3583     0.0329 C.ar    
   6 C6            -1.2359     2.0684     0.0308 C.ar    
   7 C7             1.2550     2.1505     0.0016 C.2     
   8 C8             2.1444     2.0678     1.1007 C.2     
   9 C9             3.2995     2.7590     1.0913 C.2     
  10 N10            3.6339     3.5478     0.0285 N.pl3   
  11 C11            2.7989     3.6549    -1.0575 C.2     
  12 C12            1.5879     2.9426    -1.0811 C.2     
  13 C13            4.7071     4.3390    -0.2487 C.2     
  14 N14            4.5085     4.8744    -1.4254 N.2     
  15 N15            3.3856     4.4783    -1.9129 N.2     
  16 C16            5.9051     4.5581     0.6390 C.3     
  17 C17            6.9754     3.5129     0.3183 C.3     
  18 O18           -3.5614    -0.7269     0.0336 O.3     
  19 N19           -4.0589    -1.0392     1.3735 N.3     
  20 C20           -5.3924    -0.4496     1.5927 C.3     
  21 C21           -6.3451    -1.6025     1.9730 C.3     
  22 C22           -5.3785    -2.6946     2.5020 C.3     
  23 C23           -4.1511    -2.5007     1.5771 C.3     
  24 F24           -7.2331    -1.1998     2.9763 F       
  25 F25           -7.0411    -2.0602     0.8491 F       
  26 C26            8.3218     3.6379     1.0342 C.3     
  27 C27            7.3492     2.5227     1.4232 C.3     
  28 C28            0.6609     3.0491    -2.2645 C.3     
  29 F29           -0.1614     4.1708    -2.1132 F       
  30 F30            1.4138     3.1776    -3.4366 F       
  31 F31           -0.1302     1.8979    -2.3423 F       
  32 H32            0.9442    -0.5319    -0.0105 H       
  33 H33           -1.1693    -1.7879     0.0037 H       
  34 H34           -3.3618     1.8825     0.0448 H       
  35 H35           -1.2540     3.1483     0.0364 H       
  36 H36            1.8948     1.4483     1.9494 H       
  37 H37            3.9697     2.6889     1.9353 H       
  38 H38            6.3081     5.5559     0.4656 H       
  39 H39            5.6060     4.4634     1.6829 H       
  40 H40            6.9834     3.1481    -0.7088 H       
  41 H41           -5.3477     0.2773     2.4037 H       
  42 H42           -5.7397     0.0322     0.6787 H       
  43 H43           -5.1152    -2.5116     3.5437 H       
  44 H44           -5.8075    -3.6889     2.3781 H       
  45 H45           -4.3096    -3.0072     0.6250 H       
  46 H46           -3.2486    -2.8741     2.0609 H       
  47 H47            9.2156     3.3550     0.4782 H       
  48 H48            8.4450     4.4648     1.7336 H       
  49 H49            6.8327     2.6159     2.3785 H       
  50 H50            7.6032     1.5061     1.1230 H       
@<TRIPOS>BOND
   1    1    2 ar
   2    1    7 1
   3    1    6 ar
   4    2    3 ar
   5    2   32 1
   6    3    4 ar
   7    3   33 1
   8    4    5 ar
   9    4   18 1
  10    5    6 ar
  11    5   34 1
  12    6   35 1
  13    7    8 1
  14    7   12 2
  15    8    9 2
  16    8   36 1
  17    9   10 1
  18    9   37 1
  19   10   11 1
  20   10   13 1
  21   11   12 1
  22   11   15 2
  23   12   28 1
  24   13   14 2
  25   13   16 1
  26   14   15 1
  27   16   17 1
  28   16   38 1
  29   16   39 1
  30   17   26 1
  31   17   27 1
  32   17   40 1
  33   18   19 1
  34   19   20 1
  35   19   23 1
  36   20   21 1
  37   20   41 1
  38   20   42 1
  39   21   22 1
  40   21   24 1
  41   21   25 1
  42   22   23 1
  43   22   43 1
  44   22   44 1
  45   23   45 1
  46   23   46 1
  47   26   27 1
  48   26   47 1
  49   26   48 1
  50   27   49 1
  51   27   50 1
  52   28   29 1
  53   28   30 1
  54   28   31 1

#	End of record

