#	Name: ASD01910283
#	Creating user name:	WinNT
#	Creation time:	15. 06. 2019 19:55

#	Modifying user name:	WinNT
#	Modification time:	15. 06. 2019 19:55

#	Program:	/corina/corina34_cracker 3.40 0067  02.08.2006

@<TRIPOS>MOLECULE
ASD01910283
  44   47    0    0    0
SMALL
NO_CHARGES


@<TRIPOS>ATOM
   1 C1            -0.6757     2.3259     0.1866 C.ar    
   2 C2            -0.8090     0.9487     0.2562 C.ar    
   3 C3             0.3160     0.1415     0.3053 C.ar    
   4 C4             1.5745     0.7069     0.2851 C.ar    
   5 C5             1.7130     2.0914     0.2152 C.ar    
   6 C6             0.5792     2.8994     0.1660 C.ar    
   7 F7            -2.0394     0.3912     0.2766 F       
   8 C8             3.0651     2.7040     0.1937 C.2     
   9 N9             3.3456     3.9904     0.1299 N.2     
  10 N10            4.6283     4.1149     0.1337 N.pl3   
  11 N11            5.1692     2.9485     0.1978 N.2     
  12 N12            4.2381     2.0570     0.2413 N.2     
  13 C13            5.3566     5.3847     0.0738 C.3     
  14 C14            6.2264     5.5340     1.3241 C.3     
  15 C15            6.9626     6.8750     1.2782 C.3     
  16 C16            7.8744     6.9105     0.0478 C.3     
  17 N17            7.0684     6.6235    -1.1466 N.am    
  18 C18            6.2503     5.4033    -1.1703 C.3     
  19 C19            7.0792     7.4636    -2.2005 C.2     
  20 C20            6.3679     7.0991    -3.4429 C.ar    
  21 O21            7.6743     8.5212    -2.1287 O.2     
  22 C22            5.6247     8.0596    -4.1324 C.ar    
  23 C23            4.9634     7.7143    -5.2914 C.ar    
  24 C24            5.0351     6.4160    -5.7730 C.ar    
  25 C25            5.7712     5.4584    -5.0921 C.ar    
  26 C26            6.4411     5.7944    -3.9353 C.ar    
  27 F27            4.3850     6.0829    -6.9094 F       
  28 H28           -1.5551     2.9513     0.1440 H       
  29 H29            0.2078    -0.9316     0.3598 H       
  30 H30            2.4510     0.0770     0.3238 H       
  31 H31            0.6823     3.9731     0.1114 H       
  32 H32            4.6460     6.2097     0.0243 H       
  33 H33            5.5954     5.4963     2.2121 H       
  34 H34            6.9528     4.7221     1.3602 H       
  35 H35            6.2372     7.6863     1.2171 H       
  36 H36            7.5637     6.9910     2.1800 H       
  37 H37            8.3253     7.8986    -0.0445 H       
  38 H38            8.6562     6.1580     0.1505 H       
  39 H39            6.8996     4.5279    -1.1670 H       
  40 H40            5.6295     5.3969    -2.0663 H       
  41 H41            5.5679     9.0710    -3.7579 H       
  42 H42            4.3880     8.4562    -5.8252 H       
  43 H43            5.8235     4.4485    -5.4714 H       
  44 H44            7.0145     5.0478    -3.4059 H       
@<TRIPOS>BOND
   1    1    2 ar
   2    1    6 ar
   3    1   28 1
   4    2    3 ar
   5    2    7 1
   6    3    4 ar
   7    3   29 1
   8    4    5 ar
   9    4   30 1
  10    5    6 ar
  11    5    8 1
  12    6   31 1
  13    8    9 2
  14    8   12 1
  15    9   10 1
  16   10   11 1
  17   10   13 1
  18   11   12 2
  19   13   14 1
  20   13   18 1
  21   13   32 1
  22   14   15 1
  23   14   33 1
  24   14   34 1
  25   15   16 1
  26   15   35 1
  27   15   36 1
  28   16   17 1
  29   16   37 1
  30   16   38 1
  31   17   18 1
  32   17   19 am
  33   18   39 1
  34   18   40 1
  35   19   20 1
  36   19   21 2
  37   20   22 ar
  38   20   26 ar
  39   22   23 ar
  40   22   41 1
  41   23   24 ar
  42   23   42 1
  43   24   25 ar
  44   24   27 1
  45   25   26 ar
  46   25   43 1
  47   26   44 1

#	End of record

