#	Name: ASD03081331
#	Creating user name:	WinNT
#	Creation time:	15. 06. 2019 20:27

#	Modifying user name:	WinNT
#	Modification time:	15. 06. 2019 20:27

#	Program:	/corina/corina34_cracker 3.40 0067  02.08.2006

@<TRIPOS>MOLECULE
ASD03081331
  30   32    0    0    0
SMALL
NO_CHARGES


@<TRIPOS>ATOM
   1 O1            -0.0162     1.3446     0.0094 O.3     
   2 C2             0.0021    -0.0041     0.0020 C.2     
   3 N3             1.2615    -0.3803    -0.0120 N.2     
   4 N4             2.0182     0.6603    -0.0137 N.2     
   5 C5             1.2731     1.7417    -0.0007 C.2     
   6 C6             0.8554     4.2025     0.0149 C.ar    
   7 C7             1.7580     3.1373     0.0014 C.ar    
   8 C8             3.1304     3.4142    -0.0097 C.ar    
   9 C9             3.5322     4.7384    -0.0067 C.ar    
  10 C10            2.5748     5.7366     0.0070 C.ar    
  11 N11            1.2877     5.4461     0.0177 N.ar    
  12 C12           -1.1756    -0.8939     0.0085 C.ar    
  13 C13           -1.0052    -2.2809    -0.0006 C.ar    
  14 C14           -2.1058    -3.1084     0.0060 C.ar    
  15 C15           -3.3869    -2.5647     0.0211 C.ar    
  16 C16           -3.5598    -1.1837     0.0297 C.ar    
  17 C17           -2.4631    -0.3511     0.0295 C.ar    
  18 S18           -4.7927    -3.6269     0.0289 S.3     
  19 C19           -6.1837    -2.4627     0.0484 C.3     
  20 H20           -0.2063     4.0046     0.0190 H       
  21 H21            3.8567     2.6150    -0.0199 H       
  22 H22            4.5825     4.9899    -0.0146 H       
  23 H23            2.8858     6.7708     0.0094 H       
  24 H24           -0.0113    -2.7033    -0.0131 H       
  25 H25           -1.9747    -4.1804    -0.0011 H       
  26 H26           -4.5552    -0.7648     0.0408 H       
  27 H27           -2.5979     0.7204     0.0407 H       
  28 H28           -7.1218    -3.0176     0.0544 H       
  29 H29           -6.1240    -1.8403     0.9412 H       
  30 H30           -6.1410    -1.8307    -0.8386 H       
@<TRIPOS>BOND
   1    1    2 1
   2    1    5 1
   3    2    3 2
   4    2   12 1
   5    3    4 1
   6    4    5 2
   7    5    7 1
   8    6    7 ar
   9    6   11 ar
  10    6   20 1
  11    7    8 ar
  12    8    9 ar
  13    8   21 1
  14    9   10 ar
  15    9   22 1
  16   10   11 ar
  17   10   23 1
  18   12   13 ar
  19   12   17 ar
  20   13   14 ar
  21   13   24 1
  22   14   15 ar
  23   14   25 1
  24   15   16 ar
  25   15   18 1
  26   16   17 ar
  27   16   26 1
  28   17   27 1
  29   18   19 1
  30   19   28 1
  31   19   29 1
  32   19   30 1

#	End of record

