#	Name: ASD01917187
#	Creating user name:	WinNT
#	Creation time:	15. 06. 2019 20:08

#	Modifying user name:	WinNT
#	Modification time:	15. 06. 2019 20:08

#	Program:	/corina/corina34_cracker 3.40 0067  02.08.2006

@<TRIPOS>MOLECULE
ASD01917187
  59   63    0    0    0
SMALL
NO_CHARGES


@<TRIPOS>ATOM
   1 C1            -0.0171     1.3088     0.0937 C.2     
   2 N2             0.0004     0.0197    -0.1694 N.2     
   3 N3            -1.3354    -0.4130    -0.1803 N.pl3   
   4 C4            -2.0928     0.6766     0.0850 C.2     
   5 N5            -1.2854     1.7024     0.2529 N.2     
   6 C6             1.1772     2.1829     0.2025 C.ar    
   7 C7             1.0270     3.5389     0.4870 C.ar    
   8 C8             2.4519     1.6491     0.0263 C.ar    
   9 C9             3.5605     2.4663     0.1284 C.ar    
  10 C10            3.4055     3.8157     0.4063 C.ar    
  11 F11            4.4923     4.6121     0.5059 F       
  12 C12           -1.8145    -1.7748    -0.4300 C.3     
  13 C13           -1.8514    -2.5402     0.8676 C.2     
  14 N14           -2.2626    -3.8236     0.8815 N.am    
  15 O15           -1.5110    -2.0013     1.8994 O.2     
  16 C16           -2.3062    -4.5888     2.1368 C.3     
  17 C17           -3.6933    -5.2261     2.2705 C.3     
  18 N18           -3.9908    -6.0023     1.0593 N.3     
  19 C19           -4.0520    -5.1372    -0.1264 C.3     
  20 C20           -2.6854    -4.4943    -0.3573 C.3     
  21 C21           -5.1643    -6.7248     1.2081 C.ar    
  22 N22           -5.8604    -6.6573     2.3411 N.ar    
  23 C23           -6.9766    -7.3408     2.4895 C.ar    
  24 N24           -7.4512    -8.1149     1.5346 N.ar    
  25 C25           -6.8142    -8.2357     0.3732 C.ar    
  26 C26           -5.6360    -7.5276     0.1727 C.ar    
  27 C27           -3.5696     0.7082     0.1762 C.ar    
  28 C28           -4.2542     1.9158     0.0383 C.ar    
  29 C29           -5.6311     1.9386     0.1244 C.ar    
  30 C30           -6.3326     0.7672     0.3469 C.ar    
  31 C31           -5.6595    -0.4336     0.4844 C.ar    
  32 C32           -4.2831    -0.4704     0.3946 C.ar    
  33 C33            2.1396     4.3486     0.5873 C.ar    
  34 O34           -7.3105    -9.0345    -0.6029 O.3     
  35 C35           -8.5297    -9.7240    -0.3197 C.3     
  36 Cl36           5.1497     1.8031    -0.0909 Cl      
  37 H37            0.0407     3.9555     0.6283 H       
  38 H38            2.5729     0.5978    -0.1895 H       
  39 H39           -2.8167    -1.7348    -0.8569 H       
  40 H40           -1.1421    -2.2743    -1.1275 H       
  41 H41           -1.5452    -5.3689     2.1167 H       
  42 H42           -2.1275    -3.9207     2.9793 H       
  43 H43           -3.7085    -5.8858     3.1380 H       
  44 H44           -4.4425    -4.4442     2.3945 H       
  45 H45           -4.3273    -5.7323    -0.9971 H       
  46 H46           -4.7962    -4.3564     0.0310 H       
  47 H47           -2.7554    -3.7654    -1.1647 H       
  48 H48           -1.9580    -5.2635    -0.6168 H       
  49 H49           -7.5183    -7.2647     3.4208 H       
  50 H50           -5.0953    -7.6043    -0.7590 H       
  51 H51           -3.7075     2.8310    -0.1350 H       
  52 H52           -6.1622     2.8730     0.0182 H       
  53 H53           -7.4103     0.7903     0.4138 H       
  54 H54           -6.2128    -1.3447     0.6583 H       
  55 H55           -3.7587    -1.4085     0.5018 H       
  56 H56            2.0233     5.4003     0.8037 H       
  57 H57           -8.8152   -10.3264    -1.1821 H       
  58 H58           -8.3881   -10.3720     0.5453 H       
  59 H59           -9.3156    -8.9996    -0.1062 H       
@<TRIPOS>BOND
   1    1    2 2
   2    1    6 1
   3    1    5 1
   4    2    3 1
   5    3    4 1
   6    3   12 1
   7    4    5 2
   8    4   27 1
   9    6    7 ar
  10    6    8 ar
  11    7   33 ar
  12    7   37 1
  13    8    9 ar
  14    8   38 1
  15    9   10 ar
  16    9   36 1
  17   10   33 ar
  18   10   11 1
  19   12   13 1
  20   12   39 1
  21   12   40 1
  22   13   14 am
  23   13   15 2
  24   14   16 1
  25   14   20 1
  26   16   17 1
  27   16   41 1
  28   16   42 1
  29   17   18 1
  30   17   43 1
  31   17   44 1
  32   18   19 1
  33   18   21 1
  34   19   20 1
  35   19   45 1
  36   19   46 1
  37   20   47 1
  38   20   48 1
  39   21   22 ar
  40   21   26 ar
  41   22   23 ar
  42   23   24 ar
  43   23   49 1
  44   24   25 ar
  45   25   26 ar
  46   25   34 1
  47   26   50 1
  48   27   28 ar
  49   27   32 ar
  50   28   29 ar
  51   28   51 1
  52   29   30 ar
  53   29   52 1
  54   30   31 ar
  55   30   53 1
  56   31   32 ar
  57   31   54 1
  58   32   55 1
  59   33   56 1
  60   34   35 1
  61   35   57 1
  62   35   58 1
  63   35   59 1

#	End of record

