#	Name: ASD01230057
#	Creating user name:	WinNT
#	Creation time:	15. 06. 2019 19:11

#	Modifying user name:	WinNT
#	Modification time:	15. 06. 2019 19:11

#	Program:	/corina/corina34_cracker 3.40 0067  02.08.2006

@<TRIPOS>MOLECULE
ASD01230057
  27   29    0    0    0
SMALL
NO_CHARGES


@<TRIPOS>ATOM
   1 C1            -0.0167     1.3781     0.0096 C.ar    
   2 C2             0.0021    -0.0041     0.0020 C.ar    
   3 C3             1.2162    -0.6718     0.0002 C.ar    
   4 C4             2.3986     0.0421     0.0061 C.ar    
   5 C5             2.3938     1.4287    -0.0131 C.ar    
   6 C6             1.1623     2.0910     0.0022 C.ar    
   7 S7             3.9391    -0.8263     0.0704 S.o2    
   8 N8             5.0852     0.3749    -0.1200 N.am    
   9 C9             4.7469     1.6603     0.5268 C.3     
  10 N10            3.5417     2.2051    -0.0847 N.3     
  11 C11            3.2833     3.5717     0.3879 C.3     
  12 O12            4.0781    -1.3240     1.3941 O.2     
  13 O13            4.0012    -1.6445    -1.0897 O.2     
  14 F14            1.2435    -2.0225    -0.0068 F       
  15 C15            3.0471     3.7681     1.8867 C.3     
  16 C16            4.3579     4.2358     1.2511 C.3     
  17 H17           -0.9609     1.9022     0.0169 H       
  18 H18           -0.9238    -0.5600    -0.0021 H       
  19 H19            1.1352     3.1707     0.0082 H       
  20 H20            5.9078     0.2392    -0.6157 H       
  21 H21            4.5736     1.4977     1.5905 H       
  22 H22            5.5707     2.3617     0.3949 H       
  23 H23            2.7235     4.2082    -0.2974 H       
  24 H24            2.3322     4.5340     2.1875 H       
  25 H25            3.0835     2.8832     2.5222 H       
  26 H26            5.2566     3.6586     1.4684 H       
  27 H27            4.5053     5.3094     1.1337 H       
@<TRIPOS>BOND
   1    1    2 ar
   2    1    6 ar
   3    1   17 1
   4    2    3 ar
   5    2   18 1
   6    3    4 ar
   7    3   14 1
   8    4    5 ar
   9    4    7 1
  10    5    6 ar
  11    5   10 1
  12    6   19 1
  13    7    8 am
  14    7   12 2
  15    7   13 2
  16    8    9 1
  17    8   20 1
  18    9   10 1
  19    9   21 1
  20    9   22 1
  21   10   11 1
  22   11   15 1
  23   11   16 1
  24   11   23 1
  25   15   16 1
  26   15   24 1
  27   15   25 1
  28   16   26 1
  29   16   27 1

#	End of record

