#	Name: ASD01880011
#	Creating user name:	WinNT
#	Creation time:	15. 06. 2019 19:39

#	Modifying user name:	WinNT
#	Modification time:	15. 06. 2019 19:39

#	Program:	/corina/corina34_cracker 3.40 0067  02.08.2006

@<TRIPOS>MOLECULE
ASD01880011
  57   59    0    0    0
SMALL
NO_CHARGES


@<TRIPOS>ATOM
   1 N1            -0.0153     1.2778    -0.1017 N.pl3   
   2 N2             0.0025    -0.0092    -0.1227 N.2     
   3 N3             1.2281    -0.4110    -0.1355 N.2     
   4 C4             2.0052     0.6814    -0.1218 C.2     
   5 N5             1.1948     1.7211    -0.1008 N.2     
   6 C6             3.4890     0.7140    -0.1284 C.ar    
   7 C7             4.2129    -0.4767    -0.1515 C.ar    
   8 C8             5.5912    -0.4444    -0.1576 C.ar    
   9 C9             6.2588     0.7748    -0.1403 C.ar    
  10 C10            5.5385     1.9635    -0.1173 C.ar    
  11 C11            4.1601     1.9354    -0.1174 C.ar    
  12 C12           14.1578     4.1495    -0.1174 C.ar    
  13 C13           14.8133     2.9213    -0.1404 C.ar    
  14 C14           16.1767     2.8662    -0.1522 C.ar    
  15 C15           16.9272     4.0497    -0.1416 C.ar    
  16 C16           16.2677     5.2922    -0.1189 C.ar    
  17 C17           14.8845     5.3318    -0.1066 C.ar    
  18 C18           14.1681     6.6574    -0.0828 C.3     
  19 C19           13.9134     7.1254    -1.5170 C.3     
  20 C20           13.1860     8.4712    -1.4928 C.3     
  21 O21           16.9833     6.4440    -0.1081 O.3     
  22 C22           18.3909     3.9932    -0.1537 C.2     
  23 C23           19.0947     2.6645    -0.0525 C.3     
  24 O24           19.0368     5.0164    -0.2453 O.2     
  25 N25            7.6541     0.8054    -0.1456 N.pl3   
  26 C26            8.3587     2.0897    -0.1273 C.3     
  27 C27           12.1145     2.9380    -0.1289 C.3     
  28 C28            9.8686     1.8432    -0.1377 C.3     
  29 C29           10.6045     3.1845    -0.1186 C.3     
  30 O30           12.8017     4.1908    -0.1111 O.3     
  31 H31           -0.8142     1.8278    -0.0924 H       
  32 H32            3.6946    -1.4241    -0.1643 H       
  33 H33            6.1525    -1.3669    -0.1755 H       
  34 H34            6.0590     2.9097    -0.1034 H       
  35 H35            3.6008     2.8591    -0.0998 H       
  36 H36           14.2391     2.0066    -0.1486 H       
  37 H37           16.6779     1.9097    -0.1693 H       
  38 H38           13.2167     6.5469     0.4377 H       
  39 H39           14.7826     7.3932     0.4358 H       
  40 H40           14.8647     7.2358    -2.0375 H       
  41 H41           13.2989     6.3895    -2.0356 H       
  42 H42           13.0046     8.8046    -2.5145 H       
  43 H43           12.2347     8.3607    -0.9723 H       
  44 H44           13.8006     9.2070    -0.9742 H       
  45 H45           17.1840     6.7907    -0.9882 H       
  46 H46           18.3606     1.8764     0.1154 H       
  47 H47           19.6339     2.4674    -0.9790 H       
  48 H48           19.7985     2.6886     0.7795 H       
  49 H49            8.1573    -0.0237    -0.1613 H       
  50 H50            8.0792     2.6700    -1.0067 H       
  51 H51            8.0866     2.6406     0.7730 H       
  52 H52           12.3939     2.3578     0.7505 H       
  53 H53           12.3865     2.3871    -1.0292 H       
  54 H54           10.1481     1.2630     0.7417 H       
  55 H55           10.1407     1.2923    -1.0380 H       
  56 H56           10.3324     3.7354     0.7817 H       
  57 H57           10.3250     3.7648    -0.9980 H       
@<TRIPOS>BOND
   1    1    2 1
   2    1    5 1
   3    1   31 1
   4    2    3 2
   5    3    4 1
   6    4    5 2
   7    4    6 1
   8    6    7 ar
   9    6   11 ar
  10    7    8 ar
  11    7   32 1
  12    8    9 ar
  13    8   33 1
  14    9   10 ar
  15    9   25 1
  16   10   11 ar
  17   10   34 1
  18   11   35 1
  19   12   13 ar
  20   12   17 ar
  21   12   30 1
  22   13   14 ar
  23   13   36 1
  24   14   15 ar
  25   14   37 1
  26   15   16 ar
  27   15   22 1
  28   16   17 ar
  29   16   21 1
  30   17   18 1
  31   18   19 1
  32   18   38 1
  33   18   39 1
  34   19   20 1
  35   19   40 1
  36   19   41 1
  37   20   42 1
  38   20   43 1
  39   20   44 1
  40   21   45 1
  41   22   23 1
  42   22   24 2
  43   23   46 1
  44   23   47 1
  45   23   48 1
  46   25   26 1
  47   25   49 1
  48   26   28 1
  49   26   50 1
  50   26   51 1
  51   27   30 1
  52   27   29 1
  53   27   52 1
  54   27   53 1
  55   28   29 1
  56   28   54 1
  57   28   55 1
  58   29   56 1
  59   29   57 1

#	End of record

