#	Name: ASD00841626
#	Creating user name:	WinNT
#	Creation time:	15. 06. 2019 18:42

#	Modifying user name:	WinNT
#	Modification time:	15. 06. 2019 18:42

#	Program:	/corina/corina34_cracker 3.40 0067  02.08.2006

@<TRIPOS>MOLECULE
ASD00841626
  84   89    0    0    0
SMALL
NO_CHARGES


@<TRIPOS>ATOM
   1 F1            -0.0962    -3.1552     4.7131 F       
   2 C2            -0.0057     1.3862     0.0349 C.ar    
   3 C3             0.0090    -0.0007     0.0178 C.ar    
   4 C4             1.2191    -0.6792    -0.0020 C.ar    
   5 C5             2.4058     0.0276    -0.0045 C.ar    
   6 C6             2.3885     1.4103     0.0130 C.ar    
   7 C7             1.1841     2.0886     0.0323 C.ar    
   8 C8             1.2387    -2.1859    -0.0201 C.3     
   9 C9             0.4942    -2.7115    -1.2289 C.2     
  10 N10            2.6179    -2.6801    -0.0120 N.am    
  11 C11            3.4634    -2.3342    -1.0029 C.2     
  12 N12            4.7590    -2.7005    -0.9417 N.am    
  13 O13            3.0575    -1.6918    -1.9520 O.2     
  14 C14            5.6727    -2.4339    -2.0631 C.3     
  15 C15            6.9193    -1.7288    -1.5183 C.3     
  16 N16            7.4922    -2.5277    -0.4268 N.3     
  17 C17            6.5583    -2.6350     0.7020 C.3     
  18 C18            5.2982    -3.3718     0.2507 C.3     
  19 C19            8.7825    -1.9764     0.0081 C.3     
  20 C20            9.2885    -2.7566     1.2246 C.3     
  21 C21           10.6607    -2.2177     1.6354 C.3     
  22 N22           11.5993    -2.3600     0.5151 N.3     
  23 C23           11.1586    -1.5811    -0.6491 C.3     
  24 C24            9.8013    -2.1009    -1.1282 C.3     
  25 H25           12.5342    -2.0998     0.7914 H       
  26 O26            0.7738    -2.5084    -2.3916 O.2     
  27 N27           -0.5341    -3.4458    -0.7720 N.am    
  28 C28            0.4679    -2.7397     1.1561 C.ar    
  29 C29           -0.5781    -3.4826     0.6233 C.ar    
  30 C30            0.6322    -2.6281     2.5184 C.ar    
  31 C31           -0.2532    -3.2622     3.3755 C.ar    
  32 C32           -1.3004    -4.0061     2.8557 C.ar    
  33 C33           -1.4651    -4.1179     1.4894 C.ar    
  34 Cl34          -2.4106    -4.8012     3.9276 Cl      
  35 C35           -0.9920    -5.8317    -2.0650 C.ar    
  36 C36            0.1858    -5.9887    -2.7807 C.ar    
  37 C37           -1.6659    -6.9421    -1.5938 C.ar    
  38 C38           -1.1670    -8.2087    -1.8346 C.ar    
  39 C39            0.0071    -8.3678    -2.5479 C.ar    
  40 C40            0.6842    -7.2610    -3.0215 C.ar    
  41 H41            0.3948    -9.3583    -2.7347 H       
  42 O42            0.8502    -4.8982    -3.2456 O.3     
  43 C43            2.0562    -5.1352    -3.9745 C.3     
  44 O44           -1.1600    -0.6938     0.0208 O.3     
  45 C45           -3.5697    -0.8756     0.0422 C.3     
  46 C46           -2.3673     0.0704     0.0420 C.3     
  47 S47           -1.6244    -4.2174    -1.7508 S.o2    
  48 O48           -2.8041    -4.3920    -0.9780 O.2     
  49 O49           -1.6045    -3.5297    -2.9941 O.2     
  50 H50           -0.9464     1.9167     0.0458 H       
  51 H51            3.3481    -0.5000    -0.0199 H       
  52 H52            3.3175     1.9611     0.0117 H       
  53 H53            1.1732     3.1685     0.0460 H       
  54 H54            2.9224    -3.2562     0.7065 H       
  55 H55            5.9600    -3.3746    -2.5329 H       
  56 H56            5.1789    -1.7926    -2.7932 H       
  57 H57            7.6547    -1.6222    -2.3158 H       
  58 H58            6.6446    -0.7432    -1.1422 H       
  59 H59            7.0318    -3.1857     1.5148 H       
  60 H60            6.2886    -1.6369     1.0472 H       
  61 H61            4.5572    -3.3533     1.0498 H       
  62 H62            5.5467    -4.4035     0.0017 H       
  63 H63            8.6589    -0.9266     0.2743 H       
  64 H64            8.5880    -2.6366     2.0510 H       
  65 H65            9.3738    -3.8129     0.9696 H       
  66 H66           10.5720    -1.1650     1.9035 H       
  67 H67           11.0302    -2.7807     2.4925 H       
  68 H68           11.0676    -0.5313    -0.3703 H       
  69 H69           11.8897    -1.6816    -1.4513 H       
  70 H70            9.8946    -3.1469    -1.4202 H       
  71 H71            9.4671    -1.5124    -1.9826 H       
  72 H72            1.4502    -2.0475     2.9186 H       
  73 H73           -2.2835    -4.6994     1.0912 H       
  74 H74           -2.5830    -6.8204    -1.0365 H       
  75 H75           -1.6948    -9.0753    -1.4648 H       
  76 H76            1.6007    -7.3859    -3.5790 H       
  77 H77            2.4848    -4.1831    -4.2873 H       
  78 H78            2.7674    -5.6624    -3.3385 H       
  79 H79            1.8364    -5.7410    -4.8535 H       
  80 H80           -3.5464    -1.4932    -0.8556 H       
  81 H81           -3.5289    -1.5150     0.9241 H       
  82 H82           -4.4906    -0.2927     0.0584 H       
  83 H83           -2.3907     0.6879     0.9399 H       
  84 H84           -2.4082     0.7097    -0.8398 H       
@<TRIPOS>BOND
   1    1   31 1
   2    2    3 ar
   3    2    7 ar
   4    2   50 1
   5    3    4 ar
   6    3   44 1
   7    4    5 ar
   8    4    8 1
   9    5    6 ar
  10    5   51 1
  11    6    7 ar
  12    6   52 1
  13    7   53 1
  14    8    9 1
  15    8   10 1
  16    8   28 1
  17    9   26 2
  18    9   27 am
  19   10   11 am
  20   10   54 1
  21   11   12 am
  22   11   13 2
  23   12   14 1
  24   12   18 1
  25   14   15 1
  26   14   55 1
  27   14   56 1
  28   15   16 1
  29   15   57 1
  30   15   58 1
  31   16   17 1
  32   16   19 1
  33   17   18 1
  34   17   59 1
  35   17   60 1
  36   18   61 1
  37   18   62 1
  38   19   20 1
  39   19   24 1
  40   19   63 1
  41   20   21 1
  42   20   64 1
  43   20   65 1
  44   21   22 1
  45   21   66 1
  46   21   67 1
  47   22   23 1
  48   22   25 1
  49   23   24 1
  50   23   68 1
  51   23   69 1
  52   24   70 1
  53   24   71 1
  54   27   47 am
  55   27   29 1
  56   28   29 ar
  57   28   30 ar
  58   29   33 ar
  59   30   31 ar
  60   30   72 1
  61   31   32 ar
  62   32   33 ar
  63   32   34 1
  64   33   73 1
  65   35   36 ar
  66   35   37 ar
  67   35   47 1
  68   36   42 1
  69   36   40 ar
  70   37   38 ar
  71   37   74 1
  72   38   39 ar
  73   38   75 1
  74   39   40 ar
  75   39   41 1
  76   40   76 1
  77   42   43 1
  78   43   77 1
  79   43   78 1
  80   43   79 1
  81   44   46 1
  82   45   46 1
  83   45   80 1
  84   45   81 1
  85   45   82 1
  86   46   83 1
  87   46   84 1
  88   47   48 2
  89   47   49 2

#	End of record

