#	Name: ASD04590835
#	Creating user name:	WinNT
#	Creation time:	15. 06. 2019 20:51

#	Modifying user name:	WinNT
#	Modification time:	15. 06. 2019 20:51

#	Program:	/corina/corina34_cracker 3.40 0067  02.08.2006

@<TRIPOS>MOLECULE
ASD04590835
  73   78    0    0    0
SMALL
NO_CHARGES


@<TRIPOS>ATOM
   1 N1            -2.3783    -2.7060     0.0203 N.ar    
   2 C2            -1.2117    -2.0739     0.0040 C.ar    
   3 N3            -0.0574    -2.7202    -0.0183 N.ar    
   4 C4            -0.0260    -4.0496    -0.0255 C.ar    
   5 C5            -1.2488    -4.7506    -0.0087 C.ar    
   6 C6            -2.4371    -4.0275     0.0147 C.ar    
   7 N7             0.9973    -4.9640    -0.0470 N.pl3   
   8 C8             0.4930    -6.2538    -0.0451 C.ar    
   9 C9            -0.9096    -6.1794    -0.0214 C.ar    
  10 C10            1.0885    -7.5120    -0.0616 C.ar    
  11 N11            0.3453    -8.6019    -0.0551 N.ar    
  12 C12           -0.9758    -8.5583    -0.0329 C.ar    
  13 C13           -1.6449    -7.3655    -0.0147 C.ar    
  14 N14           -1.2020    -0.6888     0.0103 N.pl3   
  15 C15           -2.4013     0.0174    -0.0793 C.ar    
  16 N16           -3.5394    -0.6296    -0.2706 N.ar    
  17 N17           -4.6655    -0.0200    -0.3586 N.ar    
  18 C18           -4.7641     1.2946    -0.2640 C.ar    
  19 C19           -3.6196     2.0641    -0.0619 C.ar    
  20 C20           -2.4050     1.4077     0.0385 C.ar    
  21 O21           -5.9781     1.8945    -0.3639 O.3     
  22 C22           -8.3483     1.6807     0.0579 C.3     
  23 C23           -7.1072     1.0434    -0.5712 C.3     
  24 C24            2.4221    -4.6236    -0.0695 C.3     
  25 C25            2.7456    -3.7917    -1.3229 C.3     
  26 C26            3.2830    -2.4344    -0.8242 C.3     
  27 C27            3.8157    -2.7362     0.5985 C.3     
  28 C28            2.7741    -3.7428     1.1471 C.3     
  29 C29           -9.5493     0.7497    -0.1360 C.3     
  30 N30           -9.6863     0.4463    -1.5671 N.am    
  31 C31           -8.5238    -0.0861    -2.2908 C.3     
  32 C32           -7.3342     0.8543    -2.0728 C.3     
  33 F33            2.4352    -7.6175    -0.0850 F       
  34 C34          -10.8563     0.6521    -2.2037 C.2     
  35 O35          -11.8105     1.0925    -1.5939 O.2     
  36 O36          -10.9677     0.3696    -3.5154 O.3     
  37 C37          -12.2572     0.6161    -4.1356 C.3     
  38 C38          -12.6121     2.0984    -4.0027 C.3     
  39 C39          -12.1913     0.2382    -5.6167 C.3     
  40 C40          -13.3270    -0.2287    -3.4408 C.3     
  41 H41           -3.3900    -4.5356     0.0280 H       
  42 H42           -1.5369    -9.4811    -0.0289 H       
  43 H43           -2.7245    -7.3420     0.0037 H       
  44 H44           -0.3610    -0.2100     0.0770 H       
  45 H45           -3.6791     3.1395     0.0180 H       
  46 H46           -1.4876     1.9555     0.1954 H       
  47 H47           -8.1770     1.8366     1.1230 H       
  48 H48           -8.5489     2.6382    -0.4228 H       
  49 H49           -6.9217     0.0747    -0.1072 H       
  50 H50            3.0231    -5.5329    -0.0594 H       
  51 H51            3.5043    -4.2968    -1.9207 H       
  52 H52            1.8426    -3.6412    -1.9145 H       
  53 H53            4.0902    -2.0841    -1.4675 H       
  54 H54            2.4802    -1.6982    -0.7828 H       
  55 H55            4.8052    -3.1910     0.5520 H       
  56 H56            3.8339    -1.8303     1.2044 H       
  57 H57            1.8892    -3.2179     1.5069 H       
  58 H58            3.2100    -4.3473     1.9424 H       
  59 H59           -9.3889    -0.1741     0.4197 H       
  60 H60          -10.4541     1.2413     0.2215 H       
  61 H61           -8.2797    -1.0781    -1.9108 H       
  62 H62           -8.7519    -0.1461    -3.3549 H       
  63 H63           -7.5443     1.8195    -2.5334 H       
  64 H64           -6.4412     0.4219    -2.5241 H       
  65 H65          -11.8499     2.7002    -4.4976 H       
  66 H66          -13.5801     2.2834    -4.4682 H       
  67 H67          -12.6590     2.3676    -2.9475 H       
  68 H68          -11.9385    -0.8178    -5.7114 H       
  69 H69          -13.1594     0.4232    -6.0823 H       
  70 H70          -11.4292     0.8401    -6.1117 H       
  71 H71          -13.3740     0.0404    -2.3856 H       
  72 H72          -14.2951    -0.0437    -3.9064 H       
  73 H73          -13.0742    -1.2848    -3.5355 H       
@<TRIPOS>BOND
   1    1    2 ar
   2    1    6 ar
   3    2    3 ar
   4    2   14 1
   5    3    4 ar
   6    4    5 ar
   7    4    7 1
   8    5    6 ar
   9    5    9 1
  10    6   41 1
  11    7    8 1
  12    7   24 1
  13    8    9 ar
  14    8   10 ar
  15    9   13 ar
  16   10   11 ar
  17   10   33 1
  18   11   12 ar
  19   12   13 ar
  20   12   42 1
  21   13   43 1
  22   14   15 1
  23   14   44 1
  24   15   16 ar
  25   15   20 ar
  26   16   17 ar
  27   17   18 ar
  28   18   19 ar
  29   18   21 1
  30   19   20 ar
  31   19   45 1
  32   20   46 1
  33   21   23 1
  34   22   23 1
  35   22   29 1
  36   22   47 1
  37   22   48 1
  38   23   32 1
  39   23   49 1
  40   24   25 1
  41   24   28 1
  42   24   50 1
  43   25   26 1
  44   25   51 1
  45   25   52 1
  46   26   27 1
  47   26   53 1
  48   26   54 1
  49   27   28 1
  50   27   55 1
  51   27   56 1
  52   28   57 1
  53   28   58 1
  54   29   30 1
  55   29   59 1
  56   29   60 1
  57   30   31 1
  58   30   34 am
  59   31   32 1
  60   31   61 1
  61   31   62 1
  62   32   63 1
  63   32   64 1
  64   34   35 2
  65   34   36 1
  66   36   37 1
  67   37   38 1
  68   37   39 1
  69   37   40 1
  70   38   65 1
  71   38   66 1
  72   38   67 1
  73   39   68 1
  74   39   69 1
  75   39   70 1
  76   40   71 1
  77   40   72 1
  78   40   73 1

#	End of record

