#	Name: ASD01940512
#	Creating user name:	WinNT
#	Creation time:	15. 06. 2019 20:12

#	Modifying user name:	WinNT
#	Modification time:	15. 06. 2019 20:12

#	Program:	/corina/corina34_cracker 3.40 0067  02.08.2006

@<TRIPOS>MOLECULE
ASD01940512
  48   50    0    0    0
SMALL
NO_CHARGES


@<TRIPOS>ATOM
   1 C1            -0.0165     1.3629     0.0095 C.ar    
   2 C2             0.0021    -0.0041     0.0020 C.ar    
   3 C3             1.2121    -0.6923    -0.0132 C.ar    
   4 C4             2.4155    -0.0012    -0.0210 C.ar    
   5 C5             2.4104     1.3815    -0.0135 C.ar    
   6 C6             1.1850     2.0700     0.0019 C.ar    
   7 C7             1.2135     3.5430     0.0100 C.2     
   8 O8             3.5630     2.0912    -0.0212 O.3     
   9 C9             3.5534     3.4322    -0.0143 C.2     
  10 N10            2.4202     4.1525     0.0022 N.am    
  11 O11            0.1840     4.1901     0.0229 O.2     
  12 O12            4.6162     4.0209    -0.0217 O.2     
  13 C13            2.4924     5.6157     0.0098 C.3     
  14 C14            2.5305     6.1093     1.4332 C.ar    
  15 C15            3.7183     6.0866     2.1408 C.ar    
  16 C16            1.3787     6.5900     2.0288 C.ar    
  17 C17            1.4094     7.0447     3.3343 C.ar    
  18 C18            2.5915     7.0206     4.0490 C.ar    
  19 C19            3.7514     6.5430     3.4541 C.ar    
  20 O20            1.2149    -2.0494    -0.0201 O.3     
  21 F21            4.8446     5.6215     1.5575 F       
  22 N22            4.9506     6.5223     4.1733 N.am    
  23 S23            4.9357     6.2075     5.7990 S.o     
  24 O24            4.6601     4.8145     5.8524 O.2     
  25 O25            6.4087     6.2798     6.1753 O.3     
  26 N26            6.6737     6.0327     7.5927 N.3     
  27 C27            8.1113     6.1181     7.8822 C.3     
  28 C28            8.3484     5.8546     9.3706 C.3     
  29 C29            9.7889     5.9402     9.6607 C.1     
  30 N30           10.9007     6.0063     9.8846 N.1     
  31 C31           -0.0570    -2.7008    -0.0110 C.3     
  32 H32           -0.9576     1.8926     0.0169 H       
  33 H33           -0.9277    -0.5534     0.0083 H       
  34 H34            3.3511    -0.5405    -0.0325 H       
  35 H35            3.3944     5.9377    -0.5106 H       
  36 H36            1.6166     6.0253    -0.4935 H       
  37 H37            0.4530     6.6106     1.4729 H       
  38 H38            0.5079     7.4197     3.7959 H       
  39 H39            2.6140     7.3764     5.0684 H       
  40 H40            5.7911     6.6923     3.7199 H       
  41 H41            6.1492     6.6684     8.1748 H       
  42 H42            8.6457     5.3738     7.2918 H       
  43 H43            8.4748     7.1136     7.6271 H       
  44 H44            7.8139     6.5989     9.9610 H       
  45 H45            7.9849     4.8591     9.6257 H       
  46 H46           -0.6232    -2.4046    -0.8940 H       
  47 H47            0.0880    -3.7811    -0.0178 H       
  48 H48           -0.6059    -2.4136     0.8858 H       
@<TRIPOS>BOND
   1    1    2 ar
   2    1    6 ar
   3    1   32 1
   4    2    3 ar
   5    2   33 1
   6    3    4 ar
   7    3   20 1
   8    4    5 ar
   9    4   34 1
  10    5    6 ar
  11    5    8 1
  12    6    7 1
  13    7   10 am
  14    7   11 2
  15    8    9 1
  16    9   10 am
  17    9   12 2
  18   10   13 1
  19   13   14 1
  20   13   35 1
  21   13   36 1
  22   14   16 ar
  23   14   15 ar
  24   15   19 ar
  25   15   21 1
  26   16   17 ar
  27   16   37 1
  28   17   18 ar
  29   17   38 1
  30   18   19 ar
  31   18   39 1
  32   19   22 1
  33   20   31 1
  34   22   23 am
  35   22   40 1
  36   23   24 2
  37   23   25 1
  38   25   26 1
  39   26   27 1
  40   26   41 1
  41   27   28 1
  42   27   42 1
  43   27   43 1
  44   28   29 1
  45   28   44 1
  46   28   45 1
  47   29   30 3
  48   31   46 1
  49   31   47 1
  50   31   48 1

#	End of record

