#	Name: ASD04910140
#	Creating user name:	WinNT
#	Creation time:	15. 06. 2019 20:55

#	Modifying user name:	WinNT
#	Modification time:	15. 06. 2019 20:55

#	Program:	/corina/corina34_cracker 3.40 0067  02.08.2006

@<TRIPOS>MOLECULE
ASD04910140
  22   23    0    0    0
SMALL
NO_CHARGES


@<TRIPOS>ATOM
   1 C1            -0.0159     1.3187     0.0093 C.ar    
   2 N2             0.0021    -0.0041     0.0020 N.ar    
   3 C3             1.1465    -0.6664    -0.0125 C.ar    
   4 C4             2.3419     0.0478    -0.0201 C.ar    
   5 C5             2.2814     1.4390    -0.0121 C.ar    
   6 N6             1.0989     2.0308     0.0025 N.ar    
   7 N7             3.5732    -0.6158    -0.0350 N.pl3   
   8 N8            -1.2450     1.9812     0.0187 N.pl3   
   9 N9            -2.5087     1.3765     0.0218 N.2     
  10 C10           -3.4145     2.3202     0.0310 C.2     
  11 C11           -2.7617     3.5583     0.0341 C.2     
  12 C12           -1.4289     3.3274     0.0323 C.2     
  13 C13           -3.4267     4.9106     0.0437 C.3     
  14 F14           -4.8161     4.7470     0.0498 F       
  15 F15           -3.0350     5.6148     1.1874 F       
  16 F16           -3.0463     5.6255    -1.0972 F       
  17 H17            1.1540    -1.7464    -0.0180 H       
  18 H18            3.1876     2.0264    -0.0173 H       
  19 H19            3.6015    -1.5854    -0.0402 H       
  20 H20            4.3986    -0.1065    -0.0402 H       
  21 H21           -4.4839     2.1696     0.0352 H       
  22 H22           -0.6516     4.0772     0.0382 H       
@<TRIPOS>BOND
   1    1    2 ar
   2    1    6 ar
   3    1    8 1
   4    2    3 ar
   5    3    4 ar
   6    3   17 1
   7    4    5 ar
   8    4    7 1
   9    5    6 ar
  10    5   18 1
  11    7   19 1
  12    7   20 1
  13    8    9 1
  14    8   12 1
  15    9   10 2
  16   10   11 1
  17   10   21 1
  18   11   12 2
  19   11   13 1
  20   12   22 1
  21   13   14 1
  22   13   15 1
  23   13   16 1

#	End of record

