#	Name: ASD05130078
#	Creating user name:	WinNT
#	Creation time:	15. 06. 2019 20:56

#	Modifying user name:	WinNT
#	Modification time:	15. 06. 2019 20:56

#	Program:	/corina/corina34_cracker 3.40 0067  02.08.2006

@<TRIPOS>MOLECULE
ASD05130078
  54   57    0    0    0
SMALL
NO_CHARGES


@<TRIPOS>ATOM
   1 N1            -0.1612     1.5505     0.1055 N.am    
   2 C2             0.0480     0.4217     0.8114 C.2     
   3 O3             1.1138     0.2415     1.3681 O.2     
   4 N4            -0.9243    -0.5074     0.9004 N.am    
   5 C5            -0.6722    -1.7246     1.5429 C.ar    
   6 C6            -1.6853    -2.3622     2.2464 C.ar    
   7 C7            -1.4342    -3.5658     2.8806 C.ar    
   8 C8            -0.1733    -4.1345     2.8144 C.ar    
   9 C9             0.8384    -3.5002     2.1133 C.ar    
  10 C10            0.5898    -2.2993     1.4730 C.ar    
  11 F11            2.0677    -4.0570     2.0503 F       
  12 F12           -2.4196    -4.1866     3.5652 F       
  13 C13            0.8149     2.5557     0.0860 C.ar    
  14 C14            0.4411     3.8854    -0.0852 C.ar    
  15 C15            1.4020     4.8808    -0.1049 C.ar    
  16 C16            2.7374     4.5597     0.0452 C.ar    
  17 C17            3.1199     3.2288     0.2172 C.ar    
  18 C18            2.1512     2.2266     0.2428 C.ar    
  19 F19           -0.8632     4.2050    -0.2328 F       
  20 N20            6.5396     2.8373     1.7904 N.am    
  21 C21            5.2379     3.1529     1.6431 C.2     
  22 C22            4.5515     2.8823     0.3779 C.2     
  23 C23            5.2408     2.3070    -0.6546 C.2     
  24 C24            6.6071     1.9852    -0.4755 C.ar    
  25 C25            7.3510     1.3959    -1.5052 C.ar    
  26 N26            8.6202     1.1035    -1.3225 N.ar    
  27 C27            9.2452     1.3481    -0.1756 C.ar    
  28 C28            8.5830     1.9297     0.8962 C.ar    
  29 C29            7.2398     2.2590     0.7569 C.ar    
  30 O30            4.6294     3.6646     2.5662 O.2     
  31 N31           10.5857     1.0150    -0.0471 N.pl3   
  32 C32           11.2886     1.2783     1.2110 C.3     
  33 C33            7.2163     3.1181     3.0590 C.3     
  34 C34            7.0801     1.9101     3.9880 C.3     
  35 Cl35           3.9395     5.8119     0.0191 Cl      
  36 H36           -0.9857     1.6655    -0.3924 H       
  37 H37           -1.7988    -0.3323     0.5189 H       
  38 H38           -2.6686    -1.9187     2.2988 H       
  39 H39            0.0213    -5.0738     3.3106 H       
  40 H40            1.3779    -1.8071     0.9226 H       
  41 H41            1.1074     5.9112    -0.2384 H       
  42 H42            2.4422     1.1957     0.3804 H       
  43 H43            4.7485     2.1009    -1.5935 H       
  44 H44            6.8806     1.1804    -2.4531 H       
  45 H45            9.1024     2.1229     1.8232 H       
  46 H46           11.0577     0.6077    -0.7903 H       
  47 H47           12.3249     0.9521     1.1234 H       
  48 H48           11.2609     2.3466     1.4260 H       
  49 H49           10.8029     0.7323     2.0197 H       
  50 H50            8.2718     3.3154     2.8719 H       
  51 H51            6.7613     3.9904     3.5283 H       
  52 H52            6.0246     1.7128     4.1752 H       
  53 H53            7.5352     1.0378     3.5188 H       
  54 H54            7.5836     2.1190     4.9319 H       
@<TRIPOS>BOND
   1    1    2 am
   2    1   13 1
   3    1   36 1
   4    2    3 2
   5    2    4 am
   6    4    5 1
   7    4   37 1
   8    5    6 ar
   9    5   10 ar
  10    6    7 ar
  11    6   38 1
  12    7    8 ar
  13    7   12 1
  14    8    9 ar
  15    8   39 1
  16    9   10 ar
  17    9   11 1
  18   10   40 1
  19   13   14 ar
  20   13   18 ar
  21   14   15 ar
  22   14   19 1
  23   15   16 ar
  24   15   41 1
  25   16   17 ar
  26   16   35 1
  27   17   18 ar
  28   17   22 1
  29   18   42 1
  30   20   21 am
  31   20   29 1
  32   20   33 1
  33   21   22 1
  34   21   30 2
  35   22   23 2
  36   23   24 1
  37   23   43 1
  38   24   25 ar
  39   24   29 ar
  40   25   26 ar
  41   25   44 1
  42   26   27 ar
  43   27   28 ar
  44   27   31 1
  45   28   29 ar
  46   28   45 1
  47   31   32 1
  48   31   46 1
  49   32   47 1
  50   32   48 1
  51   32   49 1
  52   33   34 1
  53   33   50 1
  54   33   51 1
  55   34   52 1
  56   34   53 1
  57   34   54 1

#	End of record

