#	Name: ASD05380081
#	Creating user name:	WinNT
#	Creation time:	15. 06. 2019 20:59

#	Modifying user name:	WinNT
#	Modification time:	15. 06. 2019 20:59

#	Program:	/corina/corina34_cracker 3.40 0067  02.08.2006

@<TRIPOS>MOLECULE
ASD05380081
  53   57    0    0    0
SMALL
NO_CHARGES


@<TRIPOS>ATOM
   1 C1            -0.2706     1.7437    -0.3083 C.ar    
   2 C2            -0.0037     0.3805    -0.5670 C.ar    
   3 C3             0.6309     2.7221    -0.7219 C.ar    
   4 C4             1.7809     2.3496    -1.3833 C.ar    
   5 C5             2.0461     1.0110    -1.6396 C.ar    
   6 C6             1.1687     0.0285    -1.2384 C.ar    
   7 N7            -0.8955    -0.5547    -0.1545 N.2     
   8 C8            -1.9853    -0.2270     0.4706 C.2     
   9 N9            -2.3227     1.0585     0.7616 N.am    
  10 C10           -1.5102     2.0810     0.4063 C.2     
  11 C11           -3.5188     1.3257     1.4396 C.ar    
  12 C12           -4.6881     1.5511     0.7252 C.ar    
  13 C13           -3.5391     1.3602     2.8276 C.ar    
  14 C14           -4.7202     1.6235     3.4932 C.ar    
  15 C15           -5.8819     1.8522     2.7789 C.ar    
  16 C16           -5.8660     1.8139     1.3967 C.ar    
  17 C17           -2.9245    -1.3265     0.8950 C.3     
  18 N18           -2.9248    -2.3861    -0.1167 N.pl3   
  19 C19           -4.0224    -3.2177    -0.2469 C.ar    
  20 N20           -5.0863    -3.0702     0.5375 N.ar    
  21 O21           -1.7994     3.2359     0.6603 O.2     
  22 C22           -4.0439    -4.2342    -1.2136 C.ar    
  23 C23           -5.1843    -5.0535    -1.3066 C.ar    
  24 N24           -6.1983    -4.8301    -0.4722 N.ar    
  25 C25           -6.1366    -3.8619     0.4162 C.ar    
  26 C26           -3.1159    -4.7090    -2.2383 C.2     
  27 C27           -3.7171    -5.7360    -2.8609 C.2     
  28 N28           -4.9549    -5.9516    -2.3124 N.pl3   
  29 C29            0.3500     4.1772    -0.4485 C.3     
  30 C30           -2.4636    -1.9017     2.2358 C.3     
  31 C31           -1.7479    -4.1527    -2.5387 C.3     
  32 H32            2.4819     3.1054    -1.7054 H       
  33 H33            2.9520     0.7369    -2.1599 H       
  34 H34            1.3860    -1.0095    -1.4427 H       
  35 H35           -4.6762     1.5213    -0.3543 H       
  36 H36           -2.6322     1.1809     3.3861 H       
  37 H37           -4.7366     1.6504     4.5728 H       
  38 H38           -6.8045     2.0572     3.3017 H       
  39 H39           -6.7749     1.9933     0.8416 H       
  40 H40           -3.9319    -0.9236     0.9995 H       
  41 H41           -2.1553    -2.5045    -0.6952 H       
  42 H42           -6.9795    -3.7080     1.0736 H       
  43 H43           -3.2896    -6.3063    -3.6723 H       
  44 H44           -5.5765    -6.6403    -2.5956 H       
  45 H45            0.6697     4.4250     0.5637 H       
  46 H46            0.8961     4.7932    -1.1630 H       
  47 H47           -0.7189     4.3660    -0.5484 H       
  48 H48           -1.4444    -2.2760     2.1395 H       
  49 H49           -2.4936    -1.1208     2.9957 H       
  50 H50           -3.1245    -2.7180     2.5274 H       
  51 H51           -1.0040    -4.6711    -1.9337 H       
  52 H52           -1.5213    -4.2963    -3.5951 H       
  53 H53           -1.7290    -3.0883    -2.3044 H       
@<TRIPOS>BOND
   1    1    2 ar
   2    1    3 ar
   3    1   10 1
   4    2    7 1
   5    2    6 ar
   6    3    4 ar
   7    3   29 1
   8    4    5 ar
   9    4   32 1
  10    5    6 ar
  11    5   33 1
  12    6   34 1
  13    7    8 2
  14    8    9 1
  15    8   17 1
  16    9   10 am
  17    9   11 1
  18   10   21 2
  19   11   12 ar
  20   11   13 ar
  21   12   16 ar
  22   12   35 1
  23   13   14 ar
  24   13   36 1
  25   14   15 ar
  26   14   37 1
  27   15   16 ar
  28   15   38 1
  29   16   39 1
  30   17   18 1
  31   17   30 1
  32   17   40 1
  33   18   19 1
  34   18   41 1
  35   19   20 ar
  36   19   22 ar
  37   20   25 ar
  38   22   23 ar
  39   22   26 1
  40   23   24 ar
  41   23   28 1
  42   24   25 ar
  43   25   42 1
  44   26   27 2
  45   26   31 1
  46   27   28 1
  47   27   43 1
  48   28   44 1
  49   29   45 1
  50   29   46 1
  51   29   47 1
  52   30   48 1
  53   30   49 1
  54   30   50 1
  55   31   51 1
  56   31   52 1
  57   31   53 1

#	End of record

