#	Name: ASD01810874
#	Creating user name:	WinNT
#	Creation time:	15. 06. 2019 19:25

#	Modifying user name:	WinNT
#	Modification time:	15. 06. 2019 19:25

#	Program:	/corina/corina34_cracker 3.40 0067  02.08.2006

@<TRIPOS>MOLECULE
ASD01810874
  65   70    0    0    0
SMALL
NO_CHARGES


@<TRIPOS>ATOM
   1 C1            -0.0178     1.4608     0.0101 C.3     
   2 C2            -1.0644    -4.2858    -1.9275 C.ar    
   3 C3            -1.1161    -2.9333    -1.9768 C.ar    
   4 C4            -0.5355    -2.1451    -0.9709 C.ar    
   5 C5             0.1185    -2.7475     0.1193 C.ar    
   6 C6             0.1784    -4.2050     0.1782 C.ar    
   7 C7             0.8125    -4.8707     1.2321 C.ar    
   8 C8             0.8454    -6.2347     1.2472 C.ar    
   9 C9             0.2553    -6.9729     0.2263 C.ar    
  10 C10           -0.3705    -6.3547    -0.8149 C.ar    
  11 C11           -0.4242    -4.9532    -0.8623 C.ar    
  12 C12           -1.7072    -5.0918    -3.0268 C.3     
  13 C13           -4.1787    -4.6609    -2.9063 C.ar    
  14 C14           -3.1015    -5.4851    -2.6118 C.ar    
  15 C15           -3.3197    -6.6703    -1.9346 C.ar    
  16 N16           -4.5342    -7.0259    -1.5670 N.ar    
  17 C17           -5.4430    -5.0585    -2.5082 C.ar    
  18 C18           -5.5905    -6.2665    -1.8293 C.ar    
  19 C19           -0.5859    -0.6781    -1.0136 C.2     
  20 N20            0.0021    -0.0041     0.0020 N.am    
  21 C21            0.6101    -0.6745     1.0123 C.2     
  22 N22            0.6668    -1.9731     1.0706 N.2     
  23 O23           -1.1354    -0.0906    -1.9279 O.2     
  24 C24            1.4176     1.9904    -0.0008 C.3     
  25 C25            1.3968     3.5202     0.0076 C.3     
  26 C26            0.6807     4.0136     1.2664 C.3     
  27 C27           -0.7547     3.4840     1.2773 C.3     
  28 C28           -0.7339     1.9542     1.2689 C.3     
  29 O29            2.0865     1.5295    -1.1765 O.3     
  30 C30           -6.9385    -6.7072    -1.3968 C.2     
  31 C31           -8.0688    -5.9061    -1.6712 C.2     
  32 C32           -7.0938    -7.8923    -0.7363 C.2     
  33 N33           -8.3220    -8.3030    -0.3379 N.am    
  34 C34           -9.4139    -7.5552    -0.5829 C.2     
  35 C35           -9.2969    -6.3308    -1.2651 C.2     
  36 C36           -8.4634    -9.5785     0.3687 C.3     
  37 O37          -10.5109    -7.9434    -0.2155 O.2     
  38 H38           -0.5450     1.8219    -0.8730 H       
  39 H39           -1.6133    -2.4520    -2.8059 H       
  40 H40            1.2743    -4.3079     2.0299 H       
  41 H41            1.3357    -6.7475     2.0615 H       
  42 H42            0.2940    -8.0517     0.2591 H       
  43 H43           -0.8241    -6.9414    -1.6001 H       
  44 H44           -1.7541    -4.4931    -3.9364 H       
  45 H45           -1.1167    -5.9890    -3.2123 H       
  46 H46           -4.0328    -3.7281    -3.4306 H       
  47 H47           -2.4836    -7.3138    -1.7039 H       
  48 H48           -6.3035    -4.4416    -2.7214 H       
  49 H49            1.0691    -0.1035     1.8058 H       
  50 H50            1.9448     1.6293     0.8823 H       
  51 H51            2.4194     3.8975    -0.0001 H       
  52 H52            0.8697     3.8813    -0.8754 H       
  53 H53            1.2079     3.6525     2.1495 H       
  54 H54            0.6659     5.1035     1.2724 H       
  55 H55           -1.2649     3.8356     2.1741 H       
  56 H56           -1.2819     3.8451     0.3942 H       
  57 H57           -1.7565     1.5769     1.2766 H       
  58 H58           -0.2067     1.5931     2.1519 H       
  59 H59            3.0034     1.8277    -1.2498 H       
  60 H60           -7.9603    -4.9685    -2.1961 H       
  61 H61           -6.2304    -8.5075    -0.5301 H       
  62 H62          -10.1731    -5.7309    -1.4617 H       
  63 H63           -8.3687    -9.4119     1.4417 H       
  64 H64           -9.4420   -10.0071     0.1525 H       
  65 H65           -7.6846   -10.2655     0.0376 H       
@<TRIPOS>BOND
   1    1   20 1
   2    1   24 1
   3    1   28 1
   4    1   38 1
   5    2    3 ar
   6    2   11 ar
   7    2   12 1
   8    3    4 ar
   9    3   39 1
  10    4    5 ar
  11    4   19 1
  12    5    6 ar
  13    5   22 1
  14    6    7 ar
  15    6   11 ar
  16    7    8 ar
  17    7   40 1
  18    8    9 ar
  19    8   41 1
  20    9   10 ar
  21    9   42 1
  22   10   11 ar
  23   10   43 1
  24   12   14 1
  25   12   44 1
  26   12   45 1
  27   13   14 ar
  28   13   17 ar
  29   13   46 1
  30   14   15 ar
  31   15   16 ar
  32   15   47 1
  33   16   18 ar
  34   17   18 ar
  35   17   48 1
  36   18   30 1
  37   19   20 am
  38   19   23 2
  39   20   21 1
  40   21   22 2
  41   21   49 1
  42   24   25 1
  43   24   29 1
  44   24   50 1
  45   25   26 1
  46   25   51 1
  47   25   52 1
  48   26   27 1
  49   26   53 1
  50   26   54 1
  51   27   28 1
  52   27   55 1
  53   27   56 1
  54   28   57 1
  55   28   58 1
  56   29   59 1
  57   30   31 1
  58   30   32 2
  59   31   35 2
  60   31   60 1
  61   32   33 1
  62   32   61 1
  63   33   34 am
  64   33   36 1
  65   34   35 1
  66   34   37 2
  67   35   62 1
  68   36   63 1
  69   36   64 1
  70   36   65 1

#	End of record

