#	Name: ASD01871027
#	Creating user name:	WinNT
#	Creation time:	15. 06. 2019 19:39

#	Modifying user name:	WinNT
#	Modification time:	15. 06. 2019 19:39

#	Program:	/corina/corina34_cracker 3.40 0067  02.08.2006

@<TRIPOS>MOLECULE
ASD01871027
  32   34    0    0    0
SMALL
NO_CHARGES


@<TRIPOS>ATOM
   1 C1            -0.0162     1.3402     0.0094 C.2     
   2 C2             0.0021    -0.0041     0.0020 C.2     
   3 S3            -1.6654    -0.5718     0.0149 S.3     
   4 C4            -2.2297     1.0414     0.0289 C.2     
   5 N5            -1.2341     1.8674     0.0295 N.2     
   6 O6            -3.5356     1.4040     0.0433 O.3     
   7 C7            -4.5013     0.3507     0.0475 C.3     
   8 C8            -5.7597     0.8154     0.7832 C.3     
   9 C9            -4.8599    -0.0181    -1.3935 C.3     
  10 C10           -5.8938    -1.1458    -1.3891 C.3     
  11 C11           -7.1522    -0.6811    -0.6533 C.3     
  12 C12           -6.7936    -0.3123     0.7876 C.3     
  13 C13            1.2199     2.1642     0.0020 C.2     
  14 C14            2.5387     1.6844    -0.1126 C.2     
  15 N15            3.3488     2.7096    -0.0793 N.2     
  16 N16            2.5853     3.8754     0.0569 N.pl3   
  17 C17            1.2829     3.5230     0.0992 C.2     
  18 H18            0.8844    -0.6267    -0.0103 H       
  19 H19           -4.0859    -0.5211     0.5530 H       
  20 H20           -5.5042     1.0781     1.8098 H       
  21 H21           -6.1750     1.6872     0.2777 H       
  22 H22           -5.2752     0.8537    -1.8990 H       
  23 H23           -3.9634    -0.3492    -1.9176 H       
  24 H24           -6.1493    -1.4086    -2.4156 H       
  25 H25           -5.4785    -2.0176    -0.8835 H       
  26 H26           -7.5676     0.1907    -1.1588 H       
  27 H27           -7.8889    -1.4845    -0.6502 H       
  28 H28           -6.3783    -1.1841     1.2932 H       
  29 H29           -7.6901     0.0188     1.3118 H       
  30 H30            2.8302     0.6492    -0.2110 H       
  31 H31            2.9320     4.7798     0.1080 H       
  32 H32            0.4432     4.1949     0.1994 H       
@<TRIPOS>BOND
   1    1    2 2
   2    1   13 1
   3    1    5 1
   4    2    3 1
   5    2   18 1
   6    3    4 1
   7    4    5 2
   8    4    6 1
   9    6    7 1
  10    7    8 1
  11    7    9 1
  12    7   19 1
  13    8   12 1
  14    8   20 1
  15    8   21 1
  16    9   10 1
  17    9   22 1
  18    9   23 1
  19   10   11 1
  20   10   24 1
  21   10   25 1
  22   11   12 1
  23   11   26 1
  24   11   27 1
  25   12   28 1
  26   12   29 1
  27   13   14 1
  28   13   17 2
  29   14   15 2
  30   14   30 1
  31   15   16 1
  32   16   17 1
  33   16   31 1
  34   17   32 1

#	End of record

