#	Name: ASD02198327
#	Creating user name:	WinNT
#	Creation time:	15. 06. 2019 20:19

#	Modifying user name:	WinNT
#	Modification time:	15. 06. 2019 20:19

#	Program:	/corina/corina34_cracker 3.40 0067  02.08.2006

@<TRIPOS>MOLECULE
ASD02198327
  37   39    0    0    0
SMALL
NO_CHARGES


@<TRIPOS>ATOM
   1 C1             1.5523     1.6336    -0.9682 C.2     
   2 C2             1.6191     0.2847    -0.6693 C.2     
   3 S3             2.8678     2.4367    -0.1149 S.3     
   4 C4             3.3737     0.9439     0.5446 C.2     
   5 N5             2.6056    -0.0260     0.1385 N.2     
   6 N6             0.7291    -0.6493    -1.1742 N.pl3   
   7 C7             0.6073     2.2521    -1.8077 C.2     
   8 C8             0.5607     3.7281    -1.9082 C.ar    
   9 O9            -0.1730     1.5721    -2.4522 O.2     
  10 N10            4.4486     0.7876     1.3908 N.pl3   
  11 C11           -0.0268     4.3366    -3.0183 C.ar    
  12 C12            1.0987     4.5169    -0.8910 C.ar    
  13 C13            1.0516     5.8923    -0.9905 C.ar    
  14 C14            0.4725     6.4894    -2.0959 C.ar    
  15 C15           -0.0676     5.7126    -3.1058 C.ar    
  16 C16            4.8652    -0.4953     1.7629 C.ar    
  17 C17            4.3058    -1.6116     1.1567 C.ar    
  18 C18            4.7196    -2.8772     1.5260 C.ar    
  19 C19            5.6898    -3.0336     2.4982 C.ar    
  20 C20            6.2504    -1.9244     3.1054 C.ar    
  21 C21            5.8452    -0.6549     2.7374 C.ar    
  22 F22            6.3930     0.4286     3.3301 F       
  23 F23            2.9789     7.0057    -0.1661 F       
  24 F24            0.9293     7.9537     0.1799 F       
  25 C25            1.6318     6.7460     0.1076 C.3     
  26 F26            1.5256     6.0710     1.3284 F       
  27 H27            0.0159    -0.3679    -1.7683 H       
  28 H28            0.8193    -1.5847    -0.9336 H       
  29 H29            4.9170     1.5668     1.7289 H       
  30 H30           -0.4484     3.7314    -3.8072 H       
  31 H31            1.5507     4.0520    -0.0273 H       
  32 H32            0.4381     7.5664    -2.1691 H       
  33 H33           -0.5183     6.1847    -3.9662 H       
  34 H34            3.5475    -1.4911     0.3972 H       
  35 H35            4.2840    -3.7457     1.0544 H       
  36 H36            6.0106    -4.0243     2.7847 H       
  37 H37            7.0079    -2.0501     3.8649 H       
@<TRIPOS>BOND
   1    1    2 2
   2    1    3 1
   3    1    7 1
   4    2    6 1
   5    2    5 1
   6    3    4 1
   7    4    5 2
   8    4   10 1
   9    6   27 1
  10    6   28 1
  11    7    8 1
  12    7    9 2
  13    8   11 ar
  14    8   12 ar
  15   10   16 1
  16   10   29 1
  17   11   15 ar
  18   11   30 1
  19   12   13 ar
  20   12   31 1
  21   13   14 ar
  22   13   25 1
  23   14   15 ar
  24   14   32 1
  25   15   33 1
  26   16   17 ar
  27   16   21 ar
  28   17   18 ar
  29   17   34 1
  30   18   19 ar
  31   18   35 1
  32   19   20 ar
  33   19   36 1
  34   20   21 ar
  35   20   37 1
  36   21   22 1
  37   23   25 1
  38   24   25 1
  39   25   26 1

#	End of record

