#	Name: ASD04590077
#	Creating user name:	WinNT
#	Creation time:	15. 06. 2019 20:50

#	Modifying user name:	WinNT
#	Modification time:	15. 06. 2019 20:50

#	Program:	/corina/corina34_cracker 3.40 0067  02.08.2006

@<TRIPOS>MOLECULE
ASD04590077
  44   46    0    0    0
SMALL
NO_CHARGES


@<TRIPOS>ATOM
   1 N1            -0.0767     1.2683    -0.0493 N.pl3   
   2 N2            -0.0362    -0.0145     0.0020 N.2     
   3 C3             1.1935    -0.4418    -0.2149 C.2     
   4 C4             2.0021     0.7053    -0.4235 C.2     
   5 C5             1.1602     1.7666    -0.3104 C.2     
   6 C6             1.6424    -1.8460    -0.2358 C.2     
   7 O7             2.8108    -2.1077    -0.4483 O.2     
   8 N8             0.7578    -2.8395    -0.0194 N.am    
   9 C9             1.1624    -4.1744    -0.1354 C.ar    
  10 C10            2.4404    -4.5501     0.2569 C.ar    
  11 C11            2.8377    -5.8678     0.1416 C.ar    
  12 C12            1.9627    -6.8140    -0.3649 C.ar    
  13 C13            0.6880    -6.4414    -0.7571 C.ar    
  14 C14            0.2846    -5.1259    -0.6377 C.ar    
  15 F15            2.3533    -8.1025    -0.4769 F       
  16 N16            3.3788     0.7373    -0.6896 N.pl3   
  17 C17            4.0584     2.0212    -0.8798 C.3     
  18 C18            5.5436     1.7764    -1.1539 C.3     
  19 C19            6.2288     3.1061    -1.4753 C.3     
  20 C20            7.7140     2.8613    -1.7494 C.3     
  21 C21            8.3649     2.2380    -0.5130 C.3     
  22 C22            7.6797     0.9083    -0.1915 C.3     
  23 C23            6.1945     1.1531     0.0826 C.3     
  24 H24           -0.8757     1.8038     0.0760 H       
  25 H25            1.4244     2.8091    -0.4100 H       
  26 H26           -0.1593    -2.6295     0.2167 H       
  27 H27            3.1233    -3.8124     0.6517 H       
  28 H28            3.8317    -6.1604     0.4463 H       
  29 H29            0.0072    -7.1808    -1.1522 H       
  30 H30           -0.7113    -4.8366    -0.9393 H       
  31 H31            3.8810    -0.0905    -0.7478 H       
  32 H32            3.6144     2.5455    -1.7259 H       
  33 H33            3.9500     2.6265     0.0202 H       
  34 H34            5.6499     1.0987    -2.0010 H       
  35 H35            5.7652     3.5501    -2.3562 H       
  36 H36            6.1226     3.7837    -0.6282 H       
  37 H37            7.8203     2.1836    -2.5966 H       
  38 H38            8.2022     3.8085    -1.9785 H       
  39 H39            9.4230     2.0636    -0.7083 H       
  40 H40            8.2586     2.9156     0.3341 H       
  41 H41            7.7859     0.2307    -1.0386 H       
  42 H42            8.1433     0.4643     0.6894 H       
  43 H43            6.0882     1.8307     0.9297 H       
  44 H44            5.7063     0.2058     0.3116 H       
@<TRIPOS>BOND
   1    1    2 1
   2    1    5 1
   3    1   24 1
   4    2    3 2
   5    3    4 1
   6    3    6 1
   7    4    5 2
   8    4   16 1
   9    5   25 1
  10    6    7 2
  11    6    8 am
  12    8    9 1
  13    8   26 1
  14    9   10 ar
  15    9   14 ar
  16   10   11 ar
  17   10   27 1
  18   11   12 ar
  19   11   28 1
  20   12   13 ar
  21   12   15 1
  22   13   14 ar
  23   13   29 1
  24   14   30 1
  25   16   17 1
  26   16   31 1
  27   17   18 1
  28   17   32 1
  29   17   33 1
  30   18   19 1
  31   18   23 1
  32   18   34 1
  33   19   20 1
  34   19   35 1
  35   19   36 1
  36   20   21 1
  37   20   37 1
  38   20   38 1
  39   21   22 1
  40   21   39 1
  41   21   40 1
  42   22   23 1
  43   22   41 1
  44   22   42 1
  45   23   43 1
  46   23   44 1

#	End of record

