#	Name: ASD07030011
#	Creating user name:	WinNT
#	Creation time:	15. 06. 2019 21:08

#	Modifying user name:	WinNT
#	Modification time:	15. 06. 2019 21:08

#	Program:	/corina/corina34_cracker 3.40 0067  02.08.2006

@<TRIPOS>MOLECULE
ASD07030011
  54   56    0    0    0
SMALL
NO_CHARGES


@<TRIPOS>ATOM
   1 C1             0.3569     1.4011     0.0028 C.3     
   2 C2             0.7671    -0.0678    -0.1190 C.3     
   3 N3             1.5598     2.2423     0.0603 N.3     
   4 N4            -0.4359    -0.9090    -0.1765 N.3     
   5 C5            -0.0800    -2.3293    -0.2939 C.3     
   6 C6            -1.0972    -3.3563     0.2075 C.3     
   7 C7            -0.8699    -3.1752    -1.2947 C.3     
   8 C8             0.4230    -6.9183     2.0187 C.ar    
   9 C9            -0.4020    -6.0619     2.7449 C.ar    
  10 C10           -0.8902    -4.9136     2.1551 C.ar    
  11 C11           -0.5615    -4.6119     0.8458 C.ar    
  12 C12            0.2568    -5.4588     0.1202 C.ar    
  13 C13            0.7506    -6.6098     0.7000 C.ar    
  14 C14            0.9559    -8.1513     2.6494 C.ar    
  15 C15            1.7811    -9.0078     1.9231 C.ar    
  16 C16            2.2742   -10.1529     2.5147 C.ar    
  17 C17            1.9508   -10.4512     3.8264 C.ar    
  18 C18            1.1319    -9.6049     4.5516 C.ar    
  19 C19            0.6377    -8.4539     3.9716 C.ar    
  20 C20            3.1663   -11.0804     1.7305 C.3     
  21 F21            4.5012   -10.6980     1.9006 F       
  22 F22            2.9945   -12.3909     2.1889 F       
  23 F23            2.8312   -11.0132     0.3739 F       
  24 C24            2.2998     2.1901    -1.2076 C.3     
  25 C25            3.7163     2.7275    -0.9940 C.3     
  26 C26            1.2179     3.6266     0.4137 C.3     
  27 C27            0.9257     3.7129     1.9130 C.3     
  28 H28           -0.2431     1.6838    -0.8622 H       
  29 H29           -0.2280     1.5409     0.9120 H       
  30 H30            1.3519    -0.2075    -1.0281 H       
  31 H31            1.3670    -0.3504     0.7460 H       
  32 H32           -1.0273    -0.7495     0.6254 H       
  33 H33            0.9767    -2.5619    -0.1621 H       
  34 H34           -2.0306    -2.9781     0.6245 H       
  35 H35           -1.6537    -2.6777    -1.8659 H       
  36 H36           -0.3329    -3.9641    -1.8212 H       
  37 H37           -0.6593    -6.2965     3.7672 H       
  38 H38           -1.5298    -4.2491     2.7171 H       
  39 H39            0.5100    -5.2186    -0.9019 H       
  40 H40            1.3900    -7.2699     0.1327 H       
  41 H41            2.0339    -8.7761     0.8990 H       
  42 H42            2.3389   -11.3483     4.2855 H       
  43 H43            0.8823    -9.8427     5.5751 H       
  44 H44            0.0023    -7.7912     4.5404 H       
  45 H45            2.3513     1.1586    -1.5560 H       
  46 H46            1.7883     2.8000    -1.9522 H       
  47 H47            4.3064     2.5650    -1.8959 H       
  48 H48            3.6711     3.7947    -0.7767 H       
  49 H49            4.1805     2.2057    -0.1571 H       
  50 H50            2.0540     4.2814     0.1682 H       
  51 H51            0.3362     3.9374    -0.1468 H       
  52 H52            1.8098     3.4091     2.4736 H       
  53 H53            0.6647     4.7385     2.1739 H       
  54 H54            0.0944     3.0525     2.1598 H       
@<TRIPOS>BOND
   1    1    2 1
   2    1    3 1
   3    1   28 1
   4    1   29 1
   5    2    4 1
   6    2   30 1
   7    2   31 1
   8    3   24 1
   9    3   26 1
  10    4    5 1
  11    4   32 1
  12    5    6 1
  13    5    7 1
  14    5   33 1
  15    6    7 1
  16    6   11 1
  17    6   34 1
  18    7   35 1
  19    7   36 1
  20    8    9 ar
  21    8   13 ar
  22    8   14 1
  23    9   10 ar
  24    9   37 1
  25   10   11 ar
  26   10   38 1
  27   11   12 ar
  28   12   13 ar
  29   12   39 1
  30   13   40 1
  31   14   15 ar
  32   14   19 ar
  33   15   16 ar
  34   15   41 1
  35   16   17 ar
  36   16   20 1
  37   17   18 ar
  38   17   42 1
  39   18   19 ar
  40   18   43 1
  41   19   44 1
  42   20   21 1
  43   20   22 1
  44   20   23 1
  45   24   25 1
  46   24   45 1
  47   24   46 1
  48   25   47 1
  49   25   48 1
  50   25   49 1
  51   26   27 1
  52   26   50 1
  53   26   51 1
  54   27   52 1
  55   27   53 1
  56   27   54 1

#	End of record

