#	Name: ASD01901351
#	Creating user name:	WinNT
#	Creation time:	15. 06. 2019 19:53

#	Modifying user name:	WinNT
#	Modification time:	15. 06. 2019 19:53

#	Program:	/corina/corina34_cracker 3.40 0067  02.08.2006

@<TRIPOS>MOLECULE
ASD01901351
  40   43    0    0    0
SMALL
NO_CHARGES


@<TRIPOS>ATOM
   1 C1            -0.0169     1.3929     0.0097 C.ar    
   2 C2             1.1930     2.0661     0.0018 C.ar    
   3 C3             2.3703     1.3412    -0.0134 C.ar    
   4 N4             2.3565     0.0221    -0.0208 N.ar    
   5 C5             1.2305    -0.6613    -0.0137 C.ar    
   6 C6             0.0021    -0.0041     0.0020 C.ar    
   7 C7            -1.2659    -0.7755     0.0105 C.2     
   8 N8            -3.1684    -1.5598    -1.1470 N.2     
   9 C9            -2.0498    -0.8771    -1.1593 C.2     
  10 C10           -1.6882    -1.4023     1.1493 C.2     
  11 N11           -2.8573    -2.1030     1.1226 N.pl3   
  12 C12           -3.5932    -2.1737    -0.0323 C.2     
  13 C13           -3.5296    -2.8207     2.0750 C.2     
  14 C14           -4.6450    -3.3075     1.4909 C.2     
  15 N15           -4.6691    -2.9068     0.2163 N.2     
  16 C16           -5.6889    -4.1609     2.1640 C.3     
  17 O17           -5.3184    -4.3805     3.5266 O.3     
  18 C18           -6.1591    -5.1369     4.2802 C.ar    
  19 C19           -7.3133    -5.6613     3.7183 C.ar    
  20 C20           -5.8607    -5.3901     5.6116 C.ar    
  21 C21           -6.7159    -6.1590     6.3768 C.ar    
  22 C22           -7.8694    -6.6770     5.8179 C.ar    
  23 C23           -8.1675    -6.4311     4.4882 C.ar    
  24 F24           -9.2927    -6.9425     3.9425 F       
  25 C25           -1.3210     2.1478     0.0324 C.3     
  26 H26            1.2169     3.1458     0.0070 H       
  27 H27            3.3158     1.8630    -0.0196 H       
  28 H28            1.2598    -1.7409    -0.0205 H       
  29 H29           -1.7267    -0.3901    -2.0676 H       
  30 H30           -1.1045    -1.3437     2.0561 H       
  31 H31           -3.2246    -2.9700     3.1002 H       
  32 H32           -6.6526    -3.6530     2.1268 H       
  33 H33           -5.7627    -5.1185     1.6487 H       
  34 H34           -7.5454    -5.4689     2.6813 H       
  35 H35           -4.9597    -4.9864     6.0494 H       
  36 H36           -6.4830    -6.3560     7.4128 H       
  37 H37           -8.5367    -7.2779     6.4180 H       
  38 H38           -1.6207     2.3243     1.0654 H       
  39 H39           -1.1969     3.1028    -0.4782 H       
  40 H40           -2.0886     1.5623    -0.4736 H       
@<TRIPOS>BOND
   1    1    6 ar
   2    1    2 ar
   3    1   25 1
   4    2    3 ar
   5    2   26 1
   6    3    4 ar
   7    3   27 1
   8    4    5 ar
   9    5    6 ar
  10    5   28 1
  11    6    7 1
  12    7   10 2
  13    7    9 1
  14    8    9 2
  15    8   12 1
  16    9   29 1
  17   10   11 1
  18   10   30 1
  19   11   13 1
  20   11   12 1
  21   12   15 2
  22   13   14 2
  23   13   31 1
  24   14   15 1
  25   14   16 1
  26   16   17 1
  27   16   32 1
  28   16   33 1
  29   17   18 1
  30   18   20 ar
  31   18   19 ar
  32   19   23 ar
  33   19   34 1
  34   20   21 ar
  35   20   35 1
  36   21   22 ar
  37   21   36 1
  38   22   23 ar
  39   22   37 1
  40   23   24 1
  41   25   38 1
  42   25   39 1
  43   25   40 1

#	End of record

