#	Name: ASD01730002
#	Creating user name:	WinNT
#	Creation time:	15. 06. 2019 19:23

#	Modifying user name:	WinNT
#	Modification time:	15. 06. 2019 19:23

#	Program:	/corina/corina34_cracker 3.40 0067  02.08.2006

@<TRIPOS>MOLECULE
ASD01730002
  28   28    0    0    0
SMALL
NO_CHARGES


@<TRIPOS>ATOM
   1 C1             1.0726     1.4988     1.1327 C.2     
   2 C2             1.0986    -0.0078     1.1050 C.3     
   3 N3             1.0850     2.1729     0.0139 N.2     
   4 N4             1.0305     2.1580     2.3256 N.pl3   
   5 S5             2.2676     4.6698     0.2120 S.3     
   6 C6             0.9449     3.5257     0.0335 C.2     
   7 N7            -0.1802     4.1534    -0.0773 N.2     
   8 C8            -0.1555     5.4995    -0.0400 C.ar    
   9 C9             1.1349     6.0162     0.1188 C.ar    
  10 C10           -1.2347     6.4040    -0.1392 C.ar    
  11 C11           -1.0167     7.7569    -0.0811 C.ar    
  12 C12            0.2710     8.2599     0.0765 C.ar    
  13 C13            1.3414     7.3921     0.1777 C.ar    
  14 O14            0.4756     9.6030     0.1315 O.3     
  15 C15           -0.6774    10.4399     0.0209 C.3     
  16 F16           -1.5645    10.1518     1.0636 F       
  17 F17           -0.2887    11.7817     0.0968 F       
  18 F18           -1.3077    10.2056    -1.2058 F       
  19 H19            2.0053    -0.3463     0.6035 H       
  20 H20            1.0834    -0.3903     2.1255 H       
  21 H21            0.2260    -0.3764     0.5657 H       
  22 H22            0.9307     1.6598     3.1518 H       
  23 H23            1.1002     3.1253     2.3479 H       
  24 H24           -2.2395     6.0279    -0.2622 H       
  25 H25           -1.8516     8.4376    -0.1588 H       
  26 H26            2.3411     7.7819     0.3005 H       
  27 Cl27           7.3411    16.7817     8.1518 Cl      
  28 H28            7.3411    18.1517     8.1518 H       
@<TRIPOS>BOND
   1    1    2 1
   2    1    3 2
   3    1    4 1
   4    2   19 1
   5    2   20 1
   6    2   21 1
   7    3    6 1
   8    4   22 1
   9    4   23 1
  10    5    6 1
  11    5    9 1
  12    6    7 2
  13    7    8 1
  14    8    9 ar
  15    8   10 ar
  16    9   13 ar
  17   10   11 ar
  18   10   24 1
  19   11   12 ar
  20   11   25 1
  21   12   13 ar
  22   12   14 1
  23   13   26 1
  24   14   15 1
  25   15   16 1
  26   15   17 1
  27   15   18 1
  28   27   28 1

#	End of record

