#	Name: ASD05250079
#	Creating user name:	WinNT
#	Creation time:	15. 06. 2019 20:58

#	Modifying user name:	WinNT
#	Modification time:	15. 06. 2019 20:58

#	Program:	/corina/corina34_cracker 3.40 0067  02.08.2006

@<TRIPOS>MOLECULE
ASD05250079
  28   29    0    0    0
SMALL
NO_CHARGES


@<TRIPOS>ATOM
   1 C1            -0.0167     1.3828     0.0096 C.ar    
   2 C2             0.0021    -0.0041     0.0020 C.ar    
   3 C3             1.2162    -0.6881    -0.0128 C.ar    
   4 C4             2.4057     0.0151    -0.0200 C.ar    
   5 C5             2.3874     1.4130    -0.0128 C.ar    
   6 C6             1.1662     2.0920     0.0022 C.ar    
   7 O7             1.2303    -2.0480    -0.0198 O.3     
   8 C8             3.6524     2.1683    -0.0204 C.2     
   9 C9             3.6328     3.5110    -0.0134 C.2     
  10 C10            4.8981     4.2665    -0.0210 C.ar    
  11 C11            4.8816     5.6638    -0.0138 C.ar    
  12 C12            6.0698     6.3641    -0.0205 C.ar    
  13 C13            7.2762     5.6864    -0.0348 C.ar    
  14 C14            7.3004     4.3028    -0.0424 C.ar    
  15 C15            6.1203     3.5890    -0.0296 C.ar    
  16 O16           -1.1669    -0.6979     0.0095 O.3     
  17 H17           -0.9600     1.9086     0.0170 H       
  18 H18            3.3472    -0.5139    -0.0308 H       
  19 H19            1.1486     3.1718     0.0074 H       
  20 H20            1.2261    -2.4368    -0.9052 H       
  21 H21            4.5955     1.6421    -0.0315 H       
  22 H22            2.6897     4.0372    -0.0023 H       
  23 H23            3.9408     6.1940    -0.0034 H       
  24 H24            6.0586     7.4440    -0.0150 H       
  25 H25            8.2035     6.2400    -0.0403 H       
  26 H26            8.2457     3.7806    -0.0543 H       
  27 H27            6.1407     2.5092    -0.0356 H       
  28 H28           -1.5136    -0.8939    -0.8717 H       
@<TRIPOS>BOND
   1    1    2 ar
   2    1    6 ar
   3    1   17 1
   4    2    3 ar
   5    2   16 1
   6    3    4 ar
   7    3    7 1
   8    4    5 ar
   9    4   18 1
  10    5    6 ar
  11    5    8 1
  12    6   19 1
  13    7   20 1
  14    8    9 2
  15    8   21 1
  16    9   10 1
  17    9   22 1
  18   10   11 ar
  19   10   15 ar
  20   11   12 ar
  21   11   23 1
  22   12   13 ar
  23   12   24 1
  24   13   14 ar
  25   13   25 1
  26   14   15 ar
  27   14   26 1
  28   15   27 1
  29   16   28 1

#	End of record

