#	Name: ASD01908267
#	Creating user name:	WinNT
#	Creation time:	15. 06. 2019 19:54

#	Modifying user name:	WinNT
#	Modification time:	15. 06. 2019 19:54

#	Program:	/corina/corina34_cracker 3.40 0067  02.08.2006

@<TRIPOS>MOLECULE
ASD01908267
  43   44    0    0    0
SMALL
NO_CHARGES


@<TRIPOS>ATOM
   1 N1            -0.0008     1.4953     0.0105 N.am    
   2 C2            -0.0146     0.0251    -0.0308 C.3     
   3 C3             0.8960    -0.4383    -1.1728 C.3     
   4 N4             2.2251     0.1660    -1.0110 N.3     
   5 C5             2.1603     1.6303    -1.1097 C.3     
   6 C6             1.3015     2.1785     0.0349 C.3     
   7 C7            -1.1509     2.1979     0.0202 C.2     
   8 O8            -2.2179     1.6171    -0.0054 O.2     
   9 O9            -1.1175     3.5433     0.0582 O.3     
  10 C10            3.1301    -0.3588    -1.9377 C.ar    
  11 C11            3.5127    -1.6931    -1.8591 C.ar    
  12 C12            4.4073    -2.2083    -2.7774 C.ar    
  13 C13            4.9216    -1.3981    -3.7735 C.ar    
  14 C14            4.5429    -0.0710    -3.8540 C.ar    
  15 C15            3.6447     0.4496    -2.9423 C.ar    
  16 N16            5.8801    -1.9532    -4.7553 N.pl3   
  17 O17            6.2151    -3.1221    -4.6854 O.2     
  18 O18            6.3339    -1.2410    -5.6330 O.2     
  19 Cl19           2.8679    -2.7101    -0.6087 Cl      
  20 C20           -2.3945     4.2344     0.0664 C.3     
  21 C21           -3.1972     3.8081     1.2972 C.3     
  22 C22           -2.1565     5.7451     0.1109 C.3     
  23 C23           -3.1753     3.8782    -1.2002 C.3     
  24 H24            0.3540    -0.3713     0.9153 H       
  25 H25           -1.0311    -0.3267    -0.2073 H       
  26 H26            0.9850    -1.5244    -1.1492 H       
  27 H27            0.4693    -0.1286    -2.1268 H       
  28 H28            3.1662     2.0444    -1.0402 H       
  29 H29            1.7160     1.9112    -2.0646 H       
  30 H30            1.1551     3.2504    -0.0981 H       
  31 H31            1.7966     1.9891     0.9873 H       
  32 H32            4.7056    -3.2446    -2.7171 H       
  33 H33            4.9468     0.5588    -4.6329 H       
  34 H34            3.3464     1.4855    -3.0086 H       
  35 H35           -2.6409     4.0619     2.1996 H       
  36 H36           -4.1558     4.3269     1.3034 H       
  37 H37           -3.3667     2.7318     1.2656 H       
  38 H38           -1.5846     6.0488    -0.7659 H       
  39 H39           -3.1151     6.2639     0.1171 H       
  40 H40           -1.6002     5.9989     1.0133 H       
  41 H41           -3.3449     2.8019    -1.2318 H       
  42 H42           -4.1339     4.3970    -1.1940 H       
  43 H43           -2.6035     4.1819    -2.0770 H       
@<TRIPOS>BOND
   1    1    2 1
   2    1    6 1
   3    1    7 am
   4    2    3 1
   5    2   24 1
   6    2   25 1
   7    3    4 1
   8    3   26 1
   9    3   27 1
  10    4    5 1
  11    4   10 1
  12    5    6 1
  13    5   28 1
  14    5   29 1
  15    6   30 1
  16    6   31 1
  17    7    8 2
  18    7    9 1
  19    9   20 1
  20   10   11 ar
  21   10   15 ar
  22   11   12 ar
  23   11   19 1
  24   12   13 ar
  25   12   32 1
  26   13   14 ar
  27   13   16 1
  28   14   15 ar
  29   14   33 1
  30   15   34 1
  31   16   17 2
  32   16   18 2
  33   20   21 1
  34   20   23 1
  35   20   22 1
  36   21   35 1
  37   21   36 1
  38   21   37 1
  39   22   38 1
  40   22   39 1
  41   22   40 1
  42   23   41 1
  43   23   42 1
  44   23   43 1

#	End of record

