#	Name: ASD01240008
#	Creating user name:	WinNT
#	Creation time:	15. 06. 2019 19:15

#	Modifying user name:	WinNT
#	Modification time:	15. 06. 2019 19:15

#	Program:	/corina/corina34_cracker 3.40 0067  02.08.2006

@<TRIPOS>MOLECULE
ASD01240008
   5    4    0    0    0
SMALL
NO_CHARGES


@<TRIPOS>ATOM
   1 P1            -0.0193     1.5733     0.0107 P.3     
   2 O2             0.0021    -0.0041     0.0020 O.3     
   3 O3             1.4606     2.1193    -0.0005 O.3     
   4 O4            -0.7823     2.0958    -1.2673 O.2     
   5 O5            -0.7577     2.0820     1.3086 O.3     
@<TRIPOS>BOND
   1    1    2 1
   2    1    3 1
   3    1    4 2
   4    1    5 1

#	End of record

