#	Name: ASD03091537
#	Creating user name:	WinNT
#	Creation time:	15. 06. 2019 20:30

#	Modifying user name:	WinNT
#	Modification time:	15. 06. 2019 20:30

#	Program:	/corina/corina34_cracker 3.40 0067  02.08.2006

@<TRIPOS>MOLECULE
ASD03091537
  46   47    0    0    0
SMALL
NO_CHARGES


@<TRIPOS>ATOM
   1 C1            -0.0167     1.3824     0.0096 C.ar    
   2 C2             0.0021    -0.0041     0.0020 C.ar    
   3 C3             1.2046    -0.6815    -0.0131 C.ar    
   4 C4             2.4062     0.0180    -0.0204 C.ar    
   5 C5             2.4068     1.3992    -0.0129 C.ar    
   6 C6             1.1923     2.0960     0.0019 C.ar    
   7 C7             1.1833     3.5639     0.0094 C.2     
   8 O8             0.1292     4.1639     0.0223 O.2     
   9 C9             2.4837     4.3254     0.0011 C.3     
  10 C10            2.1950     5.8279     0.0114 C.3     
  11 C11            3.4954     6.5894     0.0030 C.ar    
  12 C12            4.1087     6.9292     1.1990 C.ar    
  13 C13            4.0833     6.9463    -1.2007 C.ar    
  14 C14            5.2811     7.6471    -1.2057 C.ar    
  15 C15            5.8879     7.9888    -0.0123 C.ar    
  16 C16            5.3064     7.6300     1.1887 C.ar    
  17 O17           -1.1994     2.0471     0.0188 O.3     
  18 O18            3.5849    -0.6601    -0.0344 O.3     
  19 O19            3.5372     6.5766     2.3805 O.3     
  20 C20           -2.3888     1.2550     0.0202 C.3     
  21 C21            3.5123    -2.0872    -0.0409 C.3     
  22 C22            4.2244     6.9597     3.5734 C.3     
  23 O23            3.4874     6.6097    -2.3747 O.3     
  24 C24            4.1493     7.0099    -3.5763 C.3     
  25 H25           -0.9266    -0.5553     0.0083 H       
  26 H26            1.2122    -1.7614    -0.0190 H       
  27 H27            3.3415     1.9403    -0.0182 H       
  28 H28            3.0652     4.0611     0.8843 H       
  29 H29            3.0486     4.0701    -0.8955 H       
  30 H30            1.6135     6.0921    -0.8719 H       
  31 H31            1.6302     6.0832     0.9080 H       
  32 H32            5.7394     7.9254    -2.1432 H       
  33 H33            6.8202     8.5339    -0.0183 H       
  34 H34            5.7845     7.8950     2.1201 H       
  35 H35           -2.4106     0.6308    -0.8731 H       
  36 H36           -2.4022     0.6211     0.9068 H       
  37 H37           -3.2608     1.9089     0.0278 H       
  38 H38            2.9887    -2.4285     0.8521 H       
  39 H39            2.9727    -2.4195    -0.9278 H       
  40 H40            4.5202    -2.5022    -0.0520 H       
  41 H41            5.2167     6.5086     3.5819 H       
  42 H42            4.3185     8.0452     3.6059 H       
  43 H43            3.6623     6.6175     4.4424 H       
  44 H44            5.1414     6.5598    -3.6118 H       
  45 H45            3.5693     6.6794    -4.4380 H       
  46 H46            4.2420     8.0958    -3.5957 H       
@<TRIPOS>BOND
   1    1    2 ar
   2    1    6 ar
   3    1   17 1
   4    2    3 ar
   5    2   25 1
   6    3    4 ar
   7    3   26 1
   8    4    5 ar
   9    4   18 1
  10    5    6 ar
  11    5   27 1
  12    6    7 1
  13    7    8 2
  14    7    9 1
  15    9   10 1
  16    9   28 1
  17    9   29 1
  18   10   11 1
  19   10   30 1
  20   10   31 1
  21   11   13 ar
  22   11   12 ar
  23   12   16 ar
  24   12   19 1
  25   13   14 ar
  26   13   23 1
  27   14   15 ar
  28   14   32 1
  29   15   16 ar
  30   15   33 1
  31   16   34 1
  32   17   20 1
  33   18   21 1
  34   19   22 1
  35   20   35 1
  36   20   36 1
  37   20   37 1
  38   21   38 1
  39   21   39 1
  40   21   40 1
  41   22   41 1
  42   22   42 1
  43   22   43 1
  44   23   24 1
  45   24   44 1
  46   24   45 1
  47   24   46 1

#	End of record

