#	Name: ASD05430355
#	Creating user name:	WinNT
#	Creation time:	15. 06. 2019 21:00

#	Modifying user name:	WinNT
#	Modification time:	15. 06. 2019 21:00

#	Program:	/corina/corina34_cracker 3.40 0067  02.08.2006

@<TRIPOS>MOLECULE
ASD05430355
  59   63    0    0    0
SMALL
NO_CHARGES


@<TRIPOS>ATOM
   1 C1            -0.8694    -0.7147     0.9294 C.ar    
   2 C2             0.0296    -0.1021     1.8018 C.ar    
   3 C3            -0.2521     1.1530     2.3262 C.ar    
   4 C4            -1.4213     1.7984     1.9871 C.ar    
   5 C5            -2.3276     1.1900     1.1126 C.ar    
   6 C6            -2.0414    -0.0708     0.5803 C.ar    
   7 C7            -4.7126     1.1717     0.5909 C.2     
   8 C8            -3.5775     1.8777     0.7495 C.2     
   9 N9            -7.1642     1.2895     0.5340 N.am    
  10 C10           -5.9476     1.7778     0.0536 C.2     
  11 C11           -8.6527     3.1650     0.9856 C.ar    
  12 C12           -9.7662     3.9555     0.7700 C.ar    
  13 C13           -7.7730     3.4719     2.0068 C.ar    
  14 C14           -8.0059     4.5694     2.8137 C.ar    
  15 C15           -9.1207     5.3619     2.5987 C.ar    
  16 C16          -10.0009     5.0538     1.5753 C.ar    
  17 F17           -9.3497     6.4348     3.3872 F       
  18 O18           -0.5902    -1.9430     0.4177 O.3     
  19 C19           -1.5557    -2.5109    -0.4696 C.3     
  20 C20            2.4830    -0.2234     2.1078 C.2     
  21 N21            1.2198    -0.7544     2.1508 N.pl3   
  22 C22            3.3257    -1.1872     2.5254 C.2     
  23 N23            2.6024    -2.2786     2.8166 N.2     
  24 C24            1.3397    -2.0320     2.5964 C.2     
  25 C25            4.8227    -1.0615     2.6444 C.3     
  26 C26           -8.4012     1.9641     0.1106 C.3     
  27 C27           -8.2162     2.4118    -1.3464 C.3     
  28 O28           -7.0655     3.2596    -1.4177 O.3     
  29 N29           -5.8969     2.7081    -0.8442 N.2     
  30 C30           -9.5802     0.9940     0.2089 C.3     
  31 C31           -7.2112     0.2331     1.3613 C.2     
  32 O32           -8.3021    -0.1706     1.7045 O.2     
  33 C33           -4.8053    -0.3023     0.9470 C.3     
  34 C34           -6.0024    -0.4827     1.8841 C.3     
  35 H35            0.4468     1.6239     3.0015 H       
  36 H36           -1.6380     2.7738     2.3968 H       
  37 H37           -2.7385    -0.5441    -0.0953 H       
  38 H38           -3.5838     2.9487     0.6104 H       
  39 H39          -10.4526     3.7149    -0.0283 H       
  40 H40           -6.9034     2.8536     2.1743 H       
  41 H41           -7.3189     4.8086     3.6119 H       
  42 H42          -10.8707     5.6714     1.4065 H       
  43 H43           -1.2106    -3.4892    -0.8041 H       
  44 H44           -2.5075    -2.6196     0.0505 H       
  45 H45           -1.6856    -1.8570    -1.3320 H       
  46 H46            2.7512     0.7748     1.7947 H       
  47 H47            0.5265    -2.7272     2.7437 H       
  48 H48            5.0791    -0.7031     3.6414 H       
  49 H49            5.2834    -2.0354     2.4788 H       
  50 H50            5.1884    -0.3551     1.8992 H       
  51 H51           -8.0679     1.5388    -1.9819 H       
  52 H52           -9.0977     2.9624    -1.6752 H       
  53 H53           -9.8483     0.8529     1.2559 H       
  54 H54          -10.4332     1.4028    -0.3328 H       
  55 H55           -9.2990     0.0351    -0.2266 H       
  56 H56           -4.9526    -0.8921     0.0422 H       
  57 H57           -3.8916    -0.6187     1.4501 H       
  58 H58           -5.7496    -0.0861     2.8674 H       
  59 H59           -6.2279    -1.5452     1.9755 H       
@<TRIPOS>BOND
   1    1    2 ar
   2    1   18 1
   3    1    6 ar
   4    2    3 ar
   5    2   21 1
   6    3    4 ar
   7    3   35 1
   8    4    5 ar
   9    4   36 1
  10    5    6 ar
  11    5    8 1
  12    6   37 1
  13    7    8 2
  14    7   33 1
  15    7   10 1
  16    8   38 1
  17    9   10 1
  18    9   26 1
  19    9   31 am
  20   10   29 2
  21   11   12 ar
  22   11   13 ar
  23   11   26 1
  24   12   16 ar
  25   12   39 1
  26   13   14 ar
  27   13   40 1
  28   14   15 ar
  29   14   41 1
  30   15   16 ar
  31   15   17 1
  32   16   42 1
  33   18   19 1
  34   19   43 1
  35   19   44 1
  36   19   45 1
  37   20   21 1
  38   20   22 2
  39   20   46 1
  40   21   24 1
  41   22   23 1
  42   22   25 1
  43   23   24 2
  44   24   47 1
  45   25   48 1
  46   25   49 1
  47   25   50 1
  48   26   27 1
  49   26   30 1
  50   27   28 1
  51   27   51 1
  52   27   52 1
  53   28   29 1
  54   30   53 1
  55   30   54 1
  56   30   55 1
  57   31   32 2
  58   31   34 1
  59   33   34 1
  60   33   56 1
  61   33   57 1
  62   34   58 1
  63   34   59 1

#	End of record

