#	Name: ASD01148029
#	Creating user name:	WinNT
#	Creation time:	15. 06. 2019 19:01

#	Modifying user name:	WinNT
#	Modification time:	15. 06. 2019 19:01

#	Program:	/corina/corina34_cracker 3.40 0067  02.08.2006

@<TRIPOS>MOLECULE
ASD01148029
  37   37    0    0    0
SMALL
NO_CHARGES


@<TRIPOS>ATOM
   1 C1            -0.0184     1.5028     0.0103 C.2     
   2 C2             0.0021    -0.0041     0.0020 C.3     
   3 C3            -0.2550    -0.5098    -1.4189 C.3     
   4 O4             1.0236     2.1234     0.0037 O.2     
   5 N5            -1.1946     2.1607     0.0195 N.am    
   6 N6             1.3109    -0.4772     0.4594 N.am    
   7 S7             1.5373    -0.8768     2.0505 S.o2    
   8 O8             2.9039    -1.2588     2.1249 O.2     
   9 O9             1.0514     0.2499     2.7673 O.2     
  10 C10            0.4599    -2.3121     2.3144 C.3     
  11 C11           -1.2145     3.6256     0.0275 C.3     
  12 C12           -2.6419     4.1085     0.0369 C.ar    
  13 C13           -3.2905     4.3234     1.2387 C.ar    
  14 C14           -4.5994     4.7667     1.2486 C.ar    
  15 C15           -5.2612     4.9957     0.0542 C.ar    
  16 C16           -4.6106     4.7802    -1.1489 C.ar    
  17 C17           -3.3000     4.3419    -1.1563 C.ar    
  18 F18           -6.5409     5.4287     0.0626 F       
  19 O19           -0.3515    -1.9355    -1.4069 O.3     
  20 C20           -0.5922    -2.5126    -2.6919 C.3     
  21 F21           -1.7975    -2.0216    -3.2052 F       
  22 F22            0.4544    -2.1769    -3.5574 F       
  23 H23           -0.7738    -0.3816     0.6680 H       
  24 H24           -1.1871    -0.0857    -1.7924 H       
  25 H25            0.5674    -0.2067    -2.0668 H       
  26 H26           -2.0280     1.6644     0.0207 H       
  27 H27            2.0450    -0.5565    -0.1697 H       
  28 H28            0.7594    -3.1191     1.6456 H       
  29 H29            0.5464    -2.6461     3.3483 H       
  30 H30           -0.5735    -2.0336     2.1078 H       
  31 H31           -0.7014     3.9910     0.9171 H       
  32 H32           -0.7098     4.0007    -0.8628 H       
  33 H33           -2.7742     4.1443     2.1703 H       
  34 H34           -5.1060     4.9341     2.1876 H       
  35 H35           -5.1259     4.9584    -2.0812 H       
  36 H36           -2.7910     4.1776    -2.0945 H       
  37 H37           -0.6522    -3.5968    -2.5977 H       
@<TRIPOS>BOND
   1    1    2 1
   2    1    4 2
   3    1    5 am
   4    2    3 1
   5    2    6 1
   6    2   23 1
   7    3   19 1
   8    3   24 1
   9    3   25 1
  10    5   11 1
  11    5   26 1
  12    6    7 am
  13    6   27 1
  14    7    8 2
  15    7    9 2
  16    7   10 1
  17   10   28 1
  18   10   29 1
  19   10   30 1
  20   11   12 1
  21   11   31 1
  22   11   32 1
  23   12   13 ar
  24   12   17 ar
  25   13   14 ar
  26   13   33 1
  27   14   15 ar
  28   14   34 1
  29   15   16 ar
  30   15   18 1
  31   16   17 ar
  32   16   35 1
  33   17   36 1
  34   19   20 1
  35   20   21 1
  36   20   22 1
  37   20   37 1

#	End of record

