#	Name: ASD01410753
#	Creating user name:	WinNT
#	Creation time:	15. 06. 2019 19:18

#	Modifying user name:	WinNT
#	Modification time:	15. 06. 2019 19:18

#	Program:	/corina/corina34_cracker 3.40 0067  02.08.2006

@<TRIPOS>MOLECULE
ASD01410753
 100  106    0    0    0
SMALL
NO_CHARGES


@<TRIPOS>ATOM
   1 C1             0.4477    -0.2904     1.2904 C.3     
   2 C2             0.0408    -1.2813     2.4109 C.3     
   3 N3            -0.4246    -0.4686     3.5432 N.am    
   4 C4            -0.6077     0.9255     3.0819 C.3     
   5 C5            -0.4885     0.9141     1.5464 C.3     
   6 O6             1.8172     0.0942     1.4267 O.3     
   7 C7            -1.9704     1.4254     3.4871 C.2     
   8 O8            -2.9111     0.6607     3.5221 O.2     
   9 N9            -2.1438     2.7222     3.8107 N.am    
  10 C10           -3.4420     3.1864     4.3059 C.3     
  11 C11           -4.5805     3.1033     3.3220 C.2     
  12 N12           -4.3610     3.3485     2.0151 N.am    
  13 O13           -5.6943     2.8157     3.7063 O.2     
  14 S14           -5.6315     3.3778     0.9533 S.o2    
  15 C15           -6.6302     4.7970     1.4815 C.3     
  16 C16           -3.7641     2.9410     5.7814 C.3     
  17 C17           -3.4447     4.3559     5.2923 C.3     
  18 C18           -7.9603     5.0314     0.7627 C.3     
  19 C19           -7.9494     4.5045     2.1991 C.3     
  20 O20           -5.0285     3.6340    -0.3076 O.2     
  21 O21           -6.3232     2.1615     1.2010 O.2     
  22 C22           -5.2174     2.6306     6.1451 C.3     
  23 C23           -5.3100     2.2963     7.6353 C.3     
  24 C24            2.4422     0.5508     0.3131 C.ar    
  25 C25            3.8082     0.9166     0.3457 C.ar    
  26 C26            1.7688     0.6646    -0.8747 C.ar    
  27 C27            2.4375     1.1392    -2.0113 C.ar    
  28 N28            3.7136     1.4834    -1.9692 N.ar    
  29 C29            4.4231     1.3890    -0.8401 C.ar    
  30 C30            1.6997     1.2572    -3.2864 C.2     
  31 C31            5.7791     1.7586    -0.8079 C.ar    
  32 C32            6.4854     1.6512     0.3693 C.ar    
  33 C33            5.8693     1.1785     1.5316 C.ar    
  34 C34            4.5564     0.8190     1.5278 C.ar    
  35 Cl35           6.5584     2.3463    -2.2435 Cl      
  36 O36            7.7960     2.0082     0.4013 O.3     
  37 C37            8.4746     1.8740     1.6518 C.3     
  38 N38            2.1990     1.6818    -4.4120 N.2     
  39 C39            1.3936     1.7197    -5.4459 C.2     
  40 C40            0.1373     1.3131    -5.2223 C.2     
  41 S41            0.0057     0.8389    -3.5298 S.3     
  42 C42            1.8528     2.1920    -6.8013 C.3     
  43 C43            2.2674     0.9868    -7.6478 C.3     
  44 C44            0.7101     2.9348    -7.4967 C.3     
  45 C45            1.2801    -2.0869     2.7743 C.3     
  46 C46            1.0213    -3.1471     3.8009 C.3     
  47 N47            0.8828    -2.6575     5.1506 N.3     
  48 C48           -0.4308    -2.1367     5.4798 C.3     
  49 C49           -0.7221    -0.8603     4.7755 C.2     
  50 C50           -1.4875    -3.1718     5.0888 C.3     
  51 C51           -1.1752    -4.5034     5.7745 C.3     
  52 C52           -2.8684    -2.6825     5.5298 C.3     
  53 O53           -1.3305    -0.0441     5.4348 O.2     
  54 H54            0.2654    -0.7231     0.3067 H       
  55 H55           -0.7577    -1.9371     2.0637 H       
  56 H56            0.1664     1.5627     3.5095 H       
  57 H57           -0.0368     1.8385     1.1866 H       
  58 H58           -1.4622     0.7524     1.0840 H       
  59 H59           -1.4089     3.3482     3.7156 H       
  60 H60           -3.4588     3.5079     1.6964 H       
  61 H61           -6.0681     5.6752     1.7990 H       
  62 H62           -3.0100     2.4342     6.3836 H       
  63 H63           -2.4806     4.7799     5.5731 H       
  64 H64           -4.2701     5.0651     5.2299 H       
  65 H65           -8.2735     6.0639     0.6077 H       
  66 H66           -8.2353     4.3328    -0.0275 H       
  67 H67           -8.2172     3.4593     2.3538 H       
  68 H68           -8.2554     5.1903     2.9891 H       
  69 H69           -5.8397     3.4988     5.9281 H       
  70 H70           -5.5646     1.7793     5.5595 H       
  71 H71           -6.3454     2.0752     7.8944 H       
  72 H72           -4.6878     1.4281     7.8522 H       
  73 H73           -4.9628     3.1476     8.2208 H       
  74 H74            0.7262     0.3891    -0.9350 H       
  75 H75            6.4409     1.1014     2.4447 H       
  76 H76            4.0926     0.4557     2.4329 H       
  77 H77            7.9833     2.4958     2.4003 H       
  78 H78            8.4470     0.8319     1.9702 H       
  79 H79            9.5110     2.1921     1.5387 H       
  80 H80           -0.6566     1.2776    -5.9536 H       
  81 H81            2.7036     2.8630    -6.6832 H       
  82 H82            1.4166     0.3158    -7.7659 H       
  83 H83            2.5995     1.3284    -8.6282 H       
  84 H84            3.0815     0.4577    -7.1524 H       
  85 H85            1.0423     3.2764    -8.4770 H       
  86 H86           -0.1407     2.2638    -7.6147 H       
  87 H87            0.4148     3.7934    -6.8936 H       
  88 H88            1.6656    -2.5612     1.8718 H       
  89 H89            2.0391    -1.4058     3.1592 H       
  90 H90            0.1064    -3.6739     3.5296 H       
  91 H91            1.8454    -3.8601     3.7756 H       
  92 H92            1.1735    -3.3545     5.8197 H       
  93 H93           -0.4849    -1.9675     6.5552 H       
  94 H94           -1.4789    -3.3091     4.0075 H       
  95 H95           -0.1914    -4.8519     5.4603 H       
  96 H96           -1.1838    -4.3660     6.8558 H       
  97 H97           -1.9280    -5.2408     5.4959 H       
  98 H98           -3.0909    -1.7338     5.0413 H       
  99 H99           -3.6212    -3.4199     5.2513 H       
 100 H100          -2.8770    -2.5451     6.6111 H       
@<TRIPOS>BOND
   1    1    2 1
   2    1    6 1
   3    1    5 1
   4    1   54 1
   5    2    3 1
   6    2   45 1
   7    2   55 1
   8    3    4 1
   9    3   49 am
  10    4    5 1
  11    4    7 1
  12    4   56 1
  13    5   57 1
  14    5   58 1
  15    6   24 1
  16    7    8 2
  17    7    9 am
  18    9   10 1
  19    9   59 1
  20   10   11 1
  21   10   16 1
  22   10   17 1
  23   11   12 am
  24   11   13 2
  25   12   14 am
  26   12   60 1
  27   14   15 1
  28   14   20 2
  29   14   21 2
  30   15   18 1
  31   15   19 1
  32   15   61 1
  33   16   17 1
  34   16   22 1
  35   16   62 1
  36   17   63 1
  37   17   64 1
  38   18   19 1
  39   18   65 1
  40   18   66 1
  41   19   67 1
  42   19   68 1
  43   22   23 1
  44   22   69 1
  45   22   70 1
  46   23   71 1
  47   23   72 1
  48   23   73 1
  49   24   25 ar
  50   24   26 ar
  51   25   29 ar
  52   25   34 ar
  53   26   27 ar
  54   26   74 1
  55   27   28 ar
  56   27   30 1
  57   28   29 ar
  58   29   31 ar
  59   30   38 2
  60   30   41 1
  61   31   32 ar
  62   31   35 1
  63   32   33 ar
  64   32   36 1
  65   33   34 ar
  66   33   75 1
  67   34   76 1
  68   36   37 1
  69   37   77 1
  70   37   78 1
  71   37   79 1
  72   38   39 1
  73   39   40 2
  74   39   42 1
  75   40   41 1
  76   40   80 1
  77   42   43 1
  78   42   44 1
  79   42   81 1
  80   43   82 1
  81   43   83 1
  82   43   84 1
  83   44   85 1
  84   44   86 1
  85   44   87 1
  86   45   46 1
  87   45   88 1
  88   45   89 1
  89   46   47 1
  90   46   90 1
  91   46   91 1
  92   47   48 1
  93   47   92 1
  94   48   49 1
  95   48   50 1
  96   48   93 1
  97   49   53 2
  98   50   51 1
  99   50   52 1
 100   50   94 1
 101   51   95 1
 102   51   96 1
 103   51   97 1
 104   52   98 1
 105   52   99 1
 106   52  100 1

#	End of record

