#	Name: ASD01122051
#	Creating user name:	WinNT
#	Creation time:	15. 06. 2019 18:59

#	Modifying user name:	WinNT
#	Modification time:	15. 06. 2019 18:59

#	Program:	/corina/corina34_cracker 3.40 0067  02.08.2006

@<TRIPOS>MOLECULE
ASD01122051
  46   48    0    0    0
SMALL
NO_CHARGES


@<TRIPOS>ATOM
   1 C1            -0.0006     1.4569     0.0404 C.3     
   2 C2             0.0307    -0.0512    -0.0434 C.2     
   3 C3             1.2125    -0.6800    -0.1161 C.2     
   4 C4             2.4731     0.0777    -0.1153 C.2     
   5 C5             2.4665     1.5387    -0.0349 C.2     
   6 N6             1.5883    -2.0180    -0.2017 N.pl3   
   7 C7             2.9536    -2.0446    -0.2474 C.2     
   8 N8             3.4516    -0.8184    -0.1962 N.2     
   9 N9             3.6797     2.2398    -0.0357 N.pl3   
  10 P10            4.1665    -7.1890    -0.5680 P.3     
  11 O11            4.1735    -7.7897     0.8789 O.co2   
  12 O12            5.3760    -7.7666    -1.3791 O.co2   
  13 O13            2.8269    -7.5704    -1.2853 O.co2   
  14 C14            0.6913    -3.1758    -0.2362 C.3     
  15 C15            3.7569    -3.2629    -0.3402 C.2     
  16 C16            5.1342    -3.3267    -0.3883 C.2     
  17 C17            5.4680    -4.6858    -0.4732 C.2     
  18 C18            4.3089    -5.3831    -0.4737 C.2     
  19 O19            3.2835    -4.5257    -0.3883 O.3     
  20 C20            0.2161    -3.4102    -1.6716 C.3     
  21 C21            1.4097    -3.7966    -2.5473 C.3     
  22 C22           -0.8161    -4.5394    -1.6891 C.3     
  23 C23           -1.2531    -0.8405    -0.0446 C.3     
  24 C24           -1.6924    -1.1021     1.3974 C.3     
  25 C25            1.3044     2.2156     0.0398 C.2     
  26 F26            1.3068     3.5646     0.1134 F       
  27 H27           -0.5923     1.8204    -0.7997 H       
  28 H28           -0.5356     1.7243     0.9517 H       
  29 H29            4.5191     1.7565    -0.0894 H       
  30 H30            3.6802     3.2083     0.0174 H       
  31 H31            1.2234    -4.0583     0.1190 H       
  32 H32           -0.1695    -2.9878     0.4054 H       
  33 H33            5.8207    -2.4932    -0.3651 H       
  34 H34            6.4644    -5.0988    -0.5283 H       
  35 H35           -0.2375    -2.4974    -2.0577 H       
  36 H36            1.8633    -4.7094    -2.1611 H       
  37 H37            1.0711    -3.9635    -3.5699 H       
  38 H38            2.1450    -2.9921    -2.5348 H       
  39 H39           -1.6664    -4.2642    -1.0652 H       
  40 H40           -1.1546    -4.7064    -2.7116 H       
  41 H41           -0.3625    -5.4523    -1.3029 H       
  42 H42           -2.0270    -0.2746    -0.5632 H       
  43 H43           -1.0948    -1.7909    -0.5543 H       
  44 H44           -1.8507    -0.1517     1.9071 H       
  45 H45           -2.6209    -1.6730     1.3965 H       
  46 H46           -0.9185    -1.6680     1.9160 H       
@<TRIPOS>BOND
   1    1    2 1
   2    1   25 1
   3    1   27 1
   4    1   28 1
   5    2    3 2
   6    2   23 1
   7    3    4 1
   8    3    6 1
   9    4    5 2
  10    4    8 1
  11    5    9 1
  12    5   25 2
  13    6    7 1
  14    6   14 1
  15    7    8 2
  16    7   15 1
  17    9   29 1
  18    9   30 1
  19   10   11 ar
  20   10   12 ar
  21   10   13 ar
  22   10   18 1
  23   14   20 1
  24   14   31 1
  25   14   32 1
  26   15   16 2
  27   15   19 1
  28   16   17 1
  29   16   33 1
  30   17   18 2
  31   17   34 1
  32   18   19 1
  33   20   21 1
  34   20   22 1
  35   20   35 1
  36   21   36 1
  37   21   37 1
  38   21   38 1
  39   22   39 1
  40   22   40 1
  41   22   41 1
  42   23   24 1
  43   23   42 1
  44   23   43 1
  45   24   44 1
  46   24   45 1
  47   24   46 1
  48   25   26 1

#	End of record

