#	Name: ASD01870696
#	Creating user name:	WinNT
#	Creation time:	15. 06. 2019 19:39

#	Modifying user name:	WinNT
#	Modification time:	15. 06. 2019 19:39

#	Program:	/corina/corina34_cracker 3.40 0067  02.08.2006

@<TRIPOS>MOLECULE
ASD01870696
  46   49    0    0    0
SMALL
NO_CHARGES


@<TRIPOS>ATOM
   1 C1            -0.0365     1.5084    -0.0077 C.3     
   2 C2             0.0046    -0.0218    -0.0086 C.3     
   3 N3             0.9776    -0.4714     0.9986 N.am    
   4 C4             2.3936    -0.1302     0.7892 C.3     
   5 C5             1.3856     2.0449    -0.0088 C.2     
   6 C6             0.5844    -1.1737     2.0797 C.2     
   7 C7             1.5929    -1.7270     3.0086 C.ar    
   8 O8            -0.5992    -1.3521     2.2911 O.2     
   9 C9             1.7433     3.3966    -0.3915 C.2     
  10 C10            2.4559     1.3200     0.3465 C.2     
  11 S11            3.9218     2.2780     0.2273 S.3     
  12 C12            3.0719     3.6526    -0.3091 C.2     
  13 C13            0.7832     4.3700    -0.8175 C.1     
  14 N14            0.0216     5.1421    -1.1554 N.1     
  15 C15            3.7107     4.9750    -0.6471 C.3     
  16 N16            3.7570     5.8156     0.5518 N.pl3   
  17 C17            4.3094     7.0968     0.4855 C.ar    
  18 C18            1.3267    -1.7865     4.3776 C.ar    
  19 C19            2.2708    -2.3042     5.2400 C.ar    
  20 C20            3.4807    -2.7640     4.7517 C.ar    
  21 C21            3.7525    -2.7083     3.3942 C.ar    
  22 C22            2.8122    -2.1972     2.5196 C.ar    
  23 C23            4.8101     7.5776    -0.7177 C.ar    
  24 C24            4.3542     7.8951     1.6214 C.ar    
  25 C25            4.9011     9.1614     1.5524 C.ar    
  26 C26            5.4034     9.6349     0.3542 C.ar    
  27 C27            5.3556     8.8448    -0.7797 C.ar    
  28 F28            4.9362    -3.1591     2.9242 F       
  29 H29           -0.5590     1.8593    -0.8977 H       
  30 H30           -0.5573     1.8584     0.8835 H       
  31 H31           -0.9825    -0.4137     0.2367 H       
  32 H32            0.3070    -0.3784    -0.9932 H       
  33 H33            2.9460    -0.2567     1.7203 H       
  34 H34            2.8180    -0.7713     0.0165 H       
  35 H35            4.7238     4.8064    -1.0121 H       
  36 H36            3.1250     5.4747    -1.4188 H       
  37 H37            3.4041     5.4824     1.3917 H       
  38 H38            0.3831    -1.4275     4.7611 H       
  39 H39            2.0649    -2.3503     6.2992 H       
  40 H40            4.2166    -3.1676     5.4314 H       
  41 H41            3.0224    -2.1579     1.4610 H       
  42 H42            4.7731     6.9610    -1.6036 H       
  43 H43            3.9614     7.5262     2.5574 H       
  44 H44            4.9362     9.7826     2.4351 H       
  45 H45            5.8299    10.6258     0.3028 H       
  46 H46            5.7450     9.2192    -1.7149 H       
@<TRIPOS>BOND
   1    1    2 1
   2    1    5 1
   3    1   29 1
   4    1   30 1
   5    2    3 1
   6    2   31 1
   7    2   32 1
   8    3    4 1
   9    3    6 am
  10    4   10 1
  11    4   33 1
  12    4   34 1
  13    5   10 2
  14    5    9 1
  15    6    7 1
  16    6    8 2
  17    7   18 ar
  18    7   22 ar
  19    9   12 2
  20    9   13 1
  21   10   11 1
  22   11   12 1
  23   12   15 1
  24   13   14 3
  25   15   16 1
  26   15   35 1
  27   15   36 1
  28   16   17 1
  29   16   37 1
  30   17   24 ar
  31   17   23 ar
  32   18   19 ar
  33   18   38 1
  34   19   20 ar
  35   19   39 1
  36   20   21 ar
  37   20   40 1
  38   21   22 ar
  39   21   28 1
  40   22   41 1
  41   23   27 ar
  42   23   42 1
  43   24   25 ar
  44   24   43 1
  45   25   26 ar
  46   25   44 1
  47   26   27 ar
  48   26   45 1
  49   27   46 1

#	End of record

