#	Name: ASD00170936
#	Creating user name:	WinNT
#	Creation time:	15. 06. 2019 18:32

#	Modifying user name:	WinNT
#	Modification time:	15. 06. 2019 18:32

#	Program:	/corina/corina34_cracker 3.40 0067  02.08.2006

@<TRIPOS>MOLECULE
ASD00170936
  53   57    0    0    0
SMALL
NO_CHARGES


@<TRIPOS>ATOM
   1 C1            -1.5883    -1.3531    -3.6453 C.ar    
   2 C2            -1.0544    -1.8418    -2.4643 C.ar    
   3 C3            -1.7255    -1.6595    -1.2736 C.ar    
   4 C4            -2.9454    -0.9807    -1.2600 C.ar    
   5 C5            -3.4785    -0.4904    -2.4535 C.ar    
   6 C6            -2.7956    -0.6743    -3.6373 C.ar    
   7 C7            -3.6703    -0.7823     0.0136 C.2     
   8 O8            -3.2535    -1.2930     1.0374 O.2     
   9 C9            -4.8881     0.0275     0.0435 C.2     
  10 C10           -6.2202    -0.5210    -0.1001 C.2     
  11 C11           -7.1716     0.3977    -0.0411 C.2     
  12 S12           -6.4862     1.9954     0.1951 S.3     
  13 C13           -4.8922     1.3922     0.2171 C.2     
  14 N14           -3.7615     2.1667     0.3795 N.pl3   
  15 C15           -6.4961    -1.9894    -0.2969 C.3     
  16 N16           -6.4267    -2.6786     0.9985 N.3     
  17 Cl17          -0.7373    -1.5861    -5.1404 Cl      
  18 C18           -7.5109    -2.2350     1.8910 C.3     
  19 C19           -7.4651    -3.0789     3.1439 C.2     
  20 N20           -6.7627    -4.2637     3.2336 N.pl3   
  21 C21           -5.9924    -4.8229     2.1121 C.3     
  22 C22           -6.4520    -4.1371     0.8211 C.3     
  23 C23           -8.0743    -2.8154     4.3101 C.2     
  24 C24           -7.7422    -3.9029     5.2154 C.ar    
  25 C25           -6.9113    -4.7881     4.4840 C.ar    
  26 C26           -8.0905    -4.1604     6.5449 C.ar    
  27 C27           -7.5825    -5.3217     7.1087 C.ar    
  28 C28           -6.7675    -6.1882     6.3903 C.ar    
  29 C29           -6.4128    -5.9479     5.0751 C.ar    
  30 O30           -7.8901    -5.6200     8.3993 O.3     
  31 C31           -7.3428    -6.8267     8.9344 C.3     
  32 H32           -0.1108    -2.3671    -2.4761 H       
  33 H33           -1.3085    -2.0413    -0.3534 H       
  34 H34           -4.4220     0.0351    -2.4491 H       
  35 H35           -3.2070    -0.2955    -4.5612 H       
  36 H36           -8.2283     0.1914    -0.1268 H       
  37 H37           -3.8362     3.1333     0.4118 H       
  38 H38           -2.8920     1.7445     0.4613 H       
  39 H39           -7.4905    -2.1182    -0.7242 H       
  40 H40           -5.7526    -2.4113    -0.9732 H       
  41 H41           -7.3688    -1.1856     2.1490 H       
  42 H42           -8.4725    -2.3654     1.3946 H       
  43 H43           -4.9297    -4.6371     2.2678 H       
  44 H44           -6.1717    -5.8958     2.0424 H       
  45 H45           -7.4669    -4.4554     0.5829 H       
  46 H46           -5.7847    -4.4151     0.0054 H       
  47 H47           -8.6929    -1.9587     4.5335 H       
  48 H48           -8.7235    -3.4883     7.1053 H       
  49 H49           -6.3976    -7.0792     6.8758 H       
  50 H50           -5.7786    -6.6305     4.5291 H       
  51 H51           -6.2545    -6.7805     8.8959 H       
  52 H52           -7.6651    -6.9444     9.9691 H       
  53 H53           -7.6914    -7.6758     8.3465 H       
@<TRIPOS>BOND
   1    1    2 ar
   2    1   17 1
   3    1    6 ar
   4    2    3 ar
   5    2   32 1
   6    3    4 ar
   7    3   33 1
   8    4    5 ar
   9    4    7 1
  10    5    6 ar
  11    5   34 1
  12    6   35 1
  13    7    8 2
  14    7    9 1
  15    9   10 1
  16    9   13 2
  17   10   11 2
  18   10   15 1
  19   11   12 1
  20   11   36 1
  21   12   13 1
  22   13   14 1
  23   14   37 1
  24   14   38 1
  25   15   16 1
  26   15   39 1
  27   15   40 1
  28   16   18 1
  29   16   22 1
  30   18   19 1
  31   18   41 1
  32   18   42 1
  33   19   20 1
  34   19   23 2
  35   20   21 1
  36   20   25 1
  37   21   22 1
  38   21   43 1
  39   21   44 1
  40   22   45 1
  41   22   46 1
  42   23   24 1
  43   23   47 1
  44   24   25 ar
  45   24   26 ar
  46   25   29 ar
  47   26   27 ar
  48   26   48 1
  49   27   28 ar
  50   27   30 1
  51   28   29 ar
  52   28   49 1
  53   29   50 1
  54   30   31 1
  55   31   51 1
  56   31   52 1
  57   31   53 1

#	End of record

