#	Name: ASD01810809
#	Creating user name:	WinNT
#	Creation time:	15. 06. 2019 19:25

#	Modifying user name:	WinNT
#	Modification time:	15. 06. 2019 19:25

#	Program:	/corina/corina34_cracker 3.40 0067  02.08.2006

@<TRIPOS>MOLECULE
ASD01810809
  59   63    0    0    0
SMALL
NO_CHARGES


@<TRIPOS>ATOM
   1 C1             0.0455     1.1745    -0.1631 C.ar    
   2 C2             0.1590    -0.2148    -0.0823 C.ar    
   3 C3            -1.0542    -1.0600    -0.0942 C.2     
   4 N4            -2.1461    -0.6815     0.5994 N.am    
   5 O5            -1.0668    -2.0962    -0.7295 O.2     
   6 C6            -2.1079     0.5033     1.4675 C.3     
   7 C7             1.4202    -0.8026     0.0092 C.ar    
   8 C8             2.5534    -0.0032     0.0193 C.ar    
   9 C9             2.4296     1.3788    -0.0615 C.ar    
  10 C10            1.1791     1.9612    -0.1522 C.ar    
  11 N11            3.8202    -0.5874     0.1113 N.pl3   
  12 C12           -2.5812     0.1033     2.8685 C.3     
  13 C13           -3.9575    -0.5583     2.7682 C.3     
  14 C14           -3.8560    -1.8235     1.9132 C.3     
  15 C15           -3.3989    -1.4422     0.4970 C.3     
  16 C16           -4.4413    -0.9224     4.1482 C.ar    
  17 C17           -5.6205    -0.3817     4.6294 C.ar    
  18 C18           -6.0695    -0.7110     5.8915 C.ar    
  19 C19           -5.3310    -1.5922     6.6838 C.ar    
  20 C20           -4.1418    -2.1341     6.1919 C.ar    
  21 C21           -3.7073    -1.8003     4.9259 C.ar    
  22 C22           -5.7907    -1.9382     7.9951 C.1     
  23 N23           -6.1555    -2.2127     9.0354 N.1     
  24 C24            3.6626     2.2452    -0.0503 C.3     
  25 C25            3.9400    -1.9435     0.3416 C.2     
  26 N26            2.9558    -2.8109     0.4050 N.2     
  27 O27            5.0870    -2.6198     0.5365 O.3     
  28 C28            4.7392    -3.9126     0.7212 C.2     
  29 N29            3.4331    -3.9837     0.6329 N.2     
  30 C30            5.6613    -5.0388     0.9727 C.ar    
  31 C31            5.1762    -6.3408     1.1487 C.ar    
  32 C32            7.0455    -4.8355     1.0360 C.ar    
  33 C33            7.8694    -5.9157     1.2725 C.ar    
  34 N34            7.3699    -7.1260     1.4374 N.ar    
  35 C35            6.0729    -7.3624     1.3809 C.ar    
  36 H36           -0.9293     1.6332    -0.2385 H       
  37 H37           -1.0881     0.8842     1.5212 H       
  38 H38           -2.7669     1.2726     1.0650 H       
  39 H39            1.5141    -1.8766     0.0723 H       
  40 H40            1.0891     3.0356    -0.2148 H       
  41 H41            4.6150    -0.0401     0.0134 H       
  42 H42           -1.8711    -0.5986     3.3058 H       
  43 H43           -2.6494     0.9915     3.4968 H       
  44 H44           -4.6612     0.1354     2.3081 H       
  45 H45           -3.1340    -2.5073     2.3595 H       
  46 H46           -4.8316    -2.3069     1.8614 H       
  47 H47           -4.1647    -0.8325     0.0175 H       
  48 H48           -3.2293    -2.3461    -0.0881 H       
  49 H49           -6.1906     0.3000     4.0156 H       
  50 H50           -6.9899    -0.2880     6.2660 H       
  51 H51           -3.5656    -2.8160     6.7997 H       
  52 H52           -2.7877    -2.2187     4.5442 H       
  53 H53            4.0082     2.3984    -1.0726 H       
  54 H54            3.4256     3.2085     0.4013 H       
  55 H55            4.4456     1.7553     0.5284 H       
  56 H56            4.1160    -6.5417     1.1037 H       
  57 H57            7.4614    -3.8479     0.9013 H       
  58 H58            8.9383    -5.7692     1.3232 H       
  59 H59            5.7084    -8.3692     1.5218 H       
@<TRIPOS>BOND
   1    1    2 ar
   2    1   10 ar
   3    1   36 1
   4    2    3 1
   5    2    7 ar
   6    3    4 am
   7    3    5 2
   8    4    6 1
   9    4   15 1
  10    6   12 1
  11    6   37 1
  12    6   38 1
  13    7    8 ar
  14    7   39 1
  15    8    9 ar
  16    8   11 1
  17    9   10 ar
  18    9   24 1
  19   10   40 1
  20   11   25 1
  21   11   41 1
  22   12   13 1
  23   12   42 1
  24   12   43 1
  25   13   14 1
  26   13   16 1
  27   13   44 1
  28   14   15 1
  29   14   45 1
  30   14   46 1
  31   15   47 1
  32   15   48 1
  33   16   17 ar
  34   16   21 ar
  35   17   18 ar
  36   17   49 1
  37   18   19 ar
  38   18   50 1
  39   19   20 ar
  40   19   22 1
  41   20   21 ar
  42   20   51 1
  43   21   52 1
  44   22   23 3
  45   24   53 1
  46   24   54 1
  47   24   55 1
  48   25   26 2
  49   25   27 1
  50   26   29 1
  51   27   28 1
  52   28   29 2
  53   28   30 1
  54   30   31 ar
  55   30   32 ar
  56   31   35 ar
  57   31   56 1
  58   32   33 ar
  59   32   57 1
  60   33   34 ar
  61   33   58 1
  62   34   35 ar
  63   35   59 1

#	End of record

