#	Name: ASD04910267
#	Creating user name:	WinNT
#	Creation time:	15. 06. 2019 20:55

#	Modifying user name:	WinNT
#	Modification time:	15. 06. 2019 20:55

#	Program:	/corina/corina34_cracker 3.40 0067  02.08.2006

@<TRIPOS>MOLECULE
ASD04910267
  44   45    0    0    0
SMALL
NO_CHARGES


@<TRIPOS>ATOM
   1 C1             1.2709     1.1867     0.3279 C.2     
   2 C2             1.0020    -0.2615     0.2510 C.ar    
   3 C3            -0.3101    -0.7219     0.1005 C.ar    
   4 C4            -0.5594    -2.0625     0.0293 C.ar    
   5 C5             0.4981    -2.9759     0.1066 C.ar    
   6 C6             1.8109    -2.5147     0.2568 C.ar    
   7 C7             2.0598    -1.1737     0.3230 C.ar    
   8 O8             0.3526     1.9795     0.2603 O.2     
   9 O9             2.5344     1.6303     0.4785 O.3     
  10 C10            0.4609    -5.2046     1.0978 C.2     
  11 C11            0.2298    -4.4209     0.0304 C.2     
  12 C12           -0.3040    -5.0220    -1.2442 C.3     
  13 C13            0.8587    -5.3240    -2.1917 C.3     
  14 C14            1.7469    -6.4090    -1.5795 C.3     
  15 C15            0.3094    -5.8118    -3.5338 C.3     
  16 C16            0.8284    -4.5998     2.3899 C.ar    
  17 C17            0.2746    -3.3755     2.7749 C.ar    
  18 C18            0.6227    -2.8154     3.9858 C.ar    
  19 C19            1.5190    -3.4628     4.8197 C.ar    
  20 C20            2.0715    -4.6760     4.4446 C.ar    
  21 C21            1.7280    -5.2504     3.2391 C.ar    
  22 Br22           1.9911    -2.6862     6.4779 Br      
  23 C23            2.7244     3.0682     0.5465 C.3     
  24 H24           -1.1262    -0.0170     0.0408 H       
  25 H25           -1.5727    -2.4180    -0.0863 H       
  26 H26            2.6274    -3.2191     0.3165 H       
  27 H27            3.0732    -0.8176     0.4351 H       
  28 H28            0.3772    -6.2776     1.0081 H       
  29 H29           -0.8357    -5.9457    -1.0155 H       
  30 H30           -0.9868    -4.3180    -1.7198 H       
  31 H31            1.4456    -4.4187    -2.3468 H       
  32 H32            2.5202    -6.6915    -2.2939 H       
  33 H33            2.2133    -6.0271    -0.6713 H       
  34 H34            1.1400    -7.2814    -1.3371 H       
  35 H35           -0.3234    -5.0389    -3.9700 H       
  36 H36            1.1378    -6.0270    -4.2089 H       
  37 H37           -0.2775    -6.7171    -3.3788 H       
  38 H38           -0.4239    -2.8692     2.1252 H       
  39 H39            0.1956    -1.8695     4.2845 H       
  40 H40            2.7702    -5.1753     5.0996 H       
  41 H41            2.1565    -6.1986     2.9497 H       
  42 H42            2.3607     3.5267    -0.3731 H       
  43 H43            2.1703     3.4682     1.3957 H       
  44 H44            3.7848     3.2892     0.6679 H       
@<TRIPOS>BOND
   1    1    2 1
   2    1    8 2
   3    1    9 1
   4    2    3 ar
   5    2    7 ar
   6    3    4 ar
   7    3   24 1
   8    4    5 ar
   9    4   25 1
  10    5    6 ar
  11    5   11 1
  12    6    7 ar
  13    6   26 1
  14    7   27 1
  15    9   23 1
  16   10   11 2
  17   10   16 1
  18   10   28 1
  19   11   12 1
  20   12   13 1
  21   12   29 1
  22   12   30 1
  23   13   14 1
  24   13   15 1
  25   13   31 1
  26   14   32 1
  27   14   33 1
  28   14   34 1
  29   15   35 1
  30   15   36 1
  31   15   37 1
  32   16   17 ar
  33   16   21 ar
  34   17   18 ar
  35   17   38 1
  36   18   19 ar
  37   18   39 1
  38   19   20 ar
  39   19   22 1
  40   20   21 ar
  41   20   40 1
  42   21   41 1
  43   23   42 1
  44   23   43 1
  45   23   44 1

#	End of record

