#	Name: ASD01150998
#	Creating user name:	WinNT
#	Creation time:	15. 06. 2019 19:05

#	Modifying user name:	WinNT
#	Modification time:	15. 06. 2019 19:05

#	Program:	/corina/corina34_cracker 3.40 0067  02.08.2006

@<TRIPOS>MOLECULE
ASD01150998
  42   44    0    0    0
SMALL
NO_CHARGES


@<TRIPOS>ATOM
   1 C1            -0.0184     1.5028     0.0103 C.3     
   2 C2             0.0021    -0.0041     0.0020 C.2     
   3 N3            -1.1529    -0.6941     0.0815 N.am    
   4 O4             1.0578    -0.5958    -0.0762 O.2     
   5 C5            -1.1341    -2.0797     0.0739 C.2     
   6 C6            -2.2367    -2.8936     0.1491 C.2     
   7 N7            -1.9595    -4.2014     0.1226 N.2     
   8 C8            -0.7151    -4.5133     0.0315 C.2     
   9 S9             0.2660    -3.0550    -0.0382 S.3     
  10 C10           -3.6021    -2.3734     0.2508 C.2     
  11 O11           -3.7955    -1.1727     0.2714 O.2     
  12 O12           -4.6451    -3.2259     0.3215 O.3     
  13 C13           -5.9699    -2.6398     0.4205 C.3     
  14 C14           -7.0165    -3.7537     0.4900 C.3     
  15 C15           -0.1774    -5.9204    -0.0142 C.3     
  16 C16           -0.0983    -6.3892    -1.4685 C.3     
  17 O17            1.3190     2.0303     0.0004 O.3     
  18 C18            1.3399     3.1888    -0.7141 C.ar    
  19 C19            0.2273     3.2918    -1.5390 C.ar    
  20 C20           -0.6124     2.0501    -1.3092 C.3     
  21 C21            2.2793     4.2173    -0.7206 C.ar    
  22 C22            2.1044     5.3128    -1.5402 C.ar    
  23 C23            0.9953     5.4011    -2.3614 C.ar    
  24 C24            0.0557     4.3856    -2.3583 C.ar    
  25 H25           -0.5740     1.8752     0.8709 H       
  26 H26           -1.9973    -0.2209     0.1441 H       
  27 H27           -6.0302    -2.0280     1.3206 H       
  28 H28           -6.1585    -2.0181    -0.4547 H       
  29 H29           -8.0109    -3.3138     0.5644 H       
  30 H30           -6.9562    -4.3656    -0.4101 H       
  31 H31           -6.8278    -4.3754     1.3652 H       
  32 H32            0.8179    -5.9436     0.4296 H       
  33 H33           -0.8400    -6.5810     0.5449 H       
  34 H34            0.2906    -7.4069    -1.5016 H       
  35 H35           -1.0936    -6.3659    -1.9123 H       
  36 H36            0.5643    -5.7286    -2.0277 H       
  37 H37           -0.4812     1.3353    -2.1216 H       
  38 H38           -1.6641     2.3084    -1.1854 H       
  39 H39            3.1481     4.1564    -0.0819 H       
  40 H40            2.8373     6.1060    -1.5402 H       
  41 H41            0.8633     6.2596    -3.0032 H       
  42 H42           -0.8118     4.4504    -2.9983 H       
@<TRIPOS>BOND
   1    1    2 1
   2    1   17 1
   3    1   20 1
   4    1   25 1
   5    2    3 am
   6    2    4 2
   7    3    5 1
   8    3   26 1
   9    5    6 2
  10    5    9 1
  11    6    7 1
  12    6   10 1
  13    7    8 2
  14    8    9 1
  15    8   15 1
  16   10   11 2
  17   10   12 1
  18   12   13 1
  19   13   14 1
  20   13   27 1
  21   13   28 1
  22   14   29 1
  23   14   30 1
  24   14   31 1
  25   15   16 1
  26   15   32 1
  27   15   33 1
  28   16   34 1
  29   16   35 1
  30   16   36 1
  31   17   18 1
  32   18   19 ar
  33   18   21 ar
  34   19   20 1
  35   19   24 ar
  36   20   37 1
  37   20   38 1
  38   21   22 ar
  39   21   39 1
  40   22   23 ar
  41   22   40 1
  42   23   24 ar
  43   23   41 1
  44   24   42 1

#	End of record

