#	Name: ASD01882744
#	Creating user name:	WinNT
#	Creation time:	15. 06. 2019 19:45

#	Modifying user name:	WinNT
#	Modification time:	15. 06. 2019 19:45

#	Program:	/corina/corina34_cracker 3.40 0067  02.08.2006

@<TRIPOS>MOLECULE
ASD01882744
  31   33    0    0    0
SMALL
NO_CHARGES


@<TRIPOS>ATOM
   1 O1            -0.0173     1.4248     0.0099 O.3     
   2 C2             0.0021    -0.0041     0.0020 C.3     
   3 C3             1.2831     0.8325    -0.0057 C.3     
   4 C4            -0.3680    -0.7292     1.2974 C.3     
   5 O5            -1.5561    -1.4961     1.0913 O.3     
   6 C6            -3.1703    -2.9721     2.0248 C.ar    
   7 C7            -2.0238    -2.2062     2.1515 C.ar    
   8 C8            -1.3548    -2.1678     3.3661 C.ar    
   9 C9            -1.8358    -2.8945     4.4345 C.ar    
  10 C10           -2.9851    -3.6642     4.3067 C.ar    
  11 C11           -3.4472    -4.4384     5.5136 C.3     
  12 C12           -4.9063    -4.8606     5.3548 C.3     
  13 C13           -5.0646    -5.5528     3.9959 C.3     
  14 C14           -4.9135    -4.5008     2.8990 C.3     
  15 C15           -3.6539    -3.7000     3.1029 C.ar    
  16 H16           -0.2792    -0.5108    -0.9211 H       
  17 H17            1.8523     0.8812    -0.9340 H       
  18 H18            1.8699     0.8713     0.9120 H       
  19 H19            0.4467    -1.3924     1.5881 H       
  20 H20           -0.5402     0.0024     2.0869 H       
  21 H21           -3.6946    -3.0001     1.0810 H       
  22 H22           -0.4608    -1.5715     3.4743 H       
  23 H23           -1.3139    -2.8654     5.3795 H       
  24 H24           -2.8266    -5.3269     5.6298 H       
  25 H25           -3.3485    -3.8132     6.4010 H       
  26 H26           -5.1773    -5.5520     6.1527 H       
  27 H27           -5.5494    -3.9815     5.3960 H       
  28 H28           -4.2952    -6.3162     3.8809 H       
  29 H29           -6.0509    -6.0121     3.9306 H       
  30 H30           -4.8712    -4.9964     1.9291 H       
  31 H31           -5.7730    -3.8310     2.9225 H       
@<TRIPOS>BOND
   1    1    2 1
   2    1    3 1
   3    2    3 1
   4    2    4 1
   5    2   16 1
   6    3   17 1
   7    3   18 1
   8    4    5 1
   9    4   19 1
  10    4   20 1
  11    5    7 1
  12    6    7 ar
  13    6   15 ar
  14    6   21 1
  15    7    8 ar
  16    8    9 ar
  17    8   22 1
  18    9   10 ar
  19    9   23 1
  20   10   11 1
  21   10   15 ar
  22   11   12 1
  23   11   24 1
  24   11   25 1
  25   12   13 1
  26   12   26 1
  27   12   27 1
  28   13   14 1
  29   13   28 1
  30   13   29 1
  31   14   15 1
  32   14   30 1
  33   14   31 1

#	End of record

