#	Name: ASD06340051
#	Creating user name:	WinNT
#	Creation time:	15. 06. 2019 21:06

#	Modifying user name:	WinNT
#	Modification time:	15. 06. 2019 21:06

#	Program:	/corina/corina34_cracker 3.40 0067  02.08.2006

@<TRIPOS>MOLECULE
ASD06340051
  32   34    0    0    0
SMALL
NO_CHARGES


@<TRIPOS>ATOM
   1 S1            -0.0210     1.6939     0.0114 S.3     
   2 N2             0.0021    -0.0041     0.0020 N.am    
   3 C3             1.2962    -0.3594    -0.0122 C.2     
   4 N4             2.1856     0.6226    -0.0155 N.am    
   5 C5             1.6912     1.8721    -0.0040 C.2     
   6 O6             1.6365    -1.5276    -0.0214 O.2     
   7 O7             2.3224     2.9128    -0.0052 O.2     
   8 C8             3.6269     0.3610    -0.0302 C.3     
   9 C9             4.1080     0.2785    -1.4559 C.ar    
  10 C10            4.5425     1.4188    -2.1056 C.ar    
  11 C11            4.9838     1.3438    -3.4132 C.ar    
  12 C12            4.9907     0.1273    -4.0720 C.ar    
  13 C13            4.5558    -1.0136    -3.4213 C.ar    
  14 C14            4.1200    -0.9383    -2.1118 C.ar    
  15 Cl15           5.5443     0.0324    -5.7146 Cl      
  16 C16           -1.1039    -0.8593     0.0084 C.ar    
  17 C17           -2.3259    -0.4204    -0.4858 C.ar    
  18 C18           -3.4170    -1.2681    -0.4786 C.ar    
  19 C19           -3.2928    -2.5541     0.0212 C.ar    
  20 C20           -2.0767    -2.9929     0.5138 C.ar    
  21 C21           -0.9815    -2.1513     0.5036 C.ar    
  22 Cl22          -4.6656    -3.6167     0.0301 Cl      
  23 Cl23          -4.9446    -0.7211    -1.0958 Cl      
  24 H24            4.1482     1.1691     0.4830 H       
  25 H25            3.8302    -0.5822     0.4770 H       
  26 H26            4.5367     2.3685    -1.5913 H       
  27 H27            5.3228     2.2348    -3.9208 H       
  28 H28            4.5609    -1.9636    -3.9351 H       
  29 H29            3.7846    -1.8296    -1.6023 H       
  30 H30           -2.4229     0.5825    -0.8749 H       
  31 H31           -1.9826    -3.9960     0.9029 H       
  32 H32           -0.0315    -2.4962     0.8845 H       
@<TRIPOS>BOND
   1    1    2 1
   2    1    5 1
   3    2    3 am
   4    2   16 1
   5    3    4 am
   6    3    6 2
   7    4    5 am
   8    4    8 1
   9    5    7 2
  10    8    9 1
  11    8   24 1
  12    8   25 1
  13    9   10 ar
  14    9   14 ar
  15   10   11 ar
  16   10   26 1
  17   11   12 ar
  18   11   27 1
  19   12   13 ar
  20   12   15 1
  21   13   14 ar
  22   13   28 1
  23   14   29 1
  24   16   17 ar
  25   16   21 ar
  26   17   18 ar
  27   17   30 1
  28   18   19 ar
  29   18   23 1
  30   19   20 ar
  31   19   22 1
  32   20   21 ar
  33   20   31 1
  34   21   32 1

#	End of record

