#	Name: ASD05513008
#	Creating user name:	WinNT
#	Creation time:	15. 06. 2019 21:01

#	Modifying user name:	WinNT
#	Modification time:	15. 06. 2019 21:01

#	Program:	/corina/corina34_cracker 3.40 0067  02.08.2006

@<TRIPOS>MOLECULE
ASD05513008
  30   33    0    0    0
SMALL
NO_CHARGES


@<TRIPOS>ATOM
   1 C1            -0.0261     1.4642     0.2083 C.2     
   2 C2             0.0021    -0.0041     0.0020 C.2     
   3 C3            -1.4098    -0.3904    -0.1837 C.ar    
   4 C4            -2.1621     0.7904    -0.0854 C.ar    
   5 N5            -1.3086     1.8624     0.1522 N.am    
   6 C6             1.1108    -0.8313    -0.0137 C.2     
   7 C7             2.5270    -0.4334    -0.1274 C.ar    
   8 C8             3.2776    -1.6190    -0.0969 C.ar    
   9 N9             2.4184    -2.7055     0.0271 N.am    
  10 C10            1.1350    -2.3107     0.0867 C.2     
  11 C11            3.1645     0.8003    -0.2472 C.ar    
  12 C12            4.5404     0.8530    -0.3360 C.ar    
  13 C13            5.2837    -0.3156    -0.3066 C.ar    
  14 C14            4.6622    -1.5432    -0.1873 C.ar    
  15 O15            0.1664    -3.0372     0.1954 O.2     
  16 C16           -2.0422    -1.6106    -0.4156 C.ar    
  17 C17           -3.4148    -1.6548    -0.5486 C.ar    
  18 C18           -4.1599    -0.4909    -0.4525 C.ar    
  19 C19           -3.5434     0.7235    -0.2225 C.ar    
  20 O20            0.9382     2.1793     0.3994 O.2     
  21 H21           -1.6009     2.7813     0.2573 H       
  22 H22            2.7085    -3.6302     0.0692 H       
  23 H23            2.5841     1.7107    -0.2708 H       
  24 H24            5.0386     1.8068    -0.4290 H       
  25 H25            6.3603    -0.2661    -0.3774 H       
  26 H26            5.2537    -2.4466    -0.1656 H       
  27 H27           -1.4604    -2.5174    -0.4911 H       
  28 H28           -3.9091    -2.5981    -0.7283 H       
  29 H29           -5.2338    -0.5335    -0.5584 H       
  30 H30           -4.1362     1.6233    -0.1493 H       
@<TRIPOS>BOND
   1    1    2 1
   2    1   20 2
   3    1    5 am
   4    2    3 1
   5    2    6 2
   6    3    4 ar
   7    3   16 ar
   8    4    5 1
   9    4   19 ar
  10    5   21 1
  11    6    7 1
  12    6   10 1
  13    7    8 ar
  14    7   11 ar
  15    8    9 1
  16    8   14 ar
  17    9   10 am
  18    9   22 1
  19   10   15 2
  20   11   12 ar
  21   11   23 1
  22   12   13 ar
  23   12   24 1
  24   13   14 ar
  25   13   25 1
  26   14   26 1
  27   16   17 ar
  28   16   27 1
  29   17   18 ar
  30   17   28 1
  31   18   19 ar
  32   18   29 1
  33   19   30 1

#	End of record

