#	Name: ASD04880031
#	Creating user name:	WinNT
#	Creation time:	15. 06. 2019 20:52

#	Modifying user name:	WinNT
#	Modification time:	15. 06. 2019 20:52

#	Program:	/corina/corina34_cracker 3.40 0067  02.08.2006

@<TRIPOS>MOLECULE
ASD04880031
  78   83    0    0    0
SMALL
NO_CHARGES


@<TRIPOS>ATOM
   1 C1             0.1034     1.1571     0.0598 C.ar    
   2 C2             0.0419    -0.2313     0.0742 C.ar    
   3 C3            -1.1774    -0.8692     0.1398 C.ar    
   4 C4            -2.3565    -0.1213     0.1922 C.ar    
   5 C5            -2.2974     1.2754     0.1779 C.ar    
   6 C6            -1.0722     1.9114     0.1173 C.ar    
   7 N7            -1.0087     3.3110     0.1032 N.am    
   8 C8            -1.9735     4.0233    -0.5119 C.2     
   9 C9            -1.9754     5.4944    -0.4203 C.2     
  10 O10           -2.8425     3.4521    -1.1426 O.2     
  11 N11            1.3380     1.7977    -0.0062 N.3     
  12 C12            1.4893     2.5199    -1.2770 C.3     
  13 C13            2.4379     0.8426     0.1877 C.3     
  14 C14            3.7701     1.5960     0.1877 C.3     
  15 N15            3.9215     2.3182    -1.0832 N.3     
  16 C16            2.8215     3.2733    -1.2771 C.3     
  17 C17            5.1599     2.9608    -1.1493 C.ar    
  18 C18            6.0564     2.6418    -2.1611 C.ar    
  19 C19            5.4954     3.9246    -0.2066 C.ar    
  20 C20            6.7205     4.5579    -0.2749 C.ar    
  21 C21            7.6130     4.2341    -1.2806 C.ar    
  22 C22            7.2802     3.2792    -2.2235 C.ar    
  23 C23            5.6945     1.6011    -3.1892 C.3     
  24 C24           -3.6622    -0.8047     0.2620 C.2     
  25 C25           -2.8808     6.3386    -0.9859 C.2     
  26 O26           -2.5122     7.5866    -0.6551 O.3     
  27 C27           -1.4051     7.5113     0.0969 C.2     
  28 N28           -1.0757     6.2638     0.2505 N.2     
  29 O29           -4.6878    -0.1531     0.3075 O.2     
  30 N30           -3.7181    -2.1512     0.2753 N.am    
  31 C31           -0.6632     8.6875     0.6777 C.3     
  32 C32           -0.1037     9.7226    -0.3002 C.3     
  33 C33           -1.3205    10.0642     0.5622 C.3     
  34 C34           -5.0146    -2.8298     0.3447 C.3     
  35 C35           -4.7981    -4.3444     0.3458 C.3     
  36 C36           -6.1521    -5.0531     0.4182 C.3     
  37 C37           -5.9389    -6.5450     0.4194 C.ar    
  38 C38           -5.7797    -7.2382     1.6095 C.ar    
  39 C39           -5.5866    -8.6062     1.5714 C.ar    
  40 N40           -5.5525    -9.2508     0.4215 N.ar    
  41 C41           -5.7002    -8.6242    -0.7294 C.ar    
  42 C42           -5.9029    -7.2577    -0.7693 C.ar    
  43 H43            0.9519    -0.8114     0.0334 H       
  44 H44           -1.2219    -1.9482     0.1505 H       
  45 H45           -3.2072     1.8561     0.2179 H       
  46 H46           -0.2703     3.7674     0.5362 H       
  47 H47            1.4735     1.8092    -2.1033 H       
  48 H48            0.6701     3.2297    -1.3917 H       
  49 H49            2.3103     0.3296     1.1410 H       
  50 H50            2.4328     0.1128    -0.6219 H       
  51 H51            3.7860     2.3068     1.0140 H       
  52 H52            4.5893     0.8862     0.3024 H       
  53 H53            2.9492     3.7863    -2.2303 H       
  54 H54            2.8266     4.0031    -0.4674 H       
  55 H55            4.7986     4.1785     0.5785 H       
  56 H56            6.9819     5.3072     0.4576 H       
  57 H57            8.5703     4.7314    -1.3322 H       
  58 H58            7.9794     3.0286    -3.0075 H       
  59 H59            5.1961     2.0806    -4.0317 H       
  60 H60            6.5999     1.1043    -3.5375 H       
  61 H61            5.0256     0.8658    -2.7420 H       
  62 H62           -3.7335     6.0581    -1.5865 H       
  63 H63           -2.9000    -2.6710     0.2390 H       
  64 H64           -0.0835     8.4800     1.5772 H       
  65 H65            0.8438    10.1965    -0.0439 H       
  66 H66           -0.2722     9.5530    -1.3636 H       
  67 H67           -2.2895    10.1193     0.0661 H       
  68 H68           -1.1734    10.7628     1.3859 H       
  69 H69           -5.5302    -2.5358     1.2589 H       
  70 H70           -5.6180    -2.5497    -0.5188 H       
  71 H71           -4.2825    -4.6385    -0.5684 H       
  72 H72           -4.1948    -4.6245     1.2093 H       
  73 H73           -6.6677    -4.7591     1.3325 H       
  74 H74           -6.7555    -4.7730    -0.4453 H       
  75 H75           -5.8059    -6.7158     2.5544 H       
  76 H76           -5.4618    -9.1535     2.4941 H       
  77 H77           -5.6661    -9.1859    -1.6511 H       
  78 H78           -6.0235    -6.7502    -1.7150 H       
@<TRIPOS>BOND
   1    1    2 ar
   2    1   11 1
   3    1    6 ar
   4    2    3 ar
   5    2   43 1
   6    3    4 ar
   7    3   44 1
   8    4    5 ar
   9    4   24 1
  10    5    6 ar
  11    5   45 1
  12    6    7 1
  13    7    8 am
  14    7   46 1
  15    8    9 1
  16    8   10 2
  17    9   25 2
  18    9   28 1
  19   11   12 1
  20   11   13 1
  21   12   16 1
  22   12   47 1
  23   12   48 1
  24   13   14 1
  25   13   49 1
  26   13   50 1
  27   14   15 1
  28   14   51 1
  29   14   52 1
  30   15   16 1
  31   15   17 1
  32   16   53 1
  33   16   54 1
  34   17   18 ar
  35   17   19 ar
  36   18   23 1
  37   18   22 ar
  38   19   20 ar
  39   19   55 1
  40   20   21 ar
  41   20   56 1
  42   21   22 ar
  43   21   57 1
  44   22   58 1
  45   23   59 1
  46   23   60 1
  47   23   61 1
  48   24   29 2
  49   24   30 am
  50   25   26 1
  51   25   62 1
  52   26   27 1
  53   27   28 2
  54   27   31 1
  55   30   34 1
  56   30   63 1
  57   31   32 1
  58   31   33 1
  59   31   64 1
  60   32   33 1
  61   32   65 1
  62   32   66 1
  63   33   67 1
  64   33   68 1
  65   34   35 1
  66   34   69 1
  67   34   70 1
  68   35   36 1
  69   35   71 1
  70   35   72 1
  71   36   37 1
  72   36   73 1
  73   36   74 1
  74   37   38 ar
  75   37   42 ar
  76   38   39 ar
  77   38   75 1
  78   39   40 ar
  79   39   76 1
  80   40   41 ar
  81   41   42 ar
  82   41   77 1
  83   42   78 1

#	End of record

