#	Name: ASD01230162
#	Creating user name:	WinNT
#	Creation time:	15. 06. 2019 19:11

#	Modifying user name:	WinNT
#	Modification time:	15. 06. 2019 19:11

#	Program:	/corina/corina34_cracker 3.40 0067  02.08.2006

@<TRIPOS>MOLECULE
ASD01230162
  49   51    0    0    0
SMALL
NO_CHARGES


@<TRIPOS>ATOM
   1 S1            -0.0203     1.6432     0.0111 S.o2    
   2 N2             0.0021    -0.0041     0.0020 N.am    
   3 C3             1.0582    -0.7115     0.0766 C.2     
   4 N4             2.3239    -0.2014     0.2156 N.pl3   
   5 C5             2.5547     1.1284     0.7685 C.3     
   6 C6             1.7187     2.1517    -0.0028 C.3     
   7 C7             0.9691    -2.2282     0.0263 C.3     
   8 C8             2.0432    -2.7791     0.9676 C.3     
   9 C9             3.4382    -2.3754     0.5096 C.3     
  10 C10            3.4443    -1.0396    -0.2239 C.3     
  11 C11           -0.4150    -2.6840     0.4924 C.3     
  12 C12           -1.4743    -2.1884    -0.4941 C.3     
  13 C13           -2.8376    -2.6374    -0.0349 C.ar    
  14 C14           -3.5815    -1.8348     0.8097 C.ar    
  15 C15           -4.8320    -2.2466     1.2309 C.ar    
  16 C16           -5.3388    -3.4609     0.8071 C.ar    
  17 C17           -4.5953    -4.2631    -0.0382 C.ar    
  18 C18           -3.3466    -3.8493    -0.4629 C.ar    
  19 C19           -6.7017    -3.9104     1.2671 C.3     
  20 C20           -7.6103    -4.1085     0.0522 C.3     
  21 C21           -6.5730    -5.2312     2.0286 C.3     
  22 O22           -0.6472     1.9881    -1.2166 O.2     
  23 O23           -0.6237     1.9749     1.2541 O.2     
  24 H24            2.2653     1.1405     1.8193 H       
  25 H25            3.6113     1.3809     0.6793 H       
  26 H26            2.0726     2.2083    -1.0322 H       
  27 H27            1.8152     3.1296     0.4690 H       
  28 H28            1.1525    -2.5769    -0.9900 H       
  29 H29            1.8709    -2.3915     1.9717 H       
  30 H30            1.9753    -3.8668     0.9892 H       
  31 H31            4.0887    -2.3026     1.3812 H       
  32 H32            3.8279    -3.1455    -0.1561 H       
  33 H33            3.3602    -1.2183    -1.2958 H       
  34 H34            4.3816    -0.5221    -0.0194 H       
  35 H35           -0.4426    -3.7727     0.5386 H       
  36 H36           -0.6189    -2.2732     1.4812 H       
  37 H37           -1.4467    -1.0997    -0.5402 H       
  38 H38           -1.2704    -2.5993    -1.4829 H       
  39 H39           -3.1855    -0.8861     1.1407 H       
  40 H40           -5.4129    -1.6199     1.8913 H       
  41 H41           -4.9912    -5.2120    -0.3690 H       
  42 H42           -2.7673    -4.4743    -1.1262 H       
  43 H43           -7.1318    -3.1533     1.9229 H       
  44 H44           -7.1803    -4.8656    -0.6035 H       
  45 H45           -8.5961    -4.4336     0.3849 H       
  46 H46           -7.7020    -3.1676    -0.4903 H       
  47 H47           -7.5588    -5.5563     2.3613 H       
  48 H48           -6.1430    -5.9882     1.3728 H       
  49 H49           -5.9257    -5.0900     2.8941 H       
@<TRIPOS>BOND
   1    1    2 am
   2    1    6 1
   3    1   22 2
   4    1   23 2
   5    2    3 2
   6    3    4 1
   7    3    7 1
   8    4    5 1
   9    4   10 1
  10    5    6 1
  11    5   24 1
  12    5   25 1
  13    6   26 1
  14    6   27 1
  15    7    8 1
  16    7   11 1
  17    7   28 1
  18    8    9 1
  19    8   29 1
  20    8   30 1
  21    9   10 1
  22    9   31 1
  23    9   32 1
  24   10   33 1
  25   10   34 1
  26   11   12 1
  27   11   35 1
  28   11   36 1
  29   12   13 1
  30   12   37 1
  31   12   38 1
  32   13   14 ar
  33   13   18 ar
  34   14   15 ar
  35   14   39 1
  36   15   16 ar
  37   15   40 1
  38   16   17 ar
  39   16   19 1
  40   17   18 ar
  41   17   41 1
  42   18   42 1
  43   19   20 1
  44   19   21 1
  45   19   43 1
  46   20   44 1
  47   20   45 1
  48   20   46 1
  49   21   47 1
  50   21   48 1
  51   21   49 1

#	End of record

