#	Name: ASD01948153
#	Creating user name:	WinNT
#	Creation time:	15. 06. 2019 20:13

#	Modifying user name:	WinNT
#	Modification time:	15. 06. 2019 20:13

#	Program:	/corina/corina34_cracker 3.40 0067  02.08.2006

@<TRIPOS>MOLECULE
ASD01948153
  42   44    0    0    0
SMALL
NO_CHARGES


@<TRIPOS>ATOM
   1 C1             1.7998     1.4186    -1.0454 C.ar    
   2 C2             1.5981     0.0465    -1.1427 C.ar    
   3 C3             1.7715    -0.5930    -2.3628 C.ar    
   4 C4             2.1438     0.1351    -3.4763 C.ar    
   5 C5             2.3443     1.5002    -3.3770 C.ar    
   6 C6             2.1664     2.1422    -2.1640 C.ar    
   7 N7             1.2218    -0.6882    -0.0137 N.pl3   
   8 C8             3.6315    -2.2826    -0.4396 C.2     
   9 C9             2.3517    -2.8728    -0.2911 C.2     
  10 C10            1.1515    -2.0664    -0.0783 C.2     
  11 N11            4.6883    -3.1034    -0.6378 N.am    
  12 Cl12           1.5843     2.2230     0.4778 Cl      
  13 C13            2.2382    -4.2690    -0.3501 C.2     
  14 N14            1.0117    -4.8551    -0.2085 N.am    
  15 C15           -0.0979    -4.1234    -0.0125 C.2     
  16 C16           -0.0594    -2.7272     0.0571 C.2     
  17 C17            4.5116    -4.4446    -0.6900 C.2     
  18 N18            3.3415    -5.0043    -0.5450 N.2     
  19 O19            3.7748    -1.0736    -0.3952 O.2     
  20 C20            0.9044    -6.3148    -0.2718 C.3     
  21 O21           -1.1703    -4.6935     0.1074 O.2     
  22 Br22           2.8549     2.4923    -4.9037 Br      
  23 C23            6.0305    -2.5383    -0.7971 C.3     
  24 C24            6.7014    -2.4234     0.5732 C.3     
  25 C25            8.1032    -1.8332     0.4068 C.3     
  26 O26            8.7298    -1.7260     1.6865 O.3     
  27 Cl27          -1.5211    -1.8261     0.3125 Cl      
  28 H28            1.6159    -1.6589    -2.4413 H       
  29 H29            2.2787    -0.3622    -4.4255 H       
  30 H30            2.3236     3.2081    -2.0894 H       
  31 H31            1.0101    -0.2301     0.8147 H       
  32 H32            5.3730    -5.0760    -0.8498 H       
  33 H33            1.0213    -6.7314     0.7286 H       
  34 H34           -0.0727    -6.5905    -0.6683 H       
  35 H35            1.6850    -6.7086    -0.9228 H       
  36 H36            6.6246    -3.1885    -1.4392 H       
  37 H37            5.9569    -1.5494    -1.2496 H       
  38 H38            6.1073    -1.7733     1.2153 H       
  39 H39            6.7750    -3.4123     1.0257 H       
  40 H40            8.6973    -2.4834    -0.2354 H       
  41 H41            8.0296    -0.8443    -0.0458 H       
  42 H42            9.6238    -1.3584     1.6572 H       
@<TRIPOS>BOND
   1    1    2 ar
   2    1   12 1
   3    1    6 ar
   4    2    3 ar
   5    2    7 1
   6    3    4 ar
   7    3   28 1
   8    4    5 ar
   9    4   29 1
  10    5    6 ar
  11    5   22 1
  12    6   30 1
  13    7   10 1
  14    7   31 1
  15    8    9 1
  16    8   19 2
  17    8   11 am
  18    9   10 1
  19    9   13 2
  20   10   16 2
  21   11   17 1
  22   11   23 1
  23   13   14 1
  24   13   18 1
  25   14   15 am
  26   14   20 1
  27   15   16 1
  28   15   21 2
  29   16   27 1
  30   17   18 2
  31   17   32 1
  32   20   33 1
  33   20   34 1
  34   20   35 1
  35   23   24 1
  36   23   36 1
  37   23   37 1
  38   24   25 1
  39   24   38 1
  40   24   39 1
  41   25   26 1
  42   25   40 1
  43   25   41 1
  44   26   42 1

#	End of record

