#	Name: ASD01148771
#	Creating user name:	WinNT
#	Creation time:	15. 06. 2019 19:03

#	Modifying user name:	WinNT
#	Modification time:	15. 06. 2019 19:03

#	Program:	/corina/corina34_cracker 3.40 0067  02.08.2006

@<TRIPOS>MOLECULE
ASD01148771
  54   56    0    0    0
SMALL
NO_CHARGES


@<TRIPOS>ATOM
   1 N1            -0.0158     1.3404     0.0831 N.pl3   
   2 C2             0.0024     0.0047    -0.1088 C.2     
   3 C3             1.3182    -0.4067    -0.1557 C.2     
   4 C4             2.1210     0.7513     0.0182 C.2     
   5 C5             1.2766     1.8044     0.1618 C.2     
   6 C6             1.7986    -1.7841    -0.3488 C.2     
   7 O7             1.0020    -2.6918    -0.4863 O.2     
   8 O8             3.1218    -2.0391    -0.3732 O.3     
   9 C9            -1.1689     2.1305     0.1806 C.ar    
  10 C10           -2.0099     2.0014     1.2781 C.ar    
  11 C11           -3.1454     2.7818     1.3715 C.ar    
  12 C12           -3.4455     3.6909     0.3734 C.ar    
  13 C13           -2.6101     3.8217    -0.7205 C.ar    
  14 C14           -1.4698     3.0479    -0.8169 C.ar    
  15 S15           -4.2132     2.6189     2.7636 S.o2    
  16 O16           -5.4837     3.0342     2.2813 O.2     
  17 O17           -4.0000     1.2884     3.2149 O.2     
  18 C18           -4.3438     3.6768     5.2826 C.3     
  19 C19           -3.5695     3.8110     3.9699 C.3     
  20 C20           -2.0865     3.5315     4.2217 C.3     
  21 C21            1.6784     3.2126     0.3680 C.ar    
  22 C22            0.7808     4.1225     0.9282 C.ar    
  23 C23            1.1621     5.4348     1.1183 C.ar    
  24 C24            2.4309     5.8493     0.7545 C.ar    
  25 C25            3.3255     4.9522     0.1986 C.ar    
  26 C26            2.9586     3.6358     0.0085 C.ar    
  27 C27           -1.2064    -0.8844    -0.2478 C.3     
  28 C28            3.5234    -3.4209    -0.5677 C.3     
  29 C29            5.0506    -3.5131    -0.5669 C.3     
  30 H30            3.2003     0.7874     0.0340 H       
  31 H31           -1.7765     1.2912     2.0575 H       
  32 H32           -4.3345     4.2996     0.4484 H       
  33 H33           -2.8473     4.5321    -1.4985 H       
  34 H34           -0.8155     3.1534    -1.6696 H       
  35 H35           -4.2257     2.6658     5.6724 H       
  36 H36           -3.9570     4.3932     6.0074 H       
  37 H37           -5.4003     3.8760     5.1033 H       
  38 H38           -3.6876     4.8220     3.5801 H       
  39 H39           -1.9683     2.5205     4.6115 H       
  40 H40           -1.5348     3.6271     3.2864 H       
  41 H41           -1.6997     4.2478     4.9465 H       
  42 H42           -0.2102     3.8003     1.2119 H       
  43 H43            0.4684     6.1400     1.5518 H       
  44 H44            2.7242     6.8778     0.9048 H       
  45 H45            4.3145     5.2820    -0.0833 H       
  46 H46            3.6592     2.9355    -0.4217 H       
  47 H47           -1.4884    -0.9525    -1.2985 H       
  48 H48           -0.9713    -1.8792     0.1305 H       
  49 H49           -2.0339    -0.4644     0.3240 H       
  50 H50            3.1220    -4.0330     0.2400 H       
  51 H51            3.1381    -3.7803    -1.5219 H       
  52 H52            5.3520    -4.5504    -0.7129 H       
  53 H53            5.4520    -2.9010    -1.3746 H       
  54 H54            5.4358    -3.1537     0.3873 H       
@<TRIPOS>BOND
   1    1    2 1
   2    1    5 1
   3    1    9 1
   4    2    3 2
   5    2   27 1
   6    3    4 1
   7    3    6 1
   8    4    5 2
   9    4   30 1
  10    5   21 1
  11    6    7 2
  12    6    8 1
  13    8   28 1
  14    9   10 ar
  15    9   14 ar
  16   10   11 ar
  17   10   31 1
  18   11   12 ar
  19   11   15 1
  20   12   13 ar
  21   12   32 1
  22   13   14 ar
  23   13   33 1
  24   14   34 1
  25   15   16 2
  26   15   17 2
  27   15   19 1
  28   18   19 1
  29   18   35 1
  30   18   36 1
  31   18   37 1
  32   19   20 1
  33   19   38 1
  34   20   39 1
  35   20   40 1
  36   20   41 1
  37   21   22 ar
  38   21   26 ar
  39   22   23 ar
  40   22   42 1
  41   23   24 ar
  42   23   43 1
  43   24   25 ar
  44   24   44 1
  45   25   26 ar
  46   25   45 1
  47   26   46 1
  48   27   47 1
  49   27   48 1
  50   27   49 1
  51   28   29 1
  52   28   50 1
  53   28   51 1
  54   29   52 1
  55   29   53 1
  56   29   54 1

#	End of record

