#	Name: ASD05060048
#	Creating user name:	WinNT
#	Creation time:	15. 06. 2019 20:56

#	Modifying user name:	WinNT
#	Modification time:	15. 06. 2019 20:56

#	Program:	/corina/corina34_cracker 3.40 0067  02.08.2006

@<TRIPOS>MOLECULE
ASD05060048
  42   44    0    0    0
SMALL
NO_CHARGES


@<TRIPOS>ATOM
   1 C1             0.1373     1.7234     0.0999 C.2     
   2 N2            -0.0790     0.4365     0.0865 N.2     
   3 C3             1.0941    -0.2145     0.0146 C.2     
   4 C4             2.0961     0.7463    -0.0180 C.2     
   5 N5             1.4611     1.9613     0.0373 N.pl3   
   6 C6             1.2828    -1.6801    -0.0228 C.2     
   7 O7             2.4033    -2.1472    -0.0881 O.2     
   8 N8             0.2127    -2.4986     0.0154 N.am    
   9 C9             3.5474     0.5091    -0.0957 C.2     
  10 O10            4.1276     0.6316    -1.1574 O.2     
  11 N11            4.2326     0.1561     1.0099 N.am    
  12 C12            3.5313    -0.1010     2.2751 C.3     
  13 C13            4.1592     0.7650     3.3718 C.3     
  14 C14            5.6659     0.5021     3.4237 C.3     
  15 C15            6.2988     0.8853     2.0840 C.3     
  16 C16            5.6946     0.0152     0.9713 C.3     
  17 O17            6.2500     1.2844     4.4672 O.3     
  18 C18            0.3862    -3.8834    -0.0963 C.ar    
  19 C19           -0.6454    -4.6793    -0.5909 C.ar    
  20 C20           -0.4678    -6.0486    -0.6996 C.ar    
  21 C21            0.7307    -6.6232    -0.3178 C.ar    
  22 C22            1.7545    -5.8344     0.1730 C.ar    
  23 C23            1.5874    -4.4664     0.2797 C.ar    
  24 O24           -1.8235    -4.1129    -0.9655 O.3     
  25 H25           -0.6294     2.4824     0.1491 H       
  26 H26            1.8878     2.8324     0.0322 H       
  27 H27           -0.6776    -2.1282     0.1203 H       
  28 H28            2.4771     0.1541     2.1669 H       
  29 H29            3.6293    -1.1537     2.5399 H       
  30 H30            3.9809     1.8174     3.1510 H       
  31 H31            3.7127     0.5139     4.3339 H       
  32 H32            5.8435    -0.5552     3.6200 H       
  33 H33            6.1004     1.9366     1.8753 H       
  34 H34            7.3752     0.7198     2.1295 H       
  35 H35            5.9655    -1.0283     1.1320 H       
  36 H36            6.0682     0.3469     0.0026 H       
  37 H37            7.2057     1.1679     4.5582 H       
  38 H38           -1.2657    -6.6678    -1.0822 H       
  39 H39            0.8672    -7.6911    -0.4029 H       
  40 H40            2.6887    -6.2877     0.4699 H       
  41 H41            2.3904    -3.8521     0.6596 H       
  42 H42           -1.8527    -3.8434    -1.8937 H       
@<TRIPOS>BOND
   1    1    2 2
   2    1    5 1
   3    1   25 1
   4    2    3 1
   5    3    4 2
   6    3    6 1
   7    4    5 1
   8    4    9 1
   9    5   26 1
  10    6    7 2
  11    6    8 am
  12    8   18 1
  13    8   27 1
  14    9   10 2
  15    9   11 am
  16   11   12 1
  17   11   16 1
  18   12   13 1
  19   12   28 1
  20   12   29 1
  21   13   14 1
  22   13   30 1
  23   13   31 1
  24   14   15 1
  25   14   17 1
  26   14   32 1
  27   15   16 1
  28   15   33 1
  29   15   34 1
  30   16   35 1
  31   16   36 1
  32   17   37 1
  33   18   19 ar
  34   18   23 ar
  35   19   20 ar
  36   19   24 1
  37   20   21 ar
  38   20   38 1
  39   21   22 ar
  40   21   39 1
  41   22   23 ar
  42   22   40 1
  43   23   41 1
  44   24   42 1

#	End of record

