#	Name: ASD02198600
#	Creating user name:	WinNT
#	Creation time:	15. 06. 2019 20:19

#	Modifying user name:	WinNT
#	Modification time:	15. 06. 2019 20:19

#	Program:	/corina/corina34_cracker 3.40 0067  02.08.2006

@<TRIPOS>MOLECULE
ASD02198600
  55   59    0    0    0
SMALL
NO_CHARGES


@<TRIPOS>ATOM
   1 C1             2.3590     0.9300     0.1290 C.2     
   2 C2             2.0110    -0.3795     0.2004 C.2     
   3 N3             0.7114    -0.7526     0.1958 N.pl3   
   4 N4            -0.2600     0.0808     0.1252 N.2     
   5 C5            -0.0627     1.3796     0.0513 C.2     
   6 C6             1.3188     1.8868     0.0500 C.2     
   7 C7             0.4118    -2.1172     0.2715 C.ar    
   8 C8             1.4313    -3.0579     0.1904 C.ar    
   9 C9             1.1358    -4.4036     0.2646 C.ar    
  10 C10           -0.1813    -4.8182     0.4208 C.ar    
  11 C11           -1.2008    -3.8774     0.5024 C.ar    
  12 C12           -0.9047    -2.5315     0.4335 C.ar    
  13 C13           -1.2062     2.3110    -0.0292 C.2     
  14 N14           -2.3566     2.1245    -0.7431 N.pl3   
  15 N15           -3.1706     3.2461    -0.5411 N.2     
  16 C16           -2.5501     4.0783     0.2567 C.2     
  17 C17           -1.3166     3.5285     0.6059 C.2     
  18 C18           -2.6658     1.0115    -1.5353 C.ar    
  19 C19           -1.6995     0.4577    -2.3647 C.ar    
  20 O20            1.5579     3.0834    -0.0164 O.2     
  21 C21           -3.9377     0.4560    -1.4886 C.ar    
  22 C22           -4.2393    -0.6417    -2.2705 C.ar    
  23 C23           -3.2764    -1.1877    -3.0993 C.ar    
  24 C24           -2.0074    -0.6400    -3.1442 C.ar    
  25 N25           -0.4806    -6.1807     0.4955 N.3     
  26 C26           -1.9252    -6.3944     0.6594 C.3     
  27 C27           -2.2196    -7.8963     0.6570 C.3     
  28 N28           -1.4681    -8.5419     1.7424 N.3     
  29 C29           -0.0234    -8.3282     1.5785 C.3     
  30 C30            0.2709    -6.8262     1.5809 C.3     
  31 C31           -1.7828    -9.9746     1.8209 C.3     
  32 H32            3.3957     1.2327     0.1368 H       
  33 H33            2.7819    -1.1334     0.2613 H       
  34 H34            2.4549    -2.7357     0.0689 H       
  35 H35            1.9281    -5.1348     0.2008 H       
  36 H36           -2.2245    -4.1996     0.6235 H       
  37 H37           -1.6969    -1.8003     0.4972 H       
  38 H38           -2.9318     5.0314     0.5919 H       
  39 H39           -0.5784     3.9790     1.2527 H       
  40 H40           -0.7083     0.8852    -2.4004 H       
  41 H41           -4.6900     0.8817    -0.8412 H       
  42 H42           -5.2282    -1.0744    -2.2343 H       
  43 H43           -3.5147    -2.0461    -3.7098 H       
  44 H44           -1.2575    -1.0687    -3.7925 H       
  45 H45           -2.2519    -5.9613     1.6049 H       
  46 H46           -2.4590    -5.9179    -0.1629 H       
  47 H47           -3.2870    -8.0579     0.8076 H       
  48 H48           -1.9179    -8.3245    -0.2989 H       
  49 H49            0.5103    -8.8047     2.4008 H       
  50 H50            0.3032    -8.7612     0.6330 H       
  51 H51            1.3383    -6.6646     1.4304 H       
  52 H52           -0.0308    -6.3981     2.5368 H       
  53 H53           -1.5200   -10.4564     0.8792 H       
  54 H54           -1.2132   -10.4278     2.6323 H       
  55 H55           -2.8487   -10.1027     2.0095 H       
@<TRIPOS>BOND
   1    1    2 2
   2    1    6 1
   3    1   32 1
   4    2    3 1
   5    2   33 1
   6    3    4 1
   7    3    7 1
   8    4    5 2
   9    5    6 1
  10    5   13 1
  11    6   20 2
  12    7    8 ar
  13    7   12 ar
  14    8    9 ar
  15    8   34 1
  16    9   10 ar
  17    9   35 1
  18   10   11 ar
  19   10   25 1
  20   11   12 ar
  21   11   36 1
  22   12   37 1
  23   13   14 1
  24   13   17 2
  25   14   15 1
  26   14   18 1
  27   15   16 2
  28   16   17 1
  29   16   38 1
  30   17   39 1
  31   18   21 ar
  32   18   19 ar
  33   19   24 ar
  34   19   40 1
  35   21   22 ar
  36   21   41 1
  37   22   23 ar
  38   22   42 1
  39   23   24 ar
  40   23   43 1
  41   24   44 1
  42   25   26 1
  43   25   30 1
  44   26   27 1
  45   26   45 1
  46   26   46 1
  47   27   28 1
  48   27   47 1
  49   27   48 1
  50   28   29 1
  51   28   31 1
  52   29   30 1
  53   29   49 1
  54   29   50 1
  55   30   51 1
  56   30   52 1
  57   31   53 1
  58   31   54 1
  59   31   55 1

#	End of record

