#	Name: ASD01948322
#	Creating user name:	WinNT
#	Creation time:	15. 06. 2019 20:14

#	Modifying user name:	WinNT
#	Modification time:	15. 06. 2019 20:14

#	Program:	/corina/corina34_cracker 3.40 0067  02.08.2006

@<TRIPOS>MOLECULE
ASD01948322
  56   58    0    0    0
SMALL
NO_CHARGES


@<TRIPOS>ATOM
   1 C1             0.3335     2.3665    -0.6675 C.2     
   2 N2             0.5289     1.0256    -0.4965 N.am    
   3 C3             1.6950     0.5476    -0.0250 C.2     
   4 C4             2.5520     2.7843     0.1314 C.2     
   5 C5             1.3118     3.2523    -0.3665 C.2     
   6 C6             2.1993     4.6323     2.1911 C.ar    
   7 C7             3.3674     4.6376     1.4405 C.ar    
   8 N8             3.5652     3.6748     0.4448 N.pl3   
   9 C9             2.0062     5.5842     3.1732 C.ar    
  10 C10            2.9748     6.5435     3.4101 C.ar    
  11 C11            4.1406     6.5524     2.6650 C.ar    
  12 C12            4.3401     5.6023     1.6803 C.ar    
  13 N13            1.0982     4.6282    -0.5479 N.am    
  14 S14           -0.3707     5.1746    -1.0828 S.o2    
  15 N15           -1.4688     4.8893     0.1234 N.am    
  16 O16            1.8450    -0.6564     0.1191 O.2     
  17 C17           -0.4966     0.1379    -0.8150 C.2     
  18 F18            5.4784     5.6108     0.9526 F       
  19 Br19           2.7049     7.8446     4.7554 Br      
  20 O20           -0.2567     6.5865    -1.1959 O.2     
  21 O21           -0.7399     4.3353    -2.1684 O.2     
  22 C22            2.7356     1.4220     0.3001 C.2     
  23 C23           -1.5865     5.8261     1.2435 C.3     
  24 C24           -2.3226     3.6999     0.0704 C.3     
  25 C25           -2.1280     2.6415     1.1580 C.3     
  26 C26           -3.3711     3.5333     1.1721 C.3     
  27 C27           -2.6730     6.8578     0.9335 C.3     
  28 O28           -3.9352     6.1988     0.8133 O.3     
  29 C29           -2.7395     7.8844     2.0661 C.3     
  30 O30           -3.6714     8.9121     1.7233 O.3     
  31 C31           -1.0367    -0.7978     0.2357 C.3     
  32 C32           -0.9948     0.1164    -2.0364 C.2     
  33 H33           -0.6106     2.7238    -1.0515 H       
  34 H34            1.4402     3.8871     2.0041 H       
  35 H35            4.4122     3.6310    -0.0261 H       
  36 H36            1.0975     5.5800     3.7570 H       
  37 H37            4.8946     7.3028     2.8516 H       
  38 H38            1.8110     5.2587    -0.3598 H       
  39 H39            3.6720     1.0399     0.6789 H       
  40 H40           -1.8522     5.2792     2.1482 H       
  41 H41           -0.6343     6.3350     1.3931 H       
  42 H42           -2.5829     3.3523    -0.9293 H       
  43 H43           -2.2607     1.5976     0.8739 H       
  44 H44           -1.3647     2.8301     1.9129 H       
  45 H45           -3.4257     4.3086     1.9364 H       
  46 H46           -4.3216     3.0761     0.8973 H       
  47 H47           -2.4368     7.3641    -0.0024 H       
  48 H48           -4.2173     5.7398     1.6163 H       
  49 H49           -3.0622     7.3926     2.9837 H       
  50 H50           -1.7533     8.3236     2.2167 H       
  51 H51           -3.7649     9.5990     2.3974 H       
  52 H52           -0.4529    -0.6931     1.1501 H       
  53 H53           -2.0789    -0.5521     0.4399 H       
  54 H54           -0.9691    -1.8248    -0.1230 H       
  55 H55           -1.8436    -0.5120    -2.2624 H       
  56 H56           -0.5538     0.7271    -2.8103 H       
@<TRIPOS>BOND
   1    1    2 1
   2    1    5 2
   3    1   33 1
   4    2    3 am
   5    2   17 1
   6    3   22 1
   7    3   16 2
   8    4    5 1
   9    4    8 1
  10    4   22 2
  11    5   13 1
  12    6    7 ar
  13    6    9 ar
  14    6   34 1
  15    7    8 1
  16    7   12 ar
  17    8   35 1
  18    9   10 ar
  19    9   36 1
  20   10   11 ar
  21   10   19 1
  22   11   12 ar
  23   11   37 1
  24   12   18 1
  25   13   14 am
  26   13   38 1
  27   14   15 am
  28   14   20 2
  29   14   21 2
  30   15   23 1
  31   15   24 1
  32   17   31 1
  33   17   32 2
  34   22   39 1
  35   23   27 1
  36   23   40 1
  37   23   41 1
  38   24   25 1
  39   24   26 1
  40   24   42 1
  41   25   26 1
  42   25   43 1
  43   25   44 1
  44   26   45 1
  45   26   46 1
  46   27   28 1
  47   27   29 1
  48   27   47 1
  49   28   48 1
  50   29   30 1
  51   29   49 1
  52   29   50 1
  53   30   51 1
  54   31   52 1
  55   31   53 1
  56   31   54 1
  57   32   55 1
  58   32   56 1

#	End of record

